# generated using pymatgen
data_VZnO4
_symmetry_space_group_name_H-M   'P 1'
_cell_length_a   16.97249442
_cell_length_b   16.96924017
_cell_length_c   16.94056195
_cell_angle_alpha   89.72524656
_cell_angle_beta   90.17000027
_cell_angle_gamma   89.86942941
_symmetry_Int_Tables_number   1
_chemical_formula_structural   VZnO4
_chemical_formula_sum   'V64 Zn64 O256'
_cell_volume   4878.96650730
_cell_formula_units_Z   64
loop_
 _symmetry_equiv_pos_site_id
 _symmetry_equiv_pos_as_xyz
  1  'x, y, z'
loop_
 _atom_site_type_symbol
 _atom_site_label
 _atom_site_symmetry_multiplicity
 _atom_site_fract_x
 _atom_site_fract_y
 _atom_site_fract_z
 _atom_site_occupancy
  V  V0  1  0.27238724  0.87729962  0.12562073  1
  V  V1  1  0.48377895  0.52534383  0.52702044  1
  V  V2  1  0.87616290  0.10951372  0.25510212  1
  V  V3  1  0.37746671  0.12231958  0.26253589  1
  V  V4  1  0.73569817  0.25831700  0.00684789  1
  V  V5  1  0.48295928  0.64596556  0.11608767  1
  V  V6  1  0.10813811  0.43890178  0.73462939  1
  V  V7  1  0.12243720  0.88495367  0.23893155  1
  V  V8  1  0.75026099  -0.00401128  0.25581866  1
  V  V9  1  0.62174046  0.86071029  0.26218201  1
  V  V10  1  0.37557766  0.49176193  0.87054486  1
  V  V11  1  0.11843960  0.61889279  0.01688706  1
  V  V12  1  0.92309308  0.39096370  -0.00955218  1
  V  V13  1  0.25081730  0.37674982  0.10391239  1
  V  V14  1  0.38409918  0.12718258  0.75797330  1
  V  V15  1  -0.01028156  0.88575784  0.38751521  1
  V  V16  1  0.37674794  0.23617238  0.11270515  1
  V  V17  1  0.26156182  0.63115415  0.86524973  1
  V  V18  1  0.12754882  0.75784819  0.37405920  1
  V  V19  1  0.49699932  0.12453134  0.62319869  1
  V  V20  1  0.26526986  0.74812232  0.01291168  1
  V  V21  1  0.37542701  0.62515188  0.24747034  1
  V  V22  1  0.24075452  0.90073603  0.62067623  1
  V  V23  1  0.12219594  0.76225688  0.87970816  1
  V  V24  1  0.24614680  0.01959376  0.75856828  1
  V  V25  1  0.74633770  0.61420134  0.87762078  1
  V  V26  1  0.25379314  0.62394430  0.36956622  1
  V  V27  1  -0.04225323  0.67161963  0.65742009  1
  V  V28  1  0.76372306  0.01153498  0.78049855  1
  V  V29  1  0.63300232  0.10831812  -0.01323431  1
  V  V30  1  0.25497625  0.00469619  0.26151788  1
  V  V31  1  0.87783843  0.22092508  0.10414621  1
  V  V32  1  0.75939427  0.74422301  0.00345774  1
  V  V33  1  0.49038174  0.75727496  0.26581869  1
  V  V34  1  0.61985649  -0.00626024  0.12097182  1
  V  V35  1  0.75036111  0.85747779  0.11874627  1
  V  V36  1  0.00952781  0.23247093  0.24019581  1
  V  V37  1  0.12189363  0.37769357  0.25367039  1
  V  V38  1  0.61875080  0.63038251  0.01203288  1
  V  V39  1  0.62355886  0.14345197  0.48607532  1
  V  V40  1  0.24615856  0.25969950  0.47497885  1
  V  V41  1  0.14201843  0.12594572  0.48584688  1
  V  V42  1  0.51315321  -0.01026543  0.49164176  1
  V  V43  1  -0.00721927  0.74442496  0.24489774  1
  V  V44  1  0.37299550  0.88499085  0.49050241  1
  V  V45  1  0.25234116  0.74827458  0.51081200  1
  V  V46  1  0.50031409  0.39607806  0.33611629  1
  V  V47  1  0.25441960  0.49334140  0.24913557  1
  V  V48  1  0.48419121  -0.01249836  -0.00430393  1
  V  V49  1  0.50937349  0.23847280  0.24549521  1
  V  V50  1  0.25764909  0.37478546  0.63710420  1
  V  V51  1  0.74565917  0.34384720  0.61841474  1
  V  V52  1  0.66529670  0.87166630  0.74650516  1
  V  V53  1  0.24138449  0.22091657  -0.01419407  1
  V  V54  1  0.73210470  0.48613142  0.73385140  1
  V  V55  1  0.04266088  0.22255297  0.76938411  1
  V  V56  1  0.77711065  0.25128383  0.45821459  1
  V  V57  1  0.40202189  0.35892382  0.50301156  1
  V  V58  1  -0.01330986  0.04120651  0.49167855  1
  V  V59  1  0.61828229  0.26800913  0.85875030  1
  V  V60  1  0.12144905  0.60459410  0.49617840  1
  V  V61  1  0.46593949  0.87508796  0.85332645  1
  V  V62  1  0.48892059  0.48879446  0.00905745  1
  V  V63  1  0.87204819  0.14775512  0.75343773  1
  Zn  Zn64  1  0.19466016  0.18541260  0.17767844  1
  Zn  Zn65  1  0.20098931  0.19421872  0.66686849  1
  Zn  Zn66  1  0.18324641  0.69401160  0.18683434  1
  Zn  Zn67  1  0.16449770  0.68502163  0.68958457  1
  Zn  Zn68  1  0.69264926  0.17778529  0.17820668  1
  Zn  Zn69  1  0.68127927  0.17151573  0.68674206  1
  Zn  Zn70  1  0.62653809  0.63740273  0.23142484  1
  Zn  Zn71  1  0.76601168  0.70623092  0.71557994  1
  Zn  Zn72  1  0.32858498  0.31515365  0.31049591  1
  Zn  Zn73  1  0.33122674  0.30445905  0.81593498  1
  Zn  Zn74  1  0.31087302  0.81421371  0.31156697  1
  Zn  Zn75  1  0.26640213  0.82135404  0.80568480  1
  Zn  Zn76  1  0.86230155  0.29457868  0.31379207  1
  Zn  Zn77  1  0.83968131  0.35789502  0.79210797  1
  Zn  Zn78  1  0.80879059  0.81354847  0.31989160  1
  Zn  Zn79  1  0.61648212  0.74538041  0.85778663  1
  Zn  Zn80  1  0.12266309  0.38786253  0.46948367  1
  Zn  Zn81  1  0.17863449  0.44647644  0.92071393  1
  Zn  Zn82  1  0.18060162  0.94165882  0.43940004  1
  Zn  Zn83  1  0.21693658  0.93053819  0.93286369  1
  Zn  Zn84  1  0.61551378  0.36669659  0.49167950  1
  Zn  Zn85  1  0.66062583  0.43753394  0.94898262  1
  Zn  Zn86  1  0.65973957  0.99624916  0.61698974  1
  Zn  Zn87  1  0.68419391  0.92413565  0.93173831  1
  Zn  Zn88  1  0.30573458  0.05920396  0.06807881  1
  Zn  Zn89  1  0.32026406  0.07199837  0.55158854  1
  Zn  Zn90  1  0.30943910  0.55912098  0.06139686  1
  Zn  Zn91  1  0.27261926  0.48797428  0.49137357  1
  Zn  Zn92  1  0.81226888  0.03921344  0.05718532  1
  Zn  Zn93  1  0.80793945  0.09701108  0.55777566  1
  Zn  Zn94  1  0.81137694  0.54531665  0.00650466  1
  Zn  Zn95  1  0.84995127  0.50199226  0.59853271  1
  Zn  Zn96  1  0.42985412  0.43396354  0.17214478  1
  Zn  Zn97  1  0.42420493  0.43611094  0.68972476  1
  Zn  Zn98  1  0.44100622  0.94225715  0.19371935  1
  Zn  Zn99  1  0.42189678  0.94556451  0.67188602  1
  Zn  Zn100  1  0.92720255  0.40777891  0.17201107  1
  Zn  Zn101  1  0.93490357  0.51716033  0.75624655  1
  Zn  Zn102  1  0.91574338  0.89867865  0.21087002  1
  Zn  Zn103  1  0.88663337  0.99781485  0.64569254  1
  Zn  Zn104  1  0.06807419  0.06356594  0.31541152  1
  Zn  Zn105  1  0.06221353  0.07297293  0.66472711  1
  Zn  Zn106  1  0.07191060  0.56770494  0.29966551  1
  Zn  Zn107  1  0.08243871  0.59826632  0.80726519  1
  Zn  Zn108  1  0.56216668  0.05481705  0.31335429  1
  Zn  Zn109  1  0.56309166  0.04236169  0.80785253  1
  Zn  Zn110  1  0.60087977  0.53555794  0.38241396  1
  Zn  Zn111  1  0.56083931  0.55275024  0.82352968  1
  Zn  Zn112  1  0.44588762  0.18755446  0.43475213  1
  Zn  Zn113  1  0.44658027  0.16764115  0.93875100  1
  Zn  Zn114  1  0.42976943  0.69291422  0.43897364  1
  Zn  Zn115  1  0.43701062  0.70276094  0.92912815  1
  Zn  Zn116  1  0.99153548  0.25637581  0.45913976  1
  Zn  Zn117  1  0.90788170  0.23161219  0.89627024  1
  Zn  Zn118  1  0.95774602  0.70504040  0.45915900  1
  Zn  Zn119  1  0.95534130  0.65020804  0.91146499  1
  Zn  Zn120  1  0.07322570  0.30129267  0.06495388  1
  Zn  Zn121  1  0.00876370  0.35914305  0.61677662  1
  Zn  Zn122  1  0.06220946  0.80553346  0.05862192  1
  Zn  Zn123  1  0.06316787  0.81304242  0.56297290  1
  Zn  Zn124  1  0.53768595  0.28197963  0.02815282  1
  Zn  Zn125  1  0.56134390  0.31757631  0.67784503  1
  Zn  Zn126  1  0.55904903  0.81636485  0.06247165  1
  Zn  Zn127  1  0.55171215  0.82605592  0.58619064  1
  O  O128  1  0.14014944  0.09480961  0.12576279  1
  O  O129  1  0.12634729  0.14009380  0.59635559  1
  O  O130  1  0.13120142  0.62217270  0.11931802  1
  O  O131  1  0.12984193  0.62549350  0.59284078  1
  O  O132  1  0.62816297  0.09449721  0.12354438  1
  O  O133  1  0.62413620  0.11141407  0.60320148  1
  O  O134  1  0.59656977  0.62682011  0.12098109  1
  O  O135  1  0.54521474  0.66975881  0.68095698  1
  O  O136  1  0.40532850  0.37076897  0.38082947  1
  O  O137  1  0.36705295  0.39363369  0.87990920  1
  O  O138  1  0.37063502  0.86754431  0.39129418  1
  O  O139  1  0.36654453  0.86484748  0.85798744  1
  O  O140  1  0.86453919  0.39936408  0.26726506  1
  O  O141  1  0.88081190  0.35190559  0.90247654  1
  O  O142  1  0.89090311  0.88024198  0.37238025  1
  O  O143  1  0.99482147  0.90564016  0.82221152  1
  O  O144  1  0.25305360  -0.01004860  0.35943078  1
  O  O145  1  0.24367409  0.00698839  0.85928543  1
  O  O146  1  0.25446024  0.51971740  0.36694121  1
  O  O147  1  0.26506272  0.52283893  0.88307958  1
  O  O148  1  0.74918060  -0.01122822  0.35057602  1
  O  O149  1  0.75793130  -0.00378998  0.87927513  1
  O  O150  1  0.78235070  0.57150015  0.44587326  1
  O  O151  1  0.73789558  0.51429463  0.91406445  1
  O  O152  1  0.25740264  0.48149923  0.13192056  1
  O  O153  1  0.26278820  0.47249444  0.60604408  1
  O  O154  1  0.25509828  0.98237489  0.13784399  1
  O  O155  1  0.24338903  0.99842274  0.60104580  1
  O  O156  1  0.78333412  0.50616868  0.12972413  1
  O  O157  1  0.73883564  0.51849761  0.63908571  1
  O  O158  1  0.73692650  0.97819730  0.12548743  1
  O  O159  1  0.77435468  1.00281515  0.61376978  1
  O  O160  1  0.02207893  0.36228435  0.22242605  1
  O  O161  1  0.00642991  0.44018759  0.70643974  1
  O  O162  1  0.01481227  0.88191896  0.26248896  1
  O  O163  1  0.04315168  0.92507054  0.77263394  1
  O  O164  1  0.49368490  0.35695416  0.23637252  1
  O  O165  1  0.48566301  0.36074737  0.74421124  1
  O  O166  1  0.50714926  0.86518677  0.25034985  1
  O  O167  1  0.48359807  0.88841702  0.75504340  1
  O  O168  1  0.48673854  0.12378016  0.24706986  1
  O  O169  1  0.49472345  0.10078778  0.73202724  1
  O  O170  1  0.49018804  0.64306724  0.23587265  1
  O  O171  1  0.55218330  0.65593456  0.76002414  1
  O  O172  1  0.99352327  0.12377888  0.24678383  1
  O  O173  1  0.99398462  0.12967337  0.74523436  1
  O  O174  1  0.99848484  0.64610266  0.26714152  1
  O  O175  1  1.04038327  0.67515690  0.71672745  1
  O  O176  1  0.37379704  0.23004630  0.00887376  1
  O  O177  1  0.37021015  0.25874594  0.48722497  1
  O  O178  1  0.36357109  0.74990532  0.00805226  1
  O  O179  1  0.35554741  0.75612195  0.49977671  1
  O  O180  1  0.84847587  0.22881376  -0.00094649  1
  O  O181  1  0.87472369  0.25167868  0.47708743  1
  O  O182  1  0.85481318  0.73935225  0.00605416  1
  O  O183  1  0.84141629  0.73212810  0.45855419  1
  O  O184  1  0.14306022  0.24675118  0.48009054  1
  O  O185  1  0.14317415  0.23860332  1.00180797  1
  O  O186  1  0.13498791  0.74611046  0.48532855  1
  O  O187  1  0.13702905  0.74250292  0.99959761  1
  O  O188  1  0.60465076  0.23883395  0.48330738  1
  O  O189  1  0.63545683  0.21769287  1.03043542  1
  O  O190  1  0.65142711  0.78564974  0.50546779  1
  O  O191  1  0.61772755  0.73552405  1.00215352  1
  O  O192  1  0.48127792  0.24853647  0.12516301  1
  O  O193  1  0.51865950  0.22166077  0.62575823  1
  O  O194  1  0.48830670  0.74693833  0.12543473  1
  O  O195  1  0.51958702  0.74352035  0.66640794  1
  O  O196  1  0.98851765  0.24017240  0.12623094  1
  O  O197  1  1.00510629  0.28388808  0.69788914  1
  O  O198  1  1.00637427  0.75672178  0.14599789  1
  O  O199  1  0.97764149  0.73365880  0.57422395  1
  O  O200  1  -0.02397401  0.26165223  0.33555217  1
  O  O201  1  0.01599185  0.24616112  0.86479041  1
  O  O202  1  0.00933723  0.76783835  0.37136321  1
  O  O203  1  0.02369800  0.74297641  0.87593559  1
  O  O204  1  0.50070562  0.24439489  0.34605142  1
  O  O205  1  0.53017826  0.24586065  0.91250327  1
  O  O206  1  0.49861079  0.74527548  0.36384669  1
  O  O207  1  0.50188051  0.77484569  0.87242577  1
  O  O208  1  0.24944030  0.14256856  0.49590600  1
  O  O209  1  0.24868472  0.12019539  0.99138452  1
  O  O210  1  0.24557351  0.63557644  0.48010057  1
  O  O211  1  0.24833753  0.64125193  1.00866207  1
  O  O212  1  0.73737292  0.15573443  0.49100619  1
  O  O213  1  0.73452194  0.10639906  1.00216795  1
  O  O214  1  0.68032777  0.66863038  0.55449778  1
  O  O215  1  0.72832059  0.63037791  1.02128983  1
  O  O216  1  0.23944511  0.38154255  0.00541353  1
  O  O217  1  0.24667435  0.36915313  0.48220401  1
  O  O218  1  0.25373511  0.86929854  0.01928518  1
  O  O219  1  0.25144290  0.86485094  0.50054656  1
  O  O220  1  0.71920895  0.35601857  0.01350465  1
  O  O221  1  0.73520304  0.33855282  0.49844257  1
  O  O222  1  0.73892787  0.85478995  0.00709296  1
  O  O223  1  0.71580235  0.81706637  0.52177862  1
  O  O224  1  0.13551731  0.48640514  0.25019261  1
  O  O225  1  0.13994286  0.53410017  0.73082975  1
  O  O226  1  0.13808017  0.99006973  0.25431008  1
  O  O227  1  0.14973812  1.02864820  0.72978304  1
  O  O228  1  0.65091270  0.44802847  0.21639282  1
  O  O229  1  0.63764771  0.49313378  0.76750140  1
  O  O230  1  0.62980221  0.98532122  0.24058445  1
  O  O231  1  0.65367514  0.99857253  0.74980529  1
  O  O232  1  0.36763670  0.01053601  0.24837564  1
  O  O233  1  0.35710562  0.01435794  0.73521500  1
  O  O234  1  0.36311015  0.51221997  0.24233513  1
  O  O235  1  0.38696152  0.50812702  0.77183571  1
  O  O236  1  0.86439299  -0.00040110  0.23674753  1
  O  O237  1  0.86560787  0.01295172  0.75981008  1
  O  O238  1  0.80193791  0.46208248  0.29984985  1
  O  O239  1  0.83309598  0.47283011  0.77468465  1
  O  O240  1  0.11764702  0.36519198  0.35133110  1
  O  O241  1  0.12714865  0.40532084  0.82908008  1
  O  O242  1  0.12207408  0.87064560  0.36781675  1
  O  O243  1  0.13197749  0.86240356  0.90179685  1
  O  O244  1  0.58998967  0.37679744  0.37778293  1
  O  O245  1  0.62127103  0.36695976  0.86860685  1
  O  O246  1  0.63180216  0.86538900  0.35690566  1
  O  O247  1  0.62745111  0.87070530  0.84736575  1
  O  O248  1  0.36559558  0.13375976  0.13542756  1
  O  O249  1  0.39374281  0.12768972  0.61792520  1
  O  O250  1  0.37634271  0.62917232  0.13427059  1
  O  O251  1  0.38130857  0.64393630  0.67490026  1
  O  O252  1  0.88016460  0.11920105  0.11034363  1
  O  O253  1  0.87578952  0.12539514  0.64872149  1
  O  O254  1  0.92840847  0.58213179  0.13715524  1
  O  O255  1  0.87664929  0.70861953  0.70543842  1
  O  O256  1  0.25931640  0.25119958  0.10476449  1
  O  O257  1  0.25066542  0.27285740  0.59984204  1
  O  O258  1  0.24758966  0.76583586  0.12258496  1
  O  O259  1  0.23925471  0.74239243  0.60916668  1
  O  O260  1  0.76806083  0.23914614  0.11658501  1
  O  O261  1  0.75542414  0.24586745  0.63073551  1
  O  O262  1  0.73895322  0.75506514  0.11784737  1
  O  O263  1  0.74347110  0.68948810  0.58637341  1
  O  O264  1  0.25981717  0.25268674  0.37569447  1
  O  O265  1  0.26486258  0.25223167  0.89341162  1
  O  O266  1  0.24138793  0.74496327  0.37331076  1
  O  O267  1  0.25235156  0.74792762  0.89790713  1
  O  O268  1  0.76504412  0.26026387  0.35868784  1
  O  O269  1  0.71520775  0.24529750  0.90148606  1
  O  O270  1  0.79419894  0.72412712  0.39732005  1
  O  O271  1  0.73580521  0.72713181  0.89720636  1
  O  O272  1  0.03513729  0.05075293  0.06076489  1
  O  O273  1  0.01499029  0.14012562  0.48382641  1
  O  O274  1  0.01948321  0.63556632  0.00494568  1
  O  O275  1  0.02303984  0.61257210  0.47097103  1
  O  O276  1  0.51676221  0.09566378  -0.00069209  1
  O  O277  1  0.50810881  0.11238593  0.50175814  1
  O  O278  1  0.49624898  0.63506873  0.00961096  1
  O  O279  1  0.47853731  0.62497332  0.51198832  1
  O  O280  1  0.49805820  0.35360344  0.51647470  1
  O  O281  1  0.50656078  0.39072379  1.01771441  1
  O  O282  1  0.48334862  0.87726933  0.51044114  1
  O  O283  1  0.49770826  0.88305092  0.99159293  1
  O  O284  1  1.02120210  0.35540071  0.50767271  1
  O  O285  1  1.02235813  0.37661688  0.99563558  1
  O  O286  1  1.00176979  0.87747879  0.48762500  1
  O  O287  1  0.98973432  0.88417953  0.99710092  1
  O  O288  1  0.50176569  0.49538154  0.32591509  1
  O  O289  1  0.48526453  0.50945649  0.89538170  1
  O  O290  1  0.49999337  0.99688702  0.39103007  1
  O  O291  1  0.49634603  0.98046984  0.88319971  1
  O  O292  1  0.98786934  0.48423194  0.35519663  1
  O  O293  1  0.98407802  0.56408613  0.84228342  1
  O  O294  1  1.00548528  0.99455116  0.38725497  1
  O  O295  1  1.01527971  1.04190840  0.91217835  1
  O  O296  1  -0.05321642  -0.06458578  0.03933534  1
  O  O297  1  -0.00784816  0.01054650  0.59487366  1
  O  O298  1  -0.03242570  0.52446290  0.16273639  1
  O  O299  1  -0.06955845  0.57229986  0.63912345  1
  O  O300  1  0.51329974  -0.01785634  0.11318317  1
  O  O301  1  0.49517852  0.00596107  0.60426325  1
  O  O302  1  0.48304016  0.51712515  0.11291931  1
  O  O303  1  0.48654797  0.51051161  0.62563439  1
  O  O304  1  0.24796727  0.38425454  0.25592009  1
  O  O305  1  0.28398917  0.37183045  0.73357424  1
  O  O306  1  0.24135926  0.87930081  0.24203032  1
  O  O307  1  0.25241316  0.90465836  0.72834339  1
  O  O308  1  0.77011474  0.43932387  0.36156812  1
  O  O309  1  0.73687037  0.37570391  0.72473624  1
  O  O310  1  0.73887994  0.87159290  0.24201356  1
  O  O311  1  0.76239761  0.89966215  0.74647377  1
  O  O312  1  0.25694155  0.11029422  0.24710742  1
  O  O313  1  0.27174227  0.12466559  0.73695789  1
  O  O314  1  0.25449494  0.62178038  0.25284278  1
  O  O315  1  0.24949666  0.64314876  0.76766939  1
  O  O316  1  0.76131418  0.10326533  0.23600977  1
  O  O317  1  0.75781514  0.11843572  0.75651473  1
  O  O318  1  0.77104785  0.55988384  0.17901913  1
  O  O319  1  0.74626050  0.60572816  0.77479590  1
  O  O320  1  0.37596092  0.12738298  0.36100294  1
  O  O321  1  0.39179439  0.11419637  0.85723359  1
  O  O322  1  0.36161592  0.63579422  0.36079514  1
  O  O323  1  0.36490035  0.63353441  0.87788748  1
  O  O324  1  0.87169988  0.11932967  0.34879744  1
  O  O325  1  0.88415776  0.12720002  0.85475797  1
  O  O326  1  0.92784523  0.50667723  0.39116250  1
  O  O327  1  0.84422310  0.62141149  0.90645498  1
  O  O328  1  0.15180186  0.35655854  0.13939249  1
  O  O329  1  0.14629581  0.38143683  0.65488295  1
  O  O330  1  0.12012806  0.87766825  0.13936796  1
  O  O331  1  0.14308561  0.87043413  0.61418665  1
  O  O332  1  0.68371836  0.38520370  0.20210817  1
  O  O333  1  0.64013719  0.36601604  0.60836132  1
  O  O334  1  0.63079002  0.87632253  0.13229473  1
  O  O335  1  0.62158515  0.88712366  0.65049727  1
  O  O336  1  0.11231249  0.23977569  0.24065717  1
  O  O337  1  0.14261704  0.21690377  0.76194661  1
  O  O338  1  0.11874835  0.76497779  0.25752274  1
  O  O339  1  0.15802335  0.76682101  0.77905931  1
  O  O340  1  0.60661286  0.23115622  0.22690981  1
  O  O341  1  0.61955842  0.24197137  0.75894975  1
  O  O342  1  0.60488680  0.75500645  0.24407467  1
  O  O343  1  0.67641934  0.76669352  0.74288083  1
  O  O344  1  0.37905787  0.23455232  0.23920506  1
  O  O345  1  0.38512244  0.22815968  0.75036395  1
  O  O346  1  0.38380561  0.74599408  0.25190267  1
  O  O347  1  0.37977672  0.71397987  0.69166824  1
  O  O348  1  0.87963599  0.22090825  0.22150266  1
  O  O349  1  0.85941960  0.24942352  0.76269164  1
  O  O350  1  0.89419345  0.77252187  0.25346967  1
  O  O351  1  0.91461720  0.84910985  0.74522419  1
  O  O352  1  0.39491270  0.47814162  0.48901024  1
  O  O353  1  0.38306328  0.50377182  0.99499611  1
  O  O354  1  0.37511870  0.98747826  0.49266576  1
  O  O355  1  0.38692276  1.00110539  1.00783945  1
  O  O356  1  0.83597052  0.57842999  0.49619766  1
  O  O357  1  0.90643330  0.48986129  1.00017525  1
  O  O358  1  0.88870783  1.04519193  0.48483530  1
  O  O359  1  0.89209614  0.97292838  0.99506535  1
  O  O360  1  0.08519896  0.05110795  -0.10142730  1
  O  O361  1  0.12047831  0.02133685  0.49417926  1
  O  O362  1  0.13372996  0.52175888  -0.00720984  1
  O  O363  1  0.14407943  0.50489899  0.48363586  1
  O  O364  1  0.62365403  -0.00619876  0.00660842  1
  O  O365  1  0.61240058  -0.01400928  0.50190594  1
  O  O366  1  0.59885646  0.51934424  0.00397919  1
  O  O367  1  0.57564485  0.49615930  0.48487266  1
  O  O368  1  0.35666308  0.35400494  0.12758398  1
  O  O369  1  0.37220969  0.36935059  0.60287019  1
  O  O370  1  0.36966667  0.87178088  0.13624304  1
  O  O371  1  0.35046862  0.87611740  0.60687032  1
  O  O372  1  0.88604171  0.35072539  0.08303505  1
  O  O373  1  0.83924870  0.39023359  0.60243707  1
  O  O374  1  0.84966871  0.86930986  0.12618313  1
  O  O375  1  0.94020260  0.87518603  0.68168475  1
  O  O376  1  0.13218291  0.12757394  0.38284037  1
  O  O377  1  0.07857362  0.10989461  1.07428655  1
  O  O378  1  0.13933213  0.63555018  0.36905837  1
  O  O379  1  0.14800136  0.64249513  0.89083527  1
  O  O380  1  0.62210387  0.11405421  0.38967313  1
  O  O381  1  0.62266410  0.11255842  0.88672984  1
  O  O382  1  0.66814276  0.58849951  0.31787885  1
  O  O383  1  0.62584242  0.62681520  0.89479534  1
