# generated using pymatgen
data_VZnO4
_symmetry_space_group_name_H-M   'P 1'
_cell_length_a   17.02930731
_cell_length_b   16.93782812
_cell_length_c   16.81643611
_cell_angle_alpha   89.70717946
_cell_angle_beta   90.25152363
_cell_angle_gamma   90.01185286
_symmetry_Int_Tables_number   1
_chemical_formula_structural   VZnO4
_chemical_formula_sum   'V64 Zn64 O256'
_cell_volume   4850.41392507
_cell_formula_units_Z   64
loop_
 _symmetry_equiv_pos_site_id
 _symmetry_equiv_pos_as_xyz
  1  'x, y, z'
loop_
 _atom_site_type_symbol
 _atom_site_label
 _atom_site_symmetry_multiplicity
 _atom_site_fract_x
 _atom_site_fract_y
 _atom_site_fract_z
 _atom_site_occupancy
  V  V0  1  0.26289157  0.74927371  0.00508934  1
  V  V1  1  0.74107264  0.38827827  0.63004904  1
  V  V2  1  0.87302824  0.61638876  0.75622986  1
  V  V3  1  0.13363125  0.87560841  0.74258631  1
  V  V4  1  0.25796548  0.86438935  0.60261138  1
  V  V5  1  0.51046942  0.49452507  0.52167133  1
  V  V6  1  0.88138041  0.01227513  0.88214568  1
  V  V7  1  0.24777652  0.40411909  0.15008645  1
  V  V8  1  0.49171811  0.75390545  0.21872720  1
  V  V9  1  0.41414005  0.70738662  0.65021159  1
  V  V10  1  0.43818429  0.07635090  0.69118094  1
  V  V11  1  0.74566479  0.63812808  0.38273040  1
  V  V12  1  0.00339271  0.62380103  0.59567066  1
  V  V13  1  0.00674828  0.62060466  0.14644821  1
  V  V14  1  0.50351375  0.25142049  0.75014515  1
  V  V15  1  -0.01629379  0.50344376  -0.01142918  1
  V  V16  1  0.36420541  0.90636898  0.00152765  1
  V  V17  1  0.36907871  0.37602452  0.01471649  1
  V  V18  1  0.85726850  0.76992523  0.61879337  1
  V  V19  1  0.86856826  0.72791225  0.13996094  1
  V  V20  1  0.37208830  0.37158824  0.50978674  1
  V  V21  1  -0.00741691  -0.00098627  0.48340336  1
  V  V22  1  0.61860770  0.51823261  0.12942956  1
  V  V23  1  0.87475899  0.85229874  -0.00944202  1
  V  V24  1  0.62047901  0.23574025  0.37512498  1
  V  V25  1  -0.00291665  0.75476920  0.73409460  1
  V  V26  1  0.75729024  0.36926628  0.12731591  1
  V  V27  1  0.74713509  0.51377223  0.25647245  1
  V  V28  1  0.13208427  0.14177365  0.50013494  1
  V  V29  1  0.63799318  0.09797593  0.01227873  1
  V  V30  1  0.49289509  -0.00258621  0.48770696  1
  V  V31  1  0.63059240  0.00041125  0.65172350  1
  V  V32  1  0.38057517  0.50461866  0.86662555  1
  V  V33  1  0.73182512  0.86164737  0.11367555  1
  V  V34  1  0.50355601  0.37314739  0.88392702  1
  V  V35  1  0.87784002  0.37451733  0.50146475  1
  V  V36  1  0.62138842  0.37061610  0.25117512  1
  V  V37  1  -0.02205502  0.87533043  0.35199427  1
  V  V38  1  0.23246729  0.50309715  0.73573991  1
  V  V39  1  0.13130194  0.25644332  0.87933828  1
  V  V40  1  0.85035124  0.12531998  0.72365816  1
  V  V41  1  0.12147942  0.61680116  0.00115163  1
  V  V42  1  0.64173215  0.24961693  0.89272790  1
  V  V43  1  0.25112284  0.63033912  0.86389737  1
  V  V44  1  0.49761332  0.14031622  0.13629152  1
  V  V45  1  0.86949360  0.37419685  -0.01876202  1
  V  V46  1  0.13827392  0.88015647  0.23621879  1
  V  V47  1  0.11446571  0.75328985  0.87006120  1
  V  V48  1  0.61956868  0.12237281  0.51659575  1
  V  V49  1  0.14957531  0.75394835  0.37750795  1
  V  V50  1  0.62605336  0.84050422  0.75818166  1
  V  V51  1  0.38252463  0.61429710  0.27436224  1
  V  V52  1  0.62207719  0.62312774  0.51565289  1
  V  V53  1  0.49314778  0.88455316  0.87004478  1
  V  V54  1  0.13549535  0.25062860  0.34178669  1
  V  V55  1  0.12580273  -0.00299132  0.60905461  1
  V  V56  1  0.49721012  0.51780521  0.01156980  1
  V  V57  1  0.49989846  0.38014989  0.37434549  1
  V  V58  1  0.75507690  0.24110794  0.50600628  1
  V  V59  1  0.59494803  0.75504383  0.38020853  1
  V  V60  1  0.87552142  0.50105384  0.38300410  1
  V  V61  1  0.35084686  0.24678217  0.63564124  1
  V  V62  1  0.25991645  0.11594950  0.36130530  1
  V  V63  1  0.00471912  0.13466116  0.11707461  1
  Zn  Zn64  1  0.20747072  0.17279586  0.16990790  1
  Zn  Zn65  1  0.15778964  0.16336977  0.70568215  1
  Zn  Zn66  1  0.18054388  0.69939800  0.18819092  1
  Zn  Zn67  1  0.20781711  0.66143800  0.64067831  1
  Zn  Zn68  1  0.68252248  0.18398076  0.18183502  1
  Zn  Zn69  1  0.68406042  0.19995257  0.69477860  1
  Zn  Zn70  1  0.67215811  0.72016979  0.17946721  1
  Zn  Zn71  1  0.69230779  0.68611664  0.69654586  1
  Zn  Zn72  1  0.34876275  0.25889949  0.33161409  1
  Zn  Zn73  1  0.31882948  0.18427798  0.82219304  1
  Zn  Zn74  1  0.30740699  0.80092024  0.28565468  1
  Zn  Zn75  1  0.31955016  0.81498127  0.80568288  1
  Zn  Zn76  1  0.79501596  0.32242814  0.32550221  1
  Zn  Zn77  1  0.82440421  0.30160818  0.79976614  1
  Zn  Zn78  1  0.80272562  0.81747581  0.29883408  1
  Zn  Zn79  1  0.83126149  0.86592288  0.78046491  1
  Zn  Zn80  1  0.24576357  0.39923749  0.36405040  1
  Zn  Zn81  1  0.19660899  0.44427771  0.93394918  1
  Zn  Zn82  1  0.18751430  0.93143623  0.42281189  1
  Zn  Zn83  1  0.19137265  0.92924647  0.93714497  1
  Zn  Zn84  1  0.68762412  0.43477449  0.44468825  1
  Zn  Zn85  1  0.68379167  0.44316207  0.94644419  1
  Zn  Zn86  1  0.67861585  0.94170101  0.43194238  1
  Zn  Zn87  1  0.70794911  0.92744889  0.91740822  1
  Zn  Zn88  1  0.32233281  0.10831722  0.01675838  1
  Zn  Zn89  1  0.30499901  0.05585327  0.55503120  1
  Zn  Zn90  1  0.30660950  0.56523999  0.06710296  1
  Zn  Zn91  1  0.35535435  0.56814800  0.58474175  1
  Zn  Zn92  1  0.80356657  0.03160580  0.07226942  1
  Zn  Zn93  1  0.80120697  0.03982146  0.55141589  1
  Zn  Zn94  1  0.80324832  0.58066429  0.06775597  1
  Zn  Zn95  1  0.81344452  0.57228167  0.56945205  1
  Zn  Zn96  1  0.43417814  0.44395420  0.19667395  1
  Zn  Zn97  1  0.43519640  0.42728322  0.69185550  1
  Zn  Zn98  1  0.45644655  0.93225946  0.13782068  1
  Zn  Zn99  1  0.46353372  0.89070045  0.65360486  1
  Zn  Zn100  1  0.92122265  0.47350566  0.17232698  1
  Zn  Zn101  1  0.92680624  0.45008224  0.66546586  1
  Zn  Zn102  1  0.94238246  0.91747146  0.15127823  1
  Zn  Zn103  1  0.94525785  0.95270933  0.68567808  1
  Zn  Zn104  1  0.07469253  0.05771636  0.31039611  1
  Zn  Zn105  1  0.07427709  0.03800719  0.83328830  1
  Zn  Zn106  1  0.03665957  0.60463828  0.37763796  1
  Zn  Zn107  1  0.05346226  0.56675509  0.80420304  1
  Zn  Zn108  1  0.50025466  0.04475760  0.28695557  1
  Zn  Zn109  1  0.56467423  0.06909868  0.83878667  1
  Zn  Zn110  1  0.55973692  0.56631817  0.31949940  1
  Zn  Zn111  1  0.58249903  0.59627811  0.85068042  1
  Zn  Zn112  1  0.43914485  0.18689713  0.45226457  1
  Zn  Zn113  1  0.45559485  0.19229161  0.96497586  1
  Zn  Zn114  1  0.42446881  0.68234685  0.45770854  1
  Zn  Zn115  1  0.44582518  0.69891444  0.92200086  1
  Zn  Zn116  1  0.95431704  0.19505544  0.43951976  1
  Zn  Zn117  1  0.93251963  0.19694185  0.92593925  1
  Zn  Zn118  1  0.91848285  0.71197154  0.43778870  1
  Zn  Zn119  1  0.93508139  0.68916172  0.93363039  1
  Zn  Zn120  1  0.06503975  0.33441353  0.06929007  1
  Zn  Zn121  1  0.07430247  0.33652466  0.46267473  1
  Zn  Zn122  1  0.05312520  0.80081616  0.06303606  1
  Zn  Zn123  1  0.05604782  0.82008043  0.54827600  1
  Zn  Zn124  1  0.56500226  0.32154577  0.06566222  1
  Zn  Zn125  1  0.56708410  0.31358304  0.56497480  1
  Zn  Zn126  1  0.54300092  0.80636760  0.03698823  1
  Zn  Zn127  1  0.57731850  0.81577283  0.56096106  1
  O  O128  1  0.11074242  0.12653985  0.12092739  1
  O  O129  1  0.12944555  0.10798904  0.61054177  1
  O  O130  1  0.11548187  0.63555601  0.10900055  1
  O  O131  1  0.10149694  0.63823143  0.60898946  1
  O  O132  1  0.61573880  0.11713785  0.12220601  1
  O  O133  1  0.62428816  0.12128793  0.62165343  1
  O  O134  1  0.62469645  0.61540132  0.13622904  1
  O  O135  1  0.63174404  0.62763924  0.61382759  1
  O  O136  1  0.39549620  0.35472937  0.38545527  1
  O  O137  1  0.38315634  0.39901375  0.89551992  1
  O  O138  1  0.37606309  0.91177700  0.34111774  1
  O  O139  1  0.38610999  0.86919251  0.88375609  1
  O  O140  1  0.86547703  0.39108899  0.38338678  1
  O  O141  1  0.86259074  0.38242524  0.88148111  1
  O  O142  1  0.87719048  0.88348228  0.35045978  1
  O  O143  1  0.88720845  0.84418327  0.89080133  1
  O  O144  1  0.25375711  0.01707156  0.38274035  1
  O  O145  1  0.14900561  0.02393852  0.91441551  1
  O  O146  1  0.24104552  0.52622953  0.38696885  1
  O  O147  1  0.25722449  0.50848667  0.85837337  1
  O  O148  1  0.73263600  -0.00406887  0.32686158  1
  O  O149  1  0.79343351  -0.03991687  0.84341089  1
  O  O150  1  0.74484200  0.50444727  0.36723219  1
  O  O151  1  0.66592063  0.48798961  0.77775921  1
  O  O152  1  0.23557492  0.50162958  0.13008554  1
  O  O153  1  0.25734481  0.55382072  0.64028330  1
  O  O154  1  0.24549014  1.01136234  0.12663608  1
  O  O155  1  0.23162346  0.98642425  0.61720311  1
  O  O156  1  0.73675555  0.50309488  0.14037948  1
  O  O157  1  0.75463624  0.48869047  0.62088611  1
  O  O158  1  0.72077254  0.95859504  0.12487877  1
  O  O159  1  0.72723311  0.99709645  0.63773740  1
  O  O160  1  0.00330576  0.39526417  0.24200310  1
  O  O161  1  0.01818955  0.36470958  0.69535329  1
  O  O162  1  -0.00211572  0.88642639  0.24906197  1
  O  O163  1  0.01186900  0.85965167  0.73991586  1
  O  O164  1  0.50821588  0.37938287  0.26368767  1
  O  O165  1  0.48918375  0.36236295  0.77349482  1
  O  O166  1  0.49280335  0.85440874  0.21849536  1
  O  O167  1  0.49958459  0.86723027  0.76734030  1
  O  O168  1  0.49223953  0.14928002  0.24307499  1
  O  O169  1  0.49324954  0.13727840  0.76305307  1
  O  O170  1  0.48681193  0.62818507  0.25638838  1
  O  O171  1  0.49363898  0.65497522  0.82949802  1
  O  O172  1  1.01537278  0.11519843  0.22041975  1
  O  O173  1  1.06293828  0.12941833  0.76732847  1
  O  O174  1  1.01714859  0.60903291  0.24376596  1
  O  O175  1  0.99682090  0.63950173  0.73308055  1
  O  O176  1  0.38314554  0.27858394  0.01164578  1
  O  O177  1  0.38371878  0.26021175  0.52391548  1
  O  O178  1  0.36182875  0.73610879  -0.00333575  1
  O  O179  1  0.36327849  0.68430899  0.55474235  1
  O  O180  1  0.87924059  0.27490833  -0.00985483  1
  O  O181  1  0.86200548  0.25720247  0.48544910  1
  O  O182  1  0.87999753  0.74567130  0.01207508  1
  O  O183  1  0.87195776  0.77628354  0.51888726  1
  O  O184  1  0.12294668  0.23928779  0.51422050  1
  O  O185  1  0.12092384  0.27395825  0.98360054  1
  O  O186  1  0.12104247  0.76511702  0.47605787  1
  O  O187  1  0.12407629  0.74540857  0.98285347  1
  O  O188  1  0.62812484  0.23767984  0.49932217  1
  O  O189  1  0.63431385  0.26313150  0.99370392  1
  O  O190  1  0.61720717  0.73196176  0.49493608  1
  O  O191  1  0.66403092  0.68065902  0.90198724  1
  O  O192  1  0.51052670  0.24233664  0.12197396  1
  O  O193  1  0.50621652  0.25841196  0.64925252  1
  O  O194  1  0.49948938  0.73274397  0.12080056  1
  O  O195  1  0.49077842  0.77194982  0.62476625  1
  O  O196  1  1.01611305  0.24034866  0.11998484  1
  O  O197  1  1.01974929  0.30020386  0.65948334  1
  O  O198  1  0.98650691  0.72605001  0.12662327  1
  O  O199  1  0.99357352  0.75219556  0.62530505  1
  O  O200  1  0.03361306  0.25096707  0.37704289  1
  O  O201  1  0.02771699  0.24543346  0.87288850  1
  O  O202  1  -0.01265538  0.77220745  0.36894462  1
  O  O203  1  0.01318638  0.74205708  0.86138142  1
  O  O204  1  0.51697118  0.26168756  0.38966317  1
  O  O205  1  0.50228818  0.26478324  0.88238372  1
  O  O206  1  0.49686652  0.75355146  0.39739269  1
  O  O207  1  0.51883397  0.79012385  0.92611832  1
  O  O208  1  0.23590665  0.12506700  0.49188094  1
  O  O209  1  0.24048742  0.16708089  1.06253548  1
  O  O210  1  0.22441795  0.55228329  0.45382372  1
  O  O211  1  0.23577412  0.63174350  0.99268966  1
  O  O212  1  0.73474329  0.13529881  0.50173315  1
  O  O213  1  0.73809364  0.11627811  1.03320215  1
  O  O214  1  0.73237765  0.61614112  0.49081467  1
  O  O215  1  0.73131249  0.59004398  0.97469396  1
  O  O216  1  0.26734364  0.39362751  0.00747752  1
  O  O217  1  0.27935170  0.38341900  0.47842351  1
  O  O218  1  0.26071014  0.85579152  -0.01946610  1
  O  O219  1  0.25276830  0.87887042  0.50267268  1
  O  O220  1  0.76127584  0.39170562  0.01499966  1
  O  O221  1  0.75452299  0.36397764  0.50684895  1
  O  O222  1  0.76409925  0.86214083  0.00044294  1
  O  O223  1  0.76768898  0.94631127  0.49590515  1
  O  O224  1  0.06907469  0.42630966  0.25089898  1
  O  O225  1  0.13265935  0.50758540  0.74797294  1
  O  O226  1  0.12892311  0.98270784  0.24794115  1
  O  O227  1  0.11364041  0.97858584  0.73491336  1
  O  O228  1  0.62680610  0.49397922  0.24626043  1
  O  O229  1  0.61241345  0.52661425  0.73976643  1
  O  O230  1  0.69927417  1.04353054  0.27468749  1
  O  O231  1  0.62035952  1.01816909  0.74962265  1
  O  O232  1  0.37831638  -0.03215160  0.29338269  1
  O  O233  1  0.38089432  0.02090417  0.74370192  1
  O  O234  1  0.38105380  0.51304523  0.26744833  1
  O  O235  1  0.38168791  0.49854643  0.76640311  1
  O  O236  1  0.87030680  0.00436237  0.16137692  1
  O  O237  1  0.89895574  0.03379852  0.75481795  1
  O  O238  1  0.85311164  0.50253283  0.26376175  1
  O  O239  1  0.89331140  0.51677878  0.74677523  1
  O  O240  1  0.14121362  0.35649789  0.37329126  1
  O  O241  1  0.13131036  0.36340171  0.87720345  1
  O  O242  1  0.11819008  0.86860849  0.35585651  1
  O  O243  1  0.12970740  0.85908353  0.86128461  1
  O  O244  1  0.61634659  0.37183076  0.36966755  1
  O  O245  1  0.60723188  0.37289123  0.88655553  1
  O  O246  1  0.62581345  0.85069206  0.38992383  1
  O  O247  1  0.61862929  0.88033868  0.85697872  1
  O  O248  1  0.40366509  0.12125554  0.09984447  1
  O  O249  1  0.37405257  0.13404836  0.62452423  1
  O  O250  1  0.33766205  0.63280490  0.16114446  1
  O  O251  1  0.43916287  0.61215430  0.66821548  1
  O  O252  1  0.90595562  0.14907113  0.13538909  1
  O  O253  1  0.85322280  0.11777849  0.62213289  1
  O  O254  1  0.89591477  0.61425645  0.13214721  1
  O  O255  1  0.88487325  0.64613127  0.62391079  1
  O  O256  1  0.29592213  0.26550002  0.17343073  1
  O  O257  1  0.25497344  0.24058501  0.64020518  1
  O  O258  1  0.24160533  0.75021467  0.10217084  1
  O  O259  1  0.23993258  0.76547312  0.61894198  1
  O  O260  1  0.74728761  0.27084963  0.13687470  1
  O  O261  1  0.74338259  0.25613165  0.60868302  1
  O  O262  1  0.77210698  0.69226937  0.11694675  1
  O  O263  1  0.76048407  0.75018879  0.62573843  1
  O  O264  1  0.24047759  0.23887647  0.36923427  1
  O  O265  1  0.23622971  0.26019939  0.87911267  1
  O  O266  1  0.25016685  0.76304111  0.37735052  1
  O  O267  1  0.24416574  0.73842527  0.87836328  1
  O  O268  1  0.72853465  0.25795424  0.39408323  1
  O  O269  1  0.73557118  0.26622198  0.87035584  1
  O  O270  1  0.74783621  0.73758413  0.37316936  1
  O  O271  1  0.73034099  0.66173697  0.93643488  1
  O  O272  1  0.00215835  0.14918217  0.01074363  1
  O  O273  1  0.02538791  0.11397298  0.48275806  1
  O  O274  1  0.01265383  0.61940137  -0.00587212  1
  O  O275  1  -0.00890733  0.63714139  0.49031755  1
  O  O276  1  0.52829665  0.12108192  0.01289546  1
  O  O277  1  0.51429459  0.11826062  0.50386704  1
  O  O278  1  0.50162959  0.61480199  -0.00115917  1
  O  O279  1  0.51045295  0.60369839  0.50249906  1
  O  O280  1  0.50017809  0.38059697  0.49519322  1
  O  O281  1  0.49159880  0.38880651  0.99897869  1
  O  O282  1  0.50723854  0.90106632  0.52059125  1
  O  O283  1  0.47126916  0.90234324  1.01702582  1
  O  O284  1  0.97732121  0.37131448  0.50144921  1
  O  O285  1  0.98234310  0.39398542  1.01153843  1
  O  O286  1  0.99351405  0.89169844  0.47889775  1
  O  O287  1  0.96852343  0.87732161  1.04016693  1
  O  O288  1  0.50439758  0.48288026  0.38670117  1
  O  O289  1  0.49447043  0.49666212  0.89112430  1
  O  O290  1  0.51429607  0.99872284  0.38746704  1
  O  O291  1  0.50178167  0.98474974  0.88110166  1
  O  O292  1  0.97352353  0.51173671  0.37383465  1
  O  O293  1  1.00302861  0.50409816  0.88913440  1
  O  O294  1  1.00442879  0.99307380  0.37421781  1
  O  O295  1  0.98062030  0.98924439  0.87486190  1
  O  O296  1  -0.00456817  0.03567385  0.09010102  1
  O  O297  1  0.01553809  -0.01101939  0.60254173  1
  O  O298  1  0.00599115  0.51589698  0.10835834  1
  O  O299  1  -0.00817942  0.52439329  0.60702958  1
  O  O300  1  0.50762790  0.02131892  0.17564351  1
  O  O301  1  0.50003367  0.01027101  0.63678328  1
  O  O302  1  0.50869862  0.50183834  0.12377397  1
  O  O303  1  0.51156510  0.47802157  0.62037912  1
  O  O304  1  0.26008631  0.39543231  0.25216575  1
  O  O305  1  0.25279633  0.41066527  0.71976485  1
  O  O306  1  0.24025107  0.87395164  0.23592620  1
  O  O307  1  0.23468373  0.87102949  0.74576680  1
  O  O308  1  0.73884026  0.38822100  0.24620092  1
  O  O309  1  0.76486016  0.36397352  0.72637583  1
  O  O310  1  0.72737695  0.82316649  0.21541656  1
  O  O311  1  0.72457475  0.83916040  0.75359752  1
  O  O312  1  0.25215072  0.11718782  0.25985423  1
  O  O313  1  0.23930688  0.12624190  0.77200430  1
  O  O314  1  0.27791063  0.63278161  0.22143648  1
  O  O315  1  0.23976606  0.63125572  0.76479284  1
  O  O316  1  0.74268822  0.10810213  0.25592284  1
  O  O317  1  0.75299154  0.12922838  0.75014416  1
  O  O318  1  0.73427397  0.61577713  0.26773136  1
  O  O319  1  0.77314513  0.62413323  0.74235395  1
  O  O320  1  0.36381316  0.14912922  0.37459549  1
  O  O321  1  0.36372928  0.14832575  0.91622534  1
  O  O322  1  0.36778600  0.62995884  0.37363091  1
  O  O323  1  0.35587107  0.61264711  0.88527567  1
  O  O324  1  0.88042985  0.17164822  0.33667424  1
  O  O325  1  0.86931172  0.11280581  0.89359400  1
  O  O326  1  0.85136816  0.61629501  0.38969371  1
  O  O327  1  0.88231591  0.62901126  0.85656650  1
  O  O328  1  0.15825751  0.36173244  0.12411921  1
  O  O329  1  0.14039868  0.40260606  0.56275787  1
  O  O330  1  0.11193535  0.86165338  0.13732831  1
  O  O331  1  0.13144700  0.87745573  0.62673360  1
  O  O332  1  0.63412301  0.38610009  0.13674417  1
  O  O333  1  0.64079827  0.37474767  0.62318428  1
  O  O334  1  0.64336028  0.81055768  0.08873795  1
  O  O335  1  0.60858578  0.88958703  0.65329244  1
  O  O336  1  0.14062534  0.24402645  0.24262506  1
  O  O337  1  0.13198317  0.26003692  0.77461379  1
  O  O338  1  0.12771540  0.76392711  0.26202717  1
  O  O339  1  0.11553355  0.75467553  0.75559965  1
  O  O340  1  0.63412232  0.25912093  0.26562543  1
  O  O341  1  0.60717731  0.24477980  0.77250726  1
  O  O342  1  0.59295714  0.73954432  0.26988593  1
  O  O343  1  0.60856275  0.74123303  0.75066790  1
  O  O344  1  0.36091939  0.25519606  0.21116159  1
  O  O345  1  0.38264988  0.24355222  0.74178980  1
  O  O346  1  0.39289278  0.73935627  0.25495759  1
  O  O347  1  0.36449646  0.74225878  0.73213163  1
  O  O348  1  0.86893482  0.23084140  0.29037351  1
  O  O349  1  0.88759506  0.21741773  0.75826138  1
  O  O350  1  0.86890825  0.73741087  0.23935433  1
  O  O351  1  0.89183411  0.74590505  0.74373698  1
  O  O352  1  0.39637588  0.48369311  0.51482813  1
  O  O353  1  0.38774943  0.50592199  1.00668023  1
  O  O354  1  0.39512593  1.01498233  0.49899061  1
  O  O355  1  0.33210867  0.99872122  0.98212024  1
  O  O356  1  0.86205173  0.48940903  0.49056063  1
  O  O357  1  0.88145167  0.50521245  0.99938227  1
  O  O358  1  0.89923568  1.02817364  0.48992244  1
  O  O359  1  0.86241846  0.97742507  0.98471005  1
  O  O360  1  0.19548120  -0.01992423  0.08511003  1
  O  O361  1  0.12102310  -0.00157498  0.50163448  1
  O  O362  1  0.12410738  0.51497601  -0.00823837  1
  O  O363  1  0.13941677  0.47518183  0.55380930  1
  O  O364  1  0.64189722  0.00185704  -0.01701964  1
  O  O365  1  0.61664243  0.01322837  0.51481698  1
  O  O366  1  0.61058026  0.49783618  0.02086515  1
  O  O367  1  0.61676379  0.50676113  0.49964023  1
  O  O368  1  0.36263444  0.39531341  0.12304660  1
  O  O369  1  0.36904233  0.36189180  0.62059283  1
  O  O370  1  0.35137250  0.89634412  0.10302550  1
  O  O371  1  0.35402150  0.88098680  0.62787675  1
  O  O372  1  0.85791463  0.38560908  0.13363673  1
  O  O373  1  0.86454665  0.37549535  0.60641609  1
  O  O374  1  0.84636218  0.83932436  0.12088365  1
  O  O375  1  0.86671783  0.86921618  0.66132246  1
  O  O376  1  0.13975244  0.13454337  0.37573870  1
  O  O377  1  0.14393406  0.15580358  0.89839493  1
  O  O378  1  0.13280178  0.65105660  0.36494250  1
  O  O379  1  0.13308968  0.63319995  0.88109604  1
  O  O380  1  0.62044064  0.13692503  0.38631605  1
  O  O381  1  0.63083116  0.14156489  0.89977026  1
  O  O382  1  0.62802885  0.63597010  0.38563562  1
  O  O383  1  0.67693282  0.52219812  0.85735065  1
