# generated using pymatgen
data_VZnO4
_symmetry_space_group_name_H-M   'P 1'
_cell_length_a   16.90536433
_cell_length_b   16.91068211
_cell_length_c   16.91493956
_cell_angle_alpha   90.24136861
_cell_angle_beta   90.04256122
_cell_angle_gamma   90.08844989
_symmetry_Int_Tables_number   1
_chemical_formula_structural   VZnO4
_chemical_formula_sum   'V64 Zn64 O256'
_cell_volume   4835.61390513
_cell_formula_units_Z   64
loop_
 _symmetry_equiv_pos_site_id
 _symmetry_equiv_pos_as_xyz
  1  'x, y, z'
loop_
 _atom_site_type_symbol
 _atom_site_label
 _atom_site_symmetry_multiplicity
 _atom_site_fract_x
 _atom_site_fract_y
 _atom_site_fract_z
 _atom_site_occupancy
  V  V0  1  -0.03060519  0.12938844  0.63876123  1
  V  V1  1  0.49621173  0.75764307  0.27136287  1
  V  V2  1  0.72141494  0.63132594  0.38164774  1
  V  V3  1  0.36674484  0.48639679  0.84682057  1
  V  V4  1  0.11379132  0.88497516  0.74358730  1
  V  V5  1  0.61651584  0.89157811  0.24631203  1
  V  V6  1  0.00389793  0.89230688  0.88774759  1
  V  V7  1  0.85811938  0.11116374  0.24792196  1
  V  V8  1  0.14128913  0.38474388  0.24802397  1
  V  V9  1  -0.00212207  0.24468759  0.24574414  1
  V  V10  1  0.37455508  0.11793763  0.24853531  1
  V  V11  1  0.86094932  0.34987505  0.49212134  1
  V  V12  1  0.38235700  0.01291380  0.87488192  1
  V  V13  1  0.72305400  0.51625981  0.24200439  1
  V  V14  1  0.87765085  0.25399058  0.12029309  1
  V  V15  1  0.51130577  0.38663676  0.37054907  1
  V  V16  1  0.51686590  0.63169943  0.62200741  1
  V  V17  1  0.25354977  0.87594671  0.61393628  1
  V  V18  1  0.00285387  0.61285695  0.60159914  1
  V  V19  1  0.86668351  0.87213760  -0.00078872  1
  V  V20  1  0.13416482  0.50102087  0.62595884  1
  V  V21  1  0.24985479  0.88957626  0.13383764  1
  V  V22  1  0.12767670  0.25038306  0.37408137  1
  V  V23  1  0.37398769  -0.01530455  0.37466206  1
  V  V24  1  0.37017362  0.37798112  0.00442280  1
  V  V25  1  0.66414248  0.13164426  0.00861447  1
  V  V26  1  0.10542714  0.00577448  0.12885045  1
  V  V27  1  0.51124349  0.37298494  0.88330968  1
  V  V28  1  0.74282888  0.75512384  0.50827947  1
  V  V29  1  0.24927739  0.00892249  0.75757650  1
  V  V30  1  0.00483259  0.64271691  0.13167247  1
  V  V31  1  0.00446304  0.71847160  0.75824925  1
  V  V32  1  0.76156153  0.61725950  0.88347829  1
  V  V33  1  0.13337542  0.51102486  0.11164339  1
  V  V34  1  0.66396092  -0.03999557  0.69597661  1
  V  V35  1  0.11226815  0.86773827  0.25953599  1
  V  V36  1  0.50579190  0.75424351  0.76493375  1
  V  V37  1  0.02835168  0.25761947  0.75539835  1
  V  V38  1  0.24579499  0.12100394  0.36672135  1
  V  V39  1  0.36469598  0.25233724  0.12568162  1
  V  V40  1  0.50612476  0.11773093  0.11478755  1
  V  V41  1  0.59751910  0.60622907  -0.01292520  1
  V  V42  1  0.63738802  0.36593536  0.72977569  1
  V  V43  1  0.35810877  0.49466414  0.38283044  1
  V  V44  1  0.36066814  0.62129589  0.26403032  1
  V  V45  1  0.86083797  0.75202016  0.13243375  1
  V  V46  1  0.27201761  0.24162720  0.51027256  1
  V  V47  1  0.23962905  0.23723354  -0.00851089  1
  V  V48  1  0.37134892  0.74642086  0.12600536  1
  V  V49  1  0.49905705  -0.02384365  0.49418591  1
  V  V50  1  0.73990135  0.50689789  0.72312533  1
  V  V51  1  0.11406719  0.12055747  0.52198443  1
  V  V52  1  0.13789686  0.73365179  0.88492117  1
  V  V53  1  0.89020670  0.40522573  0.01278017  1
  V  V54  1  0.00073969  0.37817103  0.37896706  1
  V  V55  1  0.36358585  0.63822409  0.73536452  1
  V  V56  1  0.09546269  0.12028664  -0.00158585  1
  V  V57  1  0.51596807  0.49961291  0.50496058  1
  V  V58  1  0.88015327  0.75403885  0.62257457  1
  V  V59  1  0.36996966  0.87623394  -0.00750869  1
  V  V60  1  0.50932723  0.26064827  0.24904045  1
  V  V61  1  0.73443603  0.38104679  0.12569280  1
  V  V62  1  0.88254485  0.51634745  0.37082791  1
  V  V63  1  0.48382349  0.24788289  0.73788101  1
  Zn  Zn64  1  0.18208435  0.18361997  0.18575075  1
  Zn  Zn65  1  0.19155193  0.19093821  0.69446842  1
  Zn  Zn66  1  0.18904905  0.69285971  0.18826470  1
  Zn  Zn67  1  0.18177020  0.69586224  0.67745646  1
  Zn  Zn68  1  0.69038658  0.19072557  0.18187459  1
  Zn  Zn69  1  0.62609730  0.14875167  0.74268153  1
  Zn  Zn70  1  0.68744829  0.70755250  0.19687764  1
  Zn  Zn71  1  0.69405665  0.69797439  0.70479955  1
  Zn  Zn72  1  0.31854777  0.31079603  0.32057832  1
  Zn  Zn73  1  0.32609695  0.28459358  0.83046220  1
  Zn  Zn74  1  0.29489381  0.80745497  0.30778032  1
  Zn  Zn75  1  0.30710660  0.82002809  0.80504956  1
  Zn  Zn76  1  0.82000037  0.34259149  0.28927850  1
  Zn  Zn77  1  0.83331755  0.42120851  0.82430650  1
  Zn  Zn78  1  0.80086327  0.80978648  0.31432591  1
  Zn  Zn79  1  0.84758533  0.76673530  0.83793892  1
  Zn  Zn80  1  0.20296435  0.43387068  0.48525744  1
  Zn  Zn81  1  0.20458709  0.44251658  0.95623505  1
  Zn  Zn82  1  0.18073503  0.94671733  0.43428698  1
  Zn  Zn83  1  0.18764043  0.93744341  0.94316478  1
  Zn  Zn84  1  0.69398147  0.43912590  0.43061276  1
  Zn  Zn85  1  0.69178936  0.44755960  0.94826643  1
  Zn  Zn86  1  0.67955136  0.92388242  0.44052499  1
  Zn  Zn87  1  0.68460635  0.80032101  0.91248225  1
  Zn  Zn88  1  0.31076159  0.05928536  0.06035913  1
  Zn  Zn89  1  0.30732838  0.04990680  0.55939807  1
  Zn  Zn90  1  0.31841427  0.56948734  0.06425528  1
  Zn  Zn91  1  0.32193563  0.57504105  0.54858817  1
  Zn  Zn92  1  0.88231729  0.08446453  0.03416121  1
  Zn  Zn93  1  0.78908893  0.06846107  0.68887901  1
  Zn  Zn94  1  0.81098901  0.57974132  0.06824285  1
  Zn  Zn95  1  0.81726043  0.56088227  0.54971779  1
  Zn  Zn96  1  0.42903496  0.44153736  0.19207654  1
  Zn  Zn97  1  0.46046057  0.43719087  0.69101762  1
  Zn  Zn98  1  0.44784696  0.92809721  0.18063343  1
  Zn  Zn99  1  0.42688828  0.92852033  0.68945418  1
  Zn  Zn100  1  0.94494055  0.44028694  0.19022793  1
  Zn  Zn101  1  0.92629262  0.44701312  0.66342186  1
  Zn  Zn102  1  0.93249056  0.92676895  0.18594604  1
  Zn  Zn103  1  0.92981951  0.93844624  0.69761490  1
  Zn  Zn104  1  0.05155366  0.05363236  0.30864468  1
  Zn  Zn105  1  0.05693337  0.06924627  0.81387901  1
  Zn  Zn106  1  0.04702782  0.54811707  0.27803053  1
  Zn  Zn107  1  0.19409935  0.55972133  0.80456600  1
  Zn  Zn108  1  0.55144328  0.05952188  0.31241775  1
  Zn  Zn109  1  0.58927337  -0.04016122  0.89712955  1
  Zn  Zn110  1  0.53518647  0.58616821  0.17348668  1
  Zn  Zn111  1  0.56132729  0.55914090  0.80746877  1
  Zn  Zn112  1  0.43976800  0.19340464  0.42718837  1
  Zn  Zn113  1  0.44409437  0.18924131  0.93212244  1
  Zn  Zn114  1  0.50253169  0.63220336  0.38846961  1
  Zn  Zn115  1  0.41144905  0.67478944  0.93492710  1
  Zn  Zn116  1  0.94105704  0.16569869  0.43262535  1
  Zn  Zn117  1  0.91299851  0.26157104  0.90679831  1
  Zn  Zn118  1  0.94398219  0.69206954  0.44443061  1
  Zn  Zn119  1  0.94984172  0.68049837  0.95480533  1
  Zn  Zn120  1  0.06877760  0.31976274  0.06675171  1
  Zn  Zn121  1  0.05991557  0.30951100  0.56554561  1
  Zn  Zn122  1  0.07163804  0.81338515  0.06058791  1
  Zn  Zn123  1  0.08326379  0.79399870  0.57076823  1
  Zn  Zn124  1  0.56359144  0.29627773  0.05188411  1
  Zn  Zn125  1  0.55195649  0.32113507  0.56179594  1
  Zn  Zn126  1  0.56142366  0.82797268  0.05264059  1
  Zn  Zn127  1  0.56211490  0.81473068  0.57654663  1
  O  O128  1  0.12147957  0.11311290  0.12028316  1
  O  O129  1  0.13525218  0.11578205  0.61847892  1
  O  O130  1  0.12111319  0.62020653  0.13103205  1
  O  O131  1  0.11428815  0.61397606  0.62614012  1
  O  O132  1  0.61755827  0.12674740  0.11273027  1
  O  O133  1  0.66918973  0.06780795  0.67538454  1
  O  O134  1  0.61722112  0.64838927  0.10389508  1
  O  O135  1  0.61413405  0.62724746  0.63496708  1
  O  O136  1  0.38647544  0.39211238  0.36276933  1
  O  O137  1  0.37434727  0.37699982  0.88676825  1
  O  O138  1  0.35810441  0.88858347  0.36671329  1
  O  O139  1  0.36792736  0.86856349  0.89055203  1
  O  O140  1  0.89104626  0.36932627  0.37541530  1
  O  O141  1  0.87007634  0.36901795  0.91239543  1
  O  O142  1  0.87109858  0.89551576  0.36462955  1
  O  O143  1  0.89814577  0.85811164  0.88526649  1
  O  O144  1  0.26132800  0.01668720  0.37392200  1
  O  O145  1  0.25465384  -0.01081500  0.86271462  1
  O  O146  1  0.25923866  0.48850965  0.39597909  1
  O  O147  1  0.26129775  0.48964107  0.86976727  1
  O  O148  1  0.77557641  -0.01446436  0.39260671  1
  O  O149  1  0.80491003  0.02364095  0.88569828  1
  O  O150  1  0.74994784  0.51806642  0.36131266  1
  O  O151  1  0.75808908  0.50814326  0.87387832  1
  O  O152  1  0.23504282  0.51438621  0.12259765  1
  O  O153  1  0.22211681  0.52016322  0.56730743  1
  O  O154  1  0.24650369  0.99378247  0.12967732  1
  O  O155  1  0.25590665  0.98887153  0.64475404  1
  O  O156  1  0.75340486  0.50523254  0.14021333  1
  O  O157  1  0.74089894  0.51523816  0.62449693  1
  O  O158  1  0.74592144  0.97397686  0.13152835  1
  O  O159  1  0.76160152  0.94238885  0.67647953  1
  O  O160  1  0.01373772  0.36822419  0.26246089  1
  O  O161  1  -0.00714027  0.36910327  0.73726649  1
  O  O162  1  0.01181668  0.87720754  0.24926286  1
  O  O163  1  0.00579402  0.87675401  0.76723397  1
  O  O164  1  0.49786319  0.36804888  0.25151132  1
  O  O165  1  0.51731605  0.36551720  0.75823301  1
  O  O166  1  0.50176728  0.86885190  0.26222178  1
  O  O167  1  0.48307534  0.85224230  0.74996207  1
  O  O168  1  0.48858912  0.13834484  0.24672561  1
  O  O169  1  0.51284592  0.15206636  0.75639981  1
  O  O170  1  0.48081292  0.64022320  0.25834226  1
  O  O171  1  0.49263136  0.62685473  0.73647957  1
  O  O172  1  0.99432122  0.14390431  0.24554745  1
  O  O173  1  1.00855131  0.14540515  0.74396896  1
  O  O174  1  0.99696566  0.63755000  0.23892651  1
  O  O175  1  1.01048930  0.62259957  0.75011379  1
  O  O176  1  0.36528277  0.24886844  0.01093429  1
  O  O177  1  0.37205923  0.22421655  0.50889270  1
  O  O178  1  0.37510677  0.76254307  0.01924987  1
  O  O179  1  0.29627177  0.72384167  0.45237736  1
  O  O180  1  0.88281981  0.25432638  0.01990810  1
  O  O181  1  0.87828160  0.25033761  0.48317118  1
  O  O182  1  0.88894161  0.76016123  0.01461661  1
  O  O183  1  0.86971763  0.74311679  0.51652627  1
  O  O184  1  0.12469673  0.23134449  0.48566998  1
  O  O185  1  0.13223940  0.23600585  1.01682132  1
  O  O186  1  0.03269982  0.77414005  0.46206069  1
  O  O187  1  0.12548093  0.74665451  0.98425334  1
  O  O188  1  0.63245989  0.24830813  0.49884822  1
  O  O189  1  0.63282442  0.22716625  0.98870683  1
  O  O190  1  0.64383112  0.74998680  0.52420221  1
  O  O191  1  0.60494698  0.70872609  1.04322944  1
  O  O192  1  0.49042363  0.24101249  0.13288192  1
  O  O193  1  0.49795458  0.25960271  0.63746024  1
  O  O194  1  0.47163727  0.76549529  0.14455612  1
  O  O195  1  0.49897557  0.73421554  0.63133153  1
  O  O196  1  0.99160222  0.26499326  0.13888940  1
  O  O197  1  1.00826952  0.24304449  0.64133640  1
  O  O198  1  1.00785959  0.74558734  0.12698618  1
  O  O199  1  1.00136164  0.72794742  0.63134401  1
  O  O200  1  0.01036342  0.25394712  0.36265663  1
  O  O201  1  0.01246406  0.25123459  0.85718340  1
  O  O202  1  -0.00442184  0.85334596  0.44497089  1
  O  O203  1  0.00972339  0.73709203  0.86515640  1
  O  O204  1  0.49174500  0.26856061  0.35797554  1
  O  O205  1  0.48899483  0.26812371  0.86219127  1
  O  O206  1  0.48885110  0.74910897  0.37101187  1
  O  O207  1  0.48242031  0.73248094  0.86135293  1
  O  O208  1  0.24038358  0.12661696  0.48667140  1
  O  O209  1  0.25041876  0.13747075  1.00376786  1
  O  O210  1  0.26387851  0.67300211  0.50194688  1
  O  O211  1  0.31249798  0.63284215  0.97297053  1
  O  O212  1  0.73984832  0.19219957  0.39056425  1
  O  O213  1  0.76459274  0.12158188  1.01675812  1
  O  O214  1  0.74964198  0.62721949  0.48441987  1
  O  O215  1  0.74072281  0.62337656  0.98464117  1
  O  O216  1  0.26267791  0.35570070  0.00384898  1
  O  O217  1  0.26226765  0.33929090  0.48776455  1
  O  O218  1  0.25589870  0.87828810  0.01897305  1
  O  O219  1  0.24236214  0.90495250  0.51745118  1
  O  O220  1  0.76394616  0.39536830  0.02473460  1
  O  O221  1  0.76056483  0.36023929  0.47426248  1
  O  O222  1  0.77057351  0.85923542  -0.02309295  1
  O  O223  1  0.75382472  0.85435928  0.49824969  1
  O  O224  1  0.14029733  0.48387899  0.26972875  1
  O  O225  1  0.15836627  0.48472259  0.72066969  1
  O  O226  1  0.11732340  0.99807178  0.23577222  1
  O  O227  1  0.13198775  0.98991047  0.76274671  1
  O  O228  1  0.62514898  0.52146756  0.23327111  1
  O  O229  1  0.63033023  0.48374213  0.74868959  1
  O  O230  1  0.61760821  0.99341122  0.25309150  1
  O  O231  1  0.64586263  0.94984419  0.79519700  1
  O  O232  1  0.38428201  0.01437009  0.25860311  1
  O  O233  1  0.36018471  -0.01094654  0.76450339  1
  O  O234  1  0.36729002  0.51257238  0.26219708  1
  O  O235  1  0.36479201  0.46831478  0.74862344  1
  O  O236  1  0.87914757  0.01423464  0.23489398  1
  O  O237  1  0.87075048  0.01840917  0.76554474  1
  O  O238  1  0.86955155  0.48798768  0.26978086  1
  O  O239  1  0.84962421  0.49045338  0.73636873  1
  O  O240  1  0.11856646  0.36221266  0.37187612  1
  O  O241  1  0.10992694  0.38905700  0.87794456  1
  O  O242  1  0.12766743  0.88740374  0.35852599  1
  O  O243  1  0.11273899  0.86805101  0.87156229  1
  O  O244  1  0.61052020  0.38355351  0.36608883  1
  O  O245  1  0.61068227  0.38161213  0.89106092  1
  O  O246  1  0.63105244  0.86686633  0.35572156  1
  O  O247  1  0.60104932  0.85795673  0.94854661  1
  O  O248  1  0.37977883  0.13126325  0.13479328  1
  O  O249  1  0.41867838  0.07647786  0.61161431  1
  O  O250  1  0.36772268  0.64050284  0.14297058  1
  O  O251  1  0.38614253  0.61204065  0.63588549  1
  O  O252  1  0.87645757  0.14929178  0.13587734  1
  O  O253  1  0.86892976  0.13859931  0.64084984  1
  O  O254  1  0.88691303  0.64438457  0.12685288  1
  O  O255  1  0.89720513  0.61924260  0.61421207  1
  O  O256  1  0.26233236  0.24467074  0.12356088  1
  O  O257  1  0.24887935  0.23529903  0.60806015  1
  O  O258  1  0.26222772  0.76644129  0.13540175  1
  O  O259  1  0.19830143  0.78019433  0.60224642  1
  O  O260  1  0.76552225  0.27385079  0.13946220  1
  O  O261  1  0.67768066  0.20409182  0.53603794  1
  O  O262  1  0.76125103  0.74222439  0.11985758  1
  O  O263  1  0.77080572  0.73906891  0.62475659  1
  O  O264  1  0.24905708  0.23505302  0.38037490  1
  O  O265  1  0.24123000  0.24894594  0.89094785  1
  O  O266  1  0.24241382  0.75744877  0.40425772  1
  O  O267  1  0.23365079  0.75762924  0.86479239  1
  O  O268  1  0.72748206  0.25439692  0.35518854  1
  O  O269  1  0.77291104  0.18778494  0.84262022  1
  O  O270  1  0.75417044  0.73677299  0.39148472  1
  O  O271  1  0.74155057  0.72965305  0.85020874  1
  O  O272  1  -0.00453920  0.12266766  0.00454341  1
  O  O273  1  0.00577185  0.13777029  0.53246780  1
  O  O274  1  0.00137205  0.61507837  0.02952560  1
  O  O275  1  0.01280763  0.61742652  0.50261928  1
  O  O276  1  0.49060155  0.12943120  0.01705265  1
  O  O277  1  0.53016020  0.12607843  0.46339008  1
  O  O278  1  0.49794910  0.60896332  -0.02032072  1
  O  O279  1  0.50404966  0.61048667  0.50997920  1
  O  O280  1  0.50048681  0.38369444  0.48308086  1
  O  O281  1  0.48481366  0.36043304  0.98976065  1
  O  O282  1  0.48843617  0.87903427  0.51018296  1
  O  O283  1  0.46540809  0.88863054  1.02175117  1
  O  O284  1  0.99732998  0.36403021  0.47932321  1
  O  O285  1  0.98963696  0.38411466  1.01551570  1
  O  O286  1  1.01268737  0.90382643  0.49734405  1
  O  O287  1  1.00434190  0.87560129  0.98956284  1
  O  O288  1  0.49680881  0.49453299  0.38370753  1
  O  O289  1  0.48094938  0.47810065  0.86273950  1
  O  O290  1  0.48381253  0.99161122  0.38198709  1
  O  O291  1  0.47922117  0.99158508  0.87202651  1
  O  O292  1  0.99386546  0.48766122  0.36946097  1
  O  O293  1  1.05576465  0.43533233  0.86089160  1
  O  O294  1  0.98581440  1.06351928  0.39555518  1
  O  O295  1  0.99849724  0.99129659  0.87796980  1
  O  O296  1  0.00748210  -0.00429969  0.12044476  1
  O  O297  1  -0.01884532  0.02849452  0.64583411  1
  O  O298  1  0.02452764  0.51252930  0.15406827  1
  O  O299  1  0.01630543  0.50786366  0.62450743  1
  O  O300  1  0.49388997  0.02037485  0.13185322  1
  O  O301  1  0.46656428  0.01105219  0.60636283  1
  O  O302  1  0.47426986  0.51152364  0.12034640  1
  O  O303  1  0.50138872  0.50145550  0.61042330  1
  O  O304  1  0.23754061  0.35964028  0.25639216  1
  O  O305  1  0.30008255  0.37613707  0.64888558  1
  O  O306  1  0.23672449  0.88130535  0.23979797  1
  O  O307  1  0.22841859  0.87577148  0.73575247  1
  O  O308  1  0.73660295  0.40020234  0.24005456  1
  O  O309  1  0.73879472  0.38794314  0.75202711  1
  O  O310  1  0.71766063  0.85726234  0.25446518  1
  O  O311  1  0.81618984  0.98174831  0.82664032  1
  O  O312  1  0.26437425  0.13064204  0.25495244  1
  O  O313  1  0.24396533  0.10824629  0.75281827  1
  O  O314  1  0.26138982  0.63674744  0.26248017  1
  O  O315  1  0.25883734  0.62906565  0.73202876  1
  O  O316  1  0.75789353  0.12165080  0.23782009  1
  O  O317  1  0.73832334  0.13647611  0.78928936  1
  O  O318  1  0.74044536  0.62519560  0.26513715  1
  O  O319  1  0.73796054  0.60636630  0.76052271  1
  O  O320  1  0.36791516  0.12746808  0.35966231  1
  O  O321  1  0.37698240  0.11344226  0.87788863  1
  O  O322  1  0.37890267  0.60972565  0.37082391  1
  O  O323  1  0.37796851  0.59477812  0.83547924  1
  O  O324  1  0.86981858  0.13146411  0.34770538  1
  O  O325  1  0.85120812  0.18725888  0.83567047  1
  O  O326  1  0.88990273  0.61700516  0.37625999  1
  O  O327  1  0.86179732  0.63826758  0.88306605  1
  O  O328  1  0.12600606  0.39232903  0.14147722  1
  O  O329  1  0.12286454  0.40709856  0.57349143  1
  O  O330  1  0.13210568  0.88822480  0.12895444  1
  O  O331  1  0.09899252  0.88761914  0.64414393  1
  O  O332  1  0.63728856  0.36518789  0.11266322  1
  O  O333  1  0.63256227  0.36872522  0.62979969  1
  O  O334  1  0.60699079  0.87391080  0.14553305  1
  O  O335  1  0.60218487  0.90220582  0.63753456  1
  O  O336  1  0.11637793  0.25597774  0.25228968  1
  O  O337  1  0.12917981  0.26841165  0.74852621  1
  O  O338  1  0.12984486  0.76795655  0.25189535  1
  O  O339  1  0.11060288  0.75944378  0.75328478  1
  O  O340  1  0.60725257  0.24529953  0.24254595  1
  O  O341  1  0.62955752  0.26613807  0.75301715  1
  O  O342  1  0.59610097  0.74554871  0.24939052  1
  O  O343  1  0.60733772  0.75181927  0.75567450  1
  O  O344  1  0.38019351  0.24490186  0.23755452  1
  O  O345  1  0.38068618  0.25344309  0.74153165  1
  O  O346  1  0.37502632  0.74389901  0.25457727  1
  O  O347  1  0.37484749  0.73834334  0.74612150  1
  O  O348  1  0.88750065  0.25910729  0.24393326  1
  O  O349  1  0.92596675  0.32274987  0.75480807  1
  O  O350  1  0.87092172  0.76837886  0.23366016  1
  O  O351  1  0.89845746  0.73963754  0.73772789  1
  O  O352  1  0.38733872  0.50314169  0.48569406  1
  O  O353  1  0.36629542  0.47712962  1.00407820  1
  O  O354  1  0.38033004  1.00584099  0.47932871  1
  O  O355  1  0.35905651  0.99132330  0.98231701  1
  O  O356  1  0.86278462  0.48541285  0.46999920  1
  O  O357  1  0.88212687  0.50363153  1.01210171  1
  O  O358  1  0.84493099  0.95328747  0.41092550  1
  O  O359  1  0.87635374  0.97497687  1.00817102  1
  O  O360  1  0.12711173  0.01356068  0.01334701  1
  O  O361  1  0.11531299  0.02815467  0.48278393  1
  O  O362  1  0.12335758  0.49685295  0.01247723  1
  O  O363  1  0.15406732  0.61517939  0.41513608  1
  O  O364  1  0.69983862  -0.02444545  0.07640841  1
  O  O365  1  0.59962596  -0.01103304  0.49212040  1
  O  O366  1  0.62015334  0.51072744  0.01227102  1
  O  O367  1  0.61494584  0.49426599  0.49525112  1
  O  O368  1  0.38073791  0.35880075  0.11683269  1
  O  O369  1  0.36566491  0.37372420  0.61673934  1
  O  O370  1  0.35891529  0.87655929  0.12964853  1
  O  O371  1  0.35061823  0.85837392  0.62732085  1
  O  O372  1  0.87291327  0.37567462  0.12384241  1
  O  O373  1  0.87908021  0.37694711  0.58813788  1
  O  O374  1  0.87424190  0.86301634  0.11183758  1
  O  O375  1  0.89570718  0.85219110  0.62816561  1
  O  O376  1  0.14118384  0.13363335  0.35497751  1
  O  O377  1  0.11500351  0.12003260  0.90032091  1
  O  O378  1  0.11319935  0.64168454  0.36124769  1
  O  O379  1  0.13630908  0.63286978  0.86703170  1
  O  O380  1  0.58488670  0.12649106  0.40674369  1
  O  O381  1  0.62884273  0.06164715  0.94523210  1
  O  O382  1  0.62371889  0.62987869  0.38266207  1
  O  O383  1  0.62823597  0.61497327  0.88502321  1
