# generated using pymatgen
data_VZnO4
_symmetry_space_group_name_H-M   'P 1'
_cell_length_a   16.92317475
_cell_length_b   16.89897365
_cell_length_c   16.93716537
_cell_angle_alpha   89.70317471
_cell_angle_beta   90.23146090
_cell_angle_gamma   89.99998358
_symmetry_Int_Tables_number   1
_chemical_formula_structural   VZnO4
_chemical_formula_sum   'V64 Zn64 O256'
_cell_volume   4843.65859189
_cell_formula_units_Z   64
loop_
 _symmetry_equiv_pos_site_id
 _symmetry_equiv_pos_as_xyz
  1  'x, y, z'
loop_
 _atom_site_type_symbol
 _atom_site_label
 _atom_site_symmetry_multiplicity
 _atom_site_fract_x
 _atom_site_fract_y
 _atom_site_fract_z
 _atom_site_occupancy
  V  V0  1  0.49925987  -0.01370386  0.50307844  1
  V  V1  1  0.63847526  0.63119425  -0.01392345  1
  V  V2  1  0.88154683  0.14189417  0.24243376  1
  V  V3  1  0.00065749  0.74108274  0.24319425  1
  V  V4  1  0.37184220  0.38387089  0.51200938  1
  V  V5  1  0.25409073  0.25119096  0.51461975  1
  V  V6  1  0.85913927  0.75079611  0.11761433  1
  V  V7  1  0.12268970  0.73095471  0.37937165  1
  V  V8  1  0.64878130  0.86684546  0.73680570  1
  V  V9  1  0.02141999  0.14061620  0.12505587  1
  V  V10  1  0.49386143  0.49446597  -0.00214527  1
  V  V11  1  0.75051533  0.24679181  0.50607263  1
  V  V12  1  0.23298612  0.87862559  0.11652887  1
  V  V13  1  0.87960468  0.37838317  0.00147961  1
  V  V14  1  0.11929131  0.25440125  0.36334318  1
  V  V15  1  0.51212753  0.25011983  0.75328979  1
  V  V16  1  0.86720491  -0.00183095  0.87032582  1
  V  V17  1  0.01221264  0.87907319  0.35808053  1
  V  V18  1  0.49103114  0.13053510  0.61195828  1
  V  V19  1  0.27169029  0.60790932  0.36893554  1
  V  V20  1  0.12390926  0.85202764  0.72484850  1
  V  V21  1  0.12015026  0.49006136  0.64915748  1
  V  V22  1  0.86081373  0.88345440  0.00313124  1
  V  V23  1  0.86232176  0.62670020  0.25019344  1
  V  V24  1  -0.00922086  0.63302516  0.62346368  1
  V  V25  1  0.39096589  0.90624019  0.01047548  1
  V  V26  1  0.02301763  0.87436065  0.89067251  1
  V  V27  1  0.63536822  -0.00151860  0.62106891  1
  V  V28  1  0.48095879  0.40371425  0.37309702  1
  V  V29  1  0.23950064  0.01558727  0.74533991  1
  V  V30  1  -0.00217666  -0.01193867  0.50870632  1
  V  V31  1  0.74017669  0.62040569  0.38562393  1
  V  V32  1  0.87202290  0.12584038  0.74126069  1
  V  V33  1  0.50790910  0.63750142  0.12574398  1
  V  V34  1  0.25815225  0.74774659  0.50648005  1
  V  V35  1  0.12375137  0.12187193  0.50340890  1
  V  V36  1  0.36038711  -0.01862019  0.38456548  1
  V  V37  1  0.38162020  0.24159478  0.17519118  1
  V  V38  1  0.61406005  0.25504941  0.36974378  1
  V  V39  1  0.74596991  0.12105076  0.37201123  1
  V  V40  1  0.36726830  0.75412922  0.12841869  1
  V  V41  1  0.00669023  0.49733774  0.49863676  1
  V  V42  1  0.88055832  0.59775497  0.75701049  1
  V  V43  1  0.74358490  0.48975425  0.24684306  1
  V  V44  1  0.87877608  -0.00290518  0.36157102  1
  V  V45  1  0.48369964  0.62165915  0.63503651  1
  V  V46  1  0.50173265  0.86979138  0.36177418  1
  V  V47  1  0.50639549  0.38556127  0.86507535  1
  V  V48  1  0.00019795  0.14456523  0.62094966  1
  V  V49  1  0.00887218  0.00552851  0.01203102  1
  V  V50  1  0.22912946  0.36600103  0.13874962  1
  V  V51  1  0.62335611  0.47789574  0.59409516  1
  V  V52  1  0.74375266  0.13555950  0.86970571  1
  V  V53  1  0.01187387  0.25286827  0.77080932  1
  V  V54  1  0.27749499  0.49051095  0.75654108  1
  V  V55  1  0.25258239  0.12865996  0.36993811  1
  V  V56  1  0.23265105  -0.01976314  0.25187466  1
  V  V57  1  0.37644596  0.12667959  0.76299763  1
  V  V58  1  0.51614770  0.88710332  0.85541332  1
  V  V59  1  0.86904676  0.37472116  0.51413648  1
  V  V60  1  0.62136724  0.74605765  0.35201188  1
  V  V61  1  0.62803743  0.48012063  0.12131111  1
  V  V62  1  -0.00810055  0.36968894  0.36728711  1
  V  V63  1  0.22594485  0.65989381  0.87190126  1
  Zn  Zn64  1  0.22539022  0.15700519  0.15719534  1
  Zn  Zn65  1  0.18420165  0.18744719  0.69539024  1
  Zn  Zn66  1  0.19292759  0.68761261  0.18907094  1
  Zn  Zn67  1  0.18547940  0.66191838  0.68564190  1
  Zn  Zn68  1  0.68967595  0.19871287  0.19842127  1
  Zn  Zn69  1  0.68174431  0.17461330  0.68160692  1
  Zn  Zn70  1  0.68339923  0.68840062  0.18128018  1
  Zn  Zn71  1  0.69006308  0.68089010  0.80168444  1
  Zn  Zn72  1  0.30252121  0.33811458  0.31541472  1
  Zn  Zn73  1  0.32894008  0.32635153  0.79122620  1
  Zn  Zn74  1  0.30890695  0.80058779  0.31086770  1
  Zn  Zn75  1  0.27597077  0.86848492  0.84758089  1
  Zn  Zn76  1  0.81149621  0.30808521  0.32269909  1
  Zn  Zn77  1  0.83086470  0.30859129  0.81272863  1
  Zn  Zn78  1  0.81862719  0.80497690  0.35009200  1
  Zn  Zn79  1  0.82627612  0.81981079  0.80240302  1
  Zn  Zn80  1  0.18729598  0.43640054  0.43706173  1
  Zn  Zn81  1  0.27184325  0.48556655  0.96813252  1
  Zn  Zn82  1  0.17900201  0.92844665  0.44901499  1
  Zn  Zn83  1  0.19283939  0.96689112  0.94520098  1
  Zn  Zn84  1  0.68443105  0.42774366  0.42733736  1
  Zn  Zn85  1  0.67738607  0.41862828  0.94768635  1
  Zn  Zn86  1  0.68806514  0.93437504  0.41619258  1
  Zn  Zn87  1  0.68544570  0.81595226  0.92706640  1
  Zn  Zn88  1  0.39372873  0.10955585  0.04902688  1
  Zn  Zn89  1  0.31108517  0.05798056  0.56450779  1
  Zn  Zn90  1  0.37086461  0.62734254  -0.00869131  1
  Zn  Zn91  1  0.29146984  0.56992048  0.56149581  1
  Zn  Zn92  1  0.78282723  0.10646680  0.07570758  1
  Zn  Zn93  1  0.82020039  0.06141735  0.55268305  1
  Zn  Zn94  1  0.80633677  0.56557270  0.06939587  1
  Zn  Zn95  1  0.80745716  0.54960057  0.57111953  1
  Zn  Zn96  1  0.44727048  0.42511049  0.17708455  1
  Zn  Zn97  1  0.44833465  0.43938392  0.67846130  1
  Zn  Zn98  1  0.41522753  0.94253611  0.19757780  1
  Zn  Zn99  1  0.43654077  0.95034196  0.69644894  1
  Zn  Zn100  1  0.92612555  0.43199458  0.19593394  1
  Zn  Zn101  1  0.94225622  0.42870615  0.68718453  1
  Zn  Zn102  1  0.80595263  0.92578970  0.19884689  1
  Zn  Zn103  1  0.94807870  0.92645482  0.69651285  1
  Zn  Zn104  1  0.06261121  0.07154203  0.30738765  1
  Zn  Zn105  1  0.03944599  0.03910641  0.79634149  1
  Zn  Zn106  1  0.04870014  0.55555574  0.31029467  1
  Zn  Zn107  1  0.02137029  0.67265510  0.83921757  1
  Zn  Zn108  1  0.53707720  0.08672641  0.33493242  1
  Zn  Zn109  1  0.56533150  0.05657352  0.80482566  1
  Zn  Zn110  1  0.56230704  0.56063122  0.30582243  1
  Zn  Zn111  1  0.50200888  0.61220943  0.84159947  1
  Zn  Zn112  1  0.42997546  0.18549515  0.43856684  1
  Zn  Zn113  1  0.40628769  0.23469015  0.90777239  1
  Zn  Zn114  1  0.43684579  0.68483928  0.44038043  1
  Zn  Zn115  1  0.39352350  0.76003986  0.89956649  1
  Zn  Zn116  1  0.93258242  0.18750515  0.43800590  1
  Zn  Zn117  1  0.93361139  0.17710440  0.93963920  1
  Zn  Zn118  1  0.93026622  0.68247545  0.43818832  1
  Zn  Zn119  1  0.83376714  0.68452176  0.92614603  1
  Zn  Zn120  1  0.07813380  0.31668760  0.04090373  1
  Zn  Zn121  1  0.07065507  0.31813419  0.55599881  1
  Zn  Zn122  1  0.01790683  0.87793256  0.13118311  1
  Zn  Zn123  1  0.05958058  0.80488441  0.54985360  1
  Zn  Zn124  1  0.47512079  0.29711673  0.05782265  1
  Zn  Zn125  1  0.55940374  0.30681462  0.54476173  1
  Zn  Zn126  1  0.52633352  0.79057161  0.02081569  1
  Zn  Zn127  1  0.56949928  0.81588261  0.55548009  1
  O  O128  1  0.12001023  0.12343414  0.12979606  1
  O  O129  1  0.10887208  0.12862607  0.61524936  1
  O  O130  1  0.15707535  0.61177212  0.10637657  1
  O  O131  1  0.09532976  0.60829549  0.62891295  1
  O  O132  1  0.62332423  0.07593662  0.18930803  1
  O  O133  1  0.60519186  0.10391962  0.62545787  1
  O  O134  1  0.62056900  0.62170161  0.11030067  1
  O  O135  1  0.62490945  0.62820038  0.65118347  1
  O  O136  1  0.37514885  0.38757380  0.38730726  1
  O  O137  1  0.40268287  0.34804363  0.88199873  1
  O  O138  1  0.37623885  0.87807386  0.37817774  1
  O  O139  1  0.38438626  0.88020693  0.90226724  1
  O  O140  1  0.88908578  0.36568183  0.38619935  1
  O  O141  1  0.87838251  0.38447532  0.89615842  1
  O  O142  1  0.89645667  0.89296361  0.37017217  1
  O  O143  1  0.88368525  0.88705676  0.88134880  1
  O  O144  1  0.25050780  -0.00034807  0.38494072  1
  O  O145  1  0.25507683  -0.01643146  0.85319104  1
  O  O146  1  0.24659044  0.50919303  0.37483466  1
  O  O147  1  0.26161697  0.47381357  0.85695820  1
  O  O148  1  0.76971276  0.01091823  0.38914970  1
  O  O149  1  0.77047571  0.00321760  0.85780859  1
  O  O150  1  0.72865195  0.51226195  0.35661707  1
  O  O151  1  0.74427869  0.45703057  0.84279445  1
  O  O152  1  0.31500251  0.54020965  0.17814865  1
  O  O153  1  0.22665933  0.52715492  0.65093303  1
  O  O154  1  0.24182343  0.98758016  0.14787013  1
  O  O155  1  0.25117411  1.00348759  0.64411592  1
  O  O156  1  0.73802182  0.49930625  0.13370006  1
  O  O157  1  0.71880065  0.50094787  0.62282580  1
  O  O158  1  0.75398451  1.00117347  0.12258817  1
  O  O159  1  0.73341000  1.00848435  0.60521118  1
  O  O160  1  -0.00992923  0.37382356  0.26791130  1
  O  O161  1  -0.01686930  0.34947842  0.75772273  1
  O  O162  1  0.00050710  0.86156597  0.25555736  1
  O  O163  1  0.03814873  0.90287782  0.77337415  1
  O  O164  1  0.48592549  0.38318615  0.27442588  1
  O  O165  1  0.49913006  0.36602985  0.75709183  1
  O  O166  1  0.48742701  0.88273519  0.26444377  1
  O  O167  1  0.49504903  0.87269980  0.75651056  1
  O  O168  1  0.47138797  0.09388486  0.23398060  1
  O  O169  1  0.49356503  0.12952498  0.73793581  1
  O  O170  1  0.50197784  0.61374596  0.22259296  1
  O  O171  1  0.49174279  0.64493852  0.73225574  1
  O  O172  1  0.99434835  0.12732617  0.23329246  1
  O  O173  1  0.99853489  0.13344022  0.73305308  1
  O  O174  1  0.97690152  0.63299998  0.25725038  1
  O  O175  1  0.98439156  0.64177306  0.73151788  1
  O  O176  1  0.43820728  0.20260768  0.00818434  1
  O  O177  1  0.35669594  0.24855895  0.49525213  1
  O  O178  1  0.39008630  0.78005781  0.02233265  1
  O  O179  1  0.35833373  0.74997134  0.49328139  1
  O  O180  1  0.88565589  0.27453254  -0.00464154  1
  O  O181  1  0.86254345  0.25819804  0.49570265  1
  O  O182  1  0.87238476  0.76101965  0.01148388  1
  O  O183  1  0.85989503  0.76526494  0.44824454  1
  O  O184  1  0.13612584  0.24021975  0.49620887  1
  O  O185  1  0.13897231  0.27076931  0.95006298  1
  O  O186  1  0.11902833  0.73749400  0.48042141  1
  O  O187  1  0.08658804  0.63556405  1.07105027  1
  O  O188  1  0.64008204  0.24781699  0.48359452  1
  O  O189  1  0.60527263  0.16358151  1.02940981  1
  O  O190  1  0.65214015  0.78298877  0.47838896  1
  O  O191  1  0.63276152  0.73635973  0.99791966  1
  O  O192  1  0.48149007  0.22884654  0.16120496  1
  O  O193  1  0.50217575  0.23160143  0.61437235  1
  O  O194  1  0.50938987  0.74047246  0.12421193  1
  O  O195  1  0.50815244  0.72115129  0.58339597  1
  O  O196  1  1.01647907  0.23751508  0.10274660  1
  O  O197  1  0.99697932  0.24341629  0.61746229  1
  O  O198  1  0.98343924  0.76058242  0.14219278  1
  O  O199  1  0.98729400  0.72840124  0.59318820  1
  O  O200  1  0.01043715  0.25707157  0.38473433  1
  O  O201  1  0.00441573  0.23297519  0.86982766  1
  O  O202  1  0.00550694  0.75712599  0.36391445  1
  O  O203  1  -0.00362896  0.78049970  0.87224230  1
  O  O204  1  0.52103900  0.20298806  0.37243871  1
  O  O205  1  0.51673978  0.24596787  0.85310198  1
  O  O206  1  0.51046154  0.76048634  0.38081700  1
  O  O207  1  0.51103238  0.79300248  0.90545921  1
  O  O208  1  0.24053991  0.12772175  0.49437897  1
  O  O209  1  0.25148127  0.15146403  0.99866101  1
  O  O210  1  0.24770140  0.63334969  0.47457045  1
  O  O211  1  0.25927015  0.60591803  0.95692064  1
  O  O212  1  0.76785779  0.13789789  0.48138946  1
  O  O213  1  0.75981336  0.11419413  0.96650806  1
  O  O214  1  0.75284157  0.61263341  0.48258411  1
  O  O215  1  0.74519694  0.61950646  0.98721787  1
  O  O216  1  0.25658844  0.43008583  0.06216155  1
  O  O217  1  0.25652575  0.35850627  0.49689409  1
  O  O218  1  0.25655181  0.89475502  0.01636264  1
  O  O219  1  0.23299902  0.84818033  0.50416802  1
  O  O220  1  0.77395713  0.37535809  -0.00283992  1
  O  O221  1  0.76006796  0.36127563  0.48749370  1
  O  O222  1  0.76289692  0.87867316  -0.01034193  1
  O  O223  1  0.71199510  0.83682136  0.48196980  1
  O  O224  1  0.07464117  0.50720387  0.19881556  1
  O  O225  1  0.10558332  0.48665781  0.74471614  1
  O  O226  1  0.13433721  0.99180390  0.26852259  1
  O  O227  1  0.14266146  1.04363395  0.75512977  1
  O  O228  1  0.63259810  0.49915258  0.23296057  1
  O  O229  1  0.63877077  0.59951644  0.71913487  1
  O  O230  1  0.61562668  1.02173198  0.23954078  1
  O  O231  1  0.62087572  0.98734758  0.72664603  1
  O  O232  1  0.34836097  -0.00536211  0.27666783  1
  O  O233  1  0.36749369  0.01842932  0.75144792  1
  O  O234  1  0.36447820  0.51136225  0.22406222  1
  O  O235  1  0.37682416  0.50309455  0.74479598  1
  O  O236  1  0.87375440  0.00970296  0.25972993  1
  O  O237  1  0.90023805  0.01113595  0.76215737  1
  O  O238  1  0.85849462  0.51534800  0.23524852  1
  O  O239  1  0.88812425  0.49780806  0.76032053  1
  O  O240  1  0.11514606  0.36098662  0.38247696  1
  O  O241  1  0.20846493  0.30535112  0.92793237  1
  O  O242  1  0.11370121  0.86155290  0.37283808  1
  O  O243  1  0.12212776  0.87440167  0.90267543  1
  O  O244  1  0.59641529  0.35855500  0.38155540  1
  O  O245  1  0.60518987  0.36752106  0.87955568  1
  O  O246  1  0.60679458  0.87272852  0.36219227  1
  O  O247  1  0.62555520  0.88289773  0.85019952  1
  O  O248  1  0.34192833  0.14375905  0.14504141  1
  O  O249  1  0.38905492  0.11808215  0.62780836  1
  O  O250  1  0.39124543  0.64852141  0.10430236  1
  O  O251  1  0.38749322  0.61123488  0.61418987  1
  O  O252  1  0.87662805  0.12578718  0.14114362  1
  O  O253  1  0.89018366  0.11428785  0.63220651  1
  O  O254  1  0.86744922  0.64077901  0.13144951  1
  O  O255  1  0.88416746  0.60459203  0.63755062  1
  O  O256  1  0.26031834  0.26522461  0.13175917  1
  O  O257  1  0.24650750  0.24112225  0.61242500  1
  O  O258  1  0.25935595  0.76289121  0.12446734  1
  O  O259  1  0.24151893  0.71791409  0.60321103  1
  O  O260  1  0.71888708  0.19786435  0.09665823  1
  O  O261  1  0.74186438  0.23540403  0.60414929  1
  O  O262  1  0.76036356  0.75782241  0.13069210  1
  O  O263  1  0.84859037  0.80859239  0.63679116  1
  O  O264  1  0.23822686  0.23721540  0.38075044  1
  O  O265  1  0.24382423  0.26744777  0.86895668  1
  O  O266  1  0.23257887  0.74338860  0.37736639  1
  O  O267  1  0.26980512  0.75572380  0.87131847  1
  O  O268  1  0.73665647  0.23877644  0.37869302  1
  O  O269  1  0.75710741  0.23639442  0.85938118  1
  O  O270  1  0.73004034  0.72913872  0.36330291  1
  O  O271  1  0.76033735  0.75169834  0.86625021  1
  O  O272  1  -0.01458005  0.11253166  0.01979984  1
  O  O273  1  0.00242210  0.11978453  0.51068210  1
  O  O274  1  0.06176882  0.59248296  0.01552053  1
  O  O275  1  -0.01997419  0.60128672  0.50167405  1
  O  O276  1  0.58932268  0.09334826  0.02205185  1
  O  O277  1  0.49128180  0.10777991  0.50713954  1
  O  O278  1  0.51911636  0.60750888  0.00734612  1
  O  O279  1  0.51854587  0.65708257  0.52563102  1
  O  O280  1  0.47920420  0.36194928  0.48098668  1
  O  O281  1  0.50570411  0.38864976  0.99311800  1
  O  O282  1  0.49525887  0.88224845  0.48844739  1
  O  O283  1  0.49055509  0.90378902  1.02955351  1
  O  O284  1  0.98824644  0.38064834  0.49790286  1
  O  O285  1  0.98485123  0.38865077  0.99816865  1
  O  O286  1  1.00636892  0.88676004  0.48315831  1
  O  O287  1  0.98972212  0.88730159  0.99721793  1
  O  O288  1  0.49875489  0.50198881  0.37948810  1
  O  O289  1  0.50397479  0.49287681  0.88270597  1
  O  O290  1  0.48371722  0.99268677  0.38367859  1
  O  O291  1  0.50750178  0.98655437  0.87551729  1
  O  O292  1  1.00323644  0.48162963  0.38547742  1
  O  O293  1  1.07560442  0.45276503  0.90945899  1
  O  O294  1  0.99882875  0.99213280  0.36962763  1
  O  O295  1  0.99541102  0.99679222  0.89194747  1
  O  O296  1  -0.00284299  -0.00782484  0.11339474  1
  O  O297  1  -0.00733360  -0.01065251  0.60968949  1
  O  O298  1  0.01809962  0.49567919  0.14882225  1
  O  O299  1  0.00409409  0.49570748  0.61277991  1
  O  O300  1  0.47518217  0.04532473  0.17491790  1
  O  O301  1  0.49701055  -0.00351847  0.61023844  1
  O  O302  1  0.51224944  0.49901782  0.11335377  1
  O  O303  1  0.52323683  0.51701584  0.63222772  1
  O  O304  1  0.24930335  0.39647256  0.23533979  1
  O  O305  1  0.26627637  0.39324257  0.72605079  1
  O  O306  1  0.24401026  0.87510522  0.24452084  1
  O  O307  1  0.21862547  0.89076764  0.74543161  1
  O  O308  1  0.76023841  0.39183751  0.25995457  1
  O  O309  1  0.75472621  0.40488598  0.79009794  1
  O  O310  1  0.75956247  0.87828789  0.28807773  1
  O  O311  1  0.74676647  0.88012132  0.73995096  1
  O  O312  1  0.23633723  0.10894639  0.27115280  1
  O  O313  1  0.26812948  0.12792869  0.74632011  1
  O  O314  1  0.24799276  0.63331933  0.27053093  1
  O  O315  1  0.24218202  0.61379296  0.77924907  1
  O  O316  1  0.76642696  0.12954949  0.26640794  1
  O  O317  1  0.76933326  0.12259028  0.74275042  1
  O  O318  1  0.75171118  0.61718489  0.24856438  1
  O  O319  1  0.78477344  0.62800158  0.76038566  1
  O  O320  1  0.35447708  0.11241079  0.38246312  1
  O  O321  1  0.37873230  0.13121300  0.86248347  1
  O  O322  1  0.37303759  0.61977309  0.37235301  1
  O  O323  1  0.40700602  0.65064123  0.88677023  1
  O  O324  1  0.88293686  0.11600936  0.36198034  1
  O  O325  1  0.87379655  0.11533270  0.86049148  1
  O  O326  1  0.85239012  0.62404726  0.35861478  1
  O  O327  1  0.90996837  0.63271500  0.85898222  1
  O  O328  1  0.12861856  0.36200090  0.12861077  1
  O  O329  1  0.12618436  0.39207121  0.61988827  1
  O  O330  1  0.13476571  0.86637957  0.11814941  1
  O  O331  1  0.10673288  0.87023196  0.62818895  1
  O  O332  1  0.62571298  0.38400163  0.11591217  1
  O  O333  1  0.61208910  0.37949886  0.61349152  1
  O  O334  1  0.65806222  0.90520223  0.12833379  1
  O  O335  1  0.62281215  0.88364924  0.62849779  1
  O  O336  1  0.12440466  0.24568702  0.26827269  1
  O  O337  1  0.11052046  0.25011605  0.74890127  1
  O  O338  1  0.10484645  0.73675795  0.25007568  1
  O  O339  1  0.12548703  0.75276572  0.73879749  1
  O  O340  1  0.62974828  0.25225725  0.27043536  1
  O  O341  1  0.60908641  0.24664750  0.72862035  1
  O  O342  1  0.61823806  0.75095858  0.25368233  1
  O  O343  1  0.63550694  0.76705976  0.74108931  1
  O  O344  1  0.36506771  0.25045719  0.27367036  1
  O  O345  1  0.39269666  0.23780952  0.74441243  1
  O  O346  1  0.37914528  0.75813218  0.22882176  1
  O  O347  1  0.35595584  0.79743446  0.68091110  1
  O  O348  1  0.87539776  0.24112874  0.25397299  1
  O  O349  1  0.88825648  0.22959971  0.75099587  1
  O  O350  1  0.87558451  0.73946225  0.24432984  1
  O  O351  1  0.90112313  0.81973537  0.71255925  1
  O  O352  1  0.35535646  0.48204635  0.51341453  1
  O  O353  1  0.39447134  0.50642029  1.00179292  1
  O  O354  1  0.37828081  0.99592475  0.49125496  1
  O  O355  1  0.37341096  1.00576659  1.01572400  1
  O  O356  1  0.87590290  0.47985219  0.50239962  1
  O  O357  1  0.87408907  0.48427298  1.00958431  1
  O  O358  1  0.89578428  1.00757336  0.48327238  1
  O  O359  1  0.87786877  0.99065957  0.98681253  1
  O  O360  1  0.10846457  0.01081628  0.00312750  1
  O  O361  1  0.10857711  0.01167834  0.49183673  1
  O  O362  1  0.11132785  0.44100205  -0.02818630  1
  O  O363  1  0.10824573  0.49714570  0.50047995  1
  O  O364  1  0.67890004  -0.03354397  0.09123717  1
  O  O365  1  0.60685547  -0.00957537  0.50315081  1
  O  O366  1  0.62897775  0.50487832  0.00788593  1
  O  O367  1  0.62033029  0.49243839  0.49499816  1
  O  O368  1  0.38749258  0.34345982  0.12735015  1
  O  O369  1  0.39321763  0.36593592  0.60932604  1
  O  O370  1  0.36221713  0.87717171  0.12249509  1
  O  O371  1  0.36856437  0.85613701  0.63791004  1
  O  O372  1  0.88019125  0.37260539  0.10615017  1
  O  O373  1  0.87255147  0.36841482  0.61360222  1
  O  O374  1  0.87155685  0.87051252  0.11364066  1
  O  O375  1  0.85576290  0.86623829  0.59045125  1
  O  O376  1  0.12578046  0.13445731  0.38599782  1
  O  O377  1  0.21783985  0.11981201  0.94219873  1
  O  O378  1  0.11364970  0.63080143  0.36607793  1
  O  O379  1  0.12635651  0.66385932  0.88234504  1
  O  O380  1  0.64575267  0.11019588  0.37054233  1
  O  O381  1  0.64603553  0.11882335  0.85073701  1
  O  O382  1  0.62310060  0.63730153  0.37008017  1
  O  O383  1  0.61704918  0.62502991  0.88349936  1
