# generated using pymatgen
data_VZnO4
_symmetry_space_group_name_H-M   'P 1'
_cell_length_a   16.95497415
_cell_length_b   16.90213251
_cell_length_c   16.96390137
_cell_angle_alpha   89.86563769
_cell_angle_beta   89.94355247
_cell_angle_gamma   89.88006830
_symmetry_Int_Tables_number   1
_chemical_formula_structural   VZnO4
_chemical_formula_sum   'V64 Zn64 O256'
_cell_volume   4861.40741211
_cell_formula_units_Z   64
loop_
 _symmetry_equiv_pos_site_id
 _symmetry_equiv_pos_as_xyz
  1  'x, y, z'
loop_
 _atom_site_type_symbol
 _atom_site_label
 _atom_site_symmetry_multiplicity
 _atom_site_fract_x
 _atom_site_fract_y
 _atom_site_fract_z
 _atom_site_occupancy
  V  V0  1  0.86709849  0.86824766  0.00660779  1
  V  V1  1  0.50968006  0.87398009  0.88672993  1
  V  V2  1  0.75799098  0.25573946  -0.00799821  1
  V  V3  1  0.00078213  0.36758485  0.37403031  1
  V  V4  1  0.61459354  0.36694933  0.24865070  1
  V  V5  1  0.75880616  0.75780782  0.50903432  1
  V  V6  1  0.24882712  0.74562397  0.50508301  1
  V  V7  1  0.51318978  0.87880715  0.37127758  1
  V  V8  1  0.37145045  0.23437371  0.59270972  1
  V  V9  1  0.38080674  0.00064069  0.37550407  1
  V  V10  1  0.75419310  0.36567518  0.62456189  1
  V  V11  1  0.10761211  0.24798815  0.86819281  1
  V  V12  1  0.87579382  0.50474302  0.38744151  1
  V  V13  1  0.62681717  0.92004358  0.75650080  1
  V  V14  1  0.25754961  0.85591638  0.12619600  1
  V  V15  1  0.75176152  0.38565724  0.12241869  1
  V  V16  1  0.74906770  0.88702960  0.63436300  1
  V  V17  1  0.87456561  0.12383830  0.74027148  1
  V  V18  1  0.63224321  0.87966639  0.23818573  1
  V  V19  1  0.85710533  0.34929435  0.49047963  1
  V  V20  1  0.58123543  0.70181004  0.32257736  1
  V  V21  1  0.46753479  0.37643591  0.41481558  1
  V  V22  1  0.49819917  0.00889733  0.01672965  1
  V  V23  1  0.62678252  0.49797631  0.60575110  1
  V  V24  1  0.74610425  0.60499783  0.87820086  1
  V  V25  1  0.62550227  0.38595282  0.75391389  1
  V  V26  1  0.75771347  -0.00592334  0.21145968  1
  V  V27  1  0.10931179  0.01026130  0.62913481  1
  V  V28  1  0.49526286  0.24534968  0.73604020  1
  V  V29  1  0.60909516  0.57545602  0.00476081  1
  V  V30  1  0.61288369  0.25239802  0.88046114  1
  V  V31  1  0.11243488  0.62891083  0.02830644  1
  V  V32  1  0.75973391  0.63312464  0.38288650  1
  V  V33  1  0.87044144  0.11733765  0.25275512  1
  V  V34  1  0.12866280  -0.00569273  0.12589293  1
  V  V35  1  0.37476049  0.39174689  -0.00141924  1
  V  V36  1  0.24606168  0.37049075  0.60897296  1
  V  V37  1  0.12498783  0.72426437  0.38594643  1
  V  V38  1  0.37465971  0.01828383  0.87746756  1
  V  V39  1  0.11048261  0.87871484  0.75892549  1
  V  V40  1  0.21810565  0.49852626  0.24293353  1
  V  V41  1  0.85733365  0.00734415  0.87407699  1
  V  V42  1  0.38505385  0.86667663  0.50044401  1
  V  V43  1  0.25474887  0.00299565  0.25559562  1
  V  V44  1  -0.00178545  0.75142673  0.25050812  1
  V  V45  1  0.24773973  0.73875419  -0.02273909  1
  V  V46  1  0.39028245  0.14124050  0.24337014  1
  V  V47  1  0.04764370  0.56324275  0.57940695  1
  V  V48  1  -0.00781913  0.25654270  0.72464187  1
  V  V49  1  0.87744307  0.62975440  0.23853756  1
  V  V50  1  0.86701156  0.73873688  0.66287781  1
  V  V51  1  0.00137828  0.12398019  0.12333240  1
  V  V52  1  0.00258860  0.49322045  -0.01344478  1
  V  V53  1  0.00666845  -0.00855291  -0.01317358  1
  V  V54  1  0.23847359  0.36092110  0.12153636  1
  V  V55  1  0.21642971  0.49266701  0.75030326  1
  V  V56  1  0.00447954  0.25192712  0.25015170  1
  V  V57  1  0.87467982  0.25621882  0.12175896  1
  V  V58  1  0.11973179  0.88147554  0.27115499  1
  V  V59  1  0.74269530  0.50856692  0.24702977  1
  V  V60  1  0.61657195  0.63410902  0.50371811  1
  V  V61  1  0.13894938  0.13105107  -0.00281879  1
  V  V62  1  0.26604718  0.88423372  0.63663971  1
  V  V63  1  0.62761821  0.12733355  0.01949126  1
  Zn  Zn64  1  0.19201929  0.18664009  0.19219878  1
  Zn  Zn65  1  0.17051571  0.21359318  0.66168864  1
  Zn  Zn66  1  0.18416410  0.68176052  0.20253394  1
  Zn  Zn67  1  0.19315843  0.68426053  0.70687163  1
  Zn  Zn68  1  0.69542550  0.20194329  0.20567569  1
  Zn  Zn69  1  0.70691543  0.20173973  0.71158680  1
  Zn  Zn70  1  0.54661662  0.66216073  0.14847646  1
  Zn  Zn71  1  0.71819752  0.66370403  0.67916433  1
  Zn  Zn72  1  0.28412602  0.35627752  0.34011993  1
  Zn  Zn73  1  0.27593219  0.35324252  0.83271249  1
  Zn  Zn74  1  0.30275864  0.82003243  0.32348559  1
  Zn  Zn75  1  0.33510048  0.81081613  0.82683436  1
  Zn  Zn76  1  0.80439384  0.31197015  0.30889398  1
  Zn  Zn77  1  0.81420717  0.31023685  0.80281989  1
  Zn  Zn78  1  0.81123234  0.81599851  0.31351708  1
  Zn  Zn79  1  0.80178481  0.82756930  0.82851132  1
  Zn  Zn80  1  0.17280830  0.46085849  0.43763107  1
  Zn  Zn81  1  0.17833232  0.44182092  0.94212317  1
  Zn  Zn82  1  0.19844877  0.94570540  0.45135712  1
  Zn  Zn83  1  0.19579902  0.92988368  0.94095511  1
  Zn  Zn84  1  0.68598400  0.43761877  0.42923626  1
  Zn  Zn85  1  0.70264790  0.43590071  0.93049748  1
  Zn  Zn86  1  0.69559423  0.93603804  0.43619020  1
  Zn  Zn87  1  0.68978013  0.94389493  0.94860016  1
  Zn  Zn88  1  0.31532806  0.06180615  0.06811605  1
  Zn  Zn89  1  0.38085869  0.04383195  0.58826792  1
  Zn  Zn90  1  0.28788068  0.54945916  0.05309821  1
  Zn  Zn91  1  0.21648991  0.57208078  0.56890983  1
  Zn  Zn92  1  0.81970512  0.07107901  0.04803188  1
  Zn  Zn93  1  0.81415243  0.07389590  0.55589153  1
  Zn  Zn94  1  0.81537854  0.56955201  0.05834402  1
  Zn  Zn95  1  0.81346920  0.55790172  0.56902171  1
  Zn  Zn96  1  0.40288252  0.39657188  0.20241538  1
  Zn  Zn97  1  0.44319598  0.42236062  0.60370485  1
  Zn  Zn98  1  0.43989665  0.92615475  0.18704718  1
  Zn  Zn99  1  0.44451352  0.94438205  0.71162823  1
  Zn  Zn100  1  0.94196399  0.44313694  0.18343163  1
  Zn  Zn101  1  0.94830732  0.43808040  0.66114957  1
  Zn  Zn102  1  0.94437584  0.93265218  0.18401696  1
  Zn  Zn103  1  0.93216174  0.93303891  0.69655582  1
  Zn  Zn104  1  0.01473390  -0.06679264  0.51570837  1
  Zn  Zn105  1  0.06246040  0.07191434  0.80520494  1
  Zn  Zn106  1  0.05221379  0.55718955  0.31007193  1
  Zn  Zn107  1  0.01569275  0.54122077  0.78033456  1
  Zn  Zn108  1  0.56632328  0.06860520  0.19129149  1
  Zn  Zn109  1  0.55611954  0.07764986  0.83302027  1
  Zn  Zn110  1  0.51942141  0.51675135  0.27830181  1
  Zn  Zn111  1  0.59273147  0.59176747  0.79691837  1
  Zn  Zn112  1  0.45543056  0.19035943  0.40140094  1
  Zn  Zn113  1  0.39493104  0.22817039  0.88260919  1
  Zn  Zn114  1  0.40812904  0.66150863  0.51672840  1
  Zn  Zn115  1  0.45505475  0.70237163  1.00272277  1
  Zn  Zn116  1  0.93511831  0.17752809  0.43502376  1
  Zn  Zn117  1  0.94234500  0.18620497  0.93791603  1
  Zn  Zn118  1  0.96972128  0.73282274  0.48556179  1
  Zn  Zn119  1  0.92679616  0.67484923  0.93967506  1
  Zn  Zn120  1  0.06519340  0.31792369  0.06154447  1
  Zn  Zn121  1  0.05288394  0.34275978  0.56434872  1
  Zn  Zn122  1  0.06596906  0.80933545  0.06233791  1
  Zn  Zn123  1  0.06878666  0.77488575  0.62313450  1
  Zn  Zn124  1  0.57540277  0.36729071  0.04076693  1
  Zn  Zn125  1  0.57303111  0.29783320  0.56451915  1
  Zn  Zn126  1  0.57277082  0.81610891  0.05757569  1
  Zn  Zn127  1  0.55824371  0.94652460  0.56662380  1
  O  O128  1  0.12136896  0.11516426  0.11829011  1
  O  O129  1  0.13255969  0.10780137  0.63417773  1
  O  O130  1  0.11419894  0.62897736  0.12745347  1
  O  O131  1  0.11748113  0.62746879  0.62854504  1
  O  O132  1  0.63060884  0.14166014  0.12376425  1
  O  O133  1  0.67766940  0.16804103  0.53630719  1
  O  O134  1  0.63000408  0.60496954  0.10159673  1
  O  O135  1  0.63715195  0.60877359  0.61214566  1
  O  O136  1  0.36710778  0.36895437  0.41585765  1
  O  O137  1  0.34761468  0.32524871  0.91474067  1
  O  O138  1  0.38720853  0.87789906  0.37425281  1
  O  O139  1  0.40485920  0.88642219  0.87871378  1
  O  O140  1  0.86352021  0.38132412  0.37990887  1
  O  O141  1  0.87559339  0.40406772  0.85293841  1
  O  O142  1  0.85049666  0.90527631  0.38713584  1
  O  O143  1  0.87249562  0.89826962  0.88482398  1
  O  O144  1  0.26246344  -0.01202317  0.36285467  1
  O  O145  1  0.27953754  -0.00757070  0.90203214  1
  O  O146  1  0.23725313  0.46552637  0.34613914  1
  O  O147  1  0.24456512  0.47172105  0.85095492  1
  O  O148  1  0.80059166  -0.03425568  0.39381975  1
  O  O149  1  0.75914468  0.01275331  0.88395163  1
  O  O150  1  0.76153390  0.50985185  0.36685498  1
  O  O151  1  0.74904635  0.50564768  0.85714291  1
  O  O152  1  0.24079695  0.48722285  0.13672270  1
  O  O153  1  0.23326251  0.47985933  0.63390186  1
  O  O154  1  0.24421797  0.98715196  0.13479243  1
  O  O155  1  0.28503618  0.98241614  0.62180542  1
  O  O156  1  0.76587257  0.49008934  0.13260389  1
  O  O157  1  0.73954900  0.48180316  0.61815139  1
  O  O158  1  0.75873215  0.99381254  0.11406582  1
  O  O159  1  0.76748940  0.98235157  0.60745459  1
  O  O160  1  -0.01218766  0.36049403  0.25747332  1
  O  O161  1  -0.01254495  0.35794834  0.73659396  1
  O  O162  1  0.01214724  0.87032659  0.25789717  1
  O  O163  1  0.01071177  0.87421023  0.75734649  1
  O  O164  1  0.51819041  0.40564040  0.22413356  1
  O  O165  1  0.52742435  0.36043854  0.73898922  1
  O  O166  1  0.52155015  0.87745893  0.25500909  1
  O  O167  1  0.52295223  0.88219854  0.76943491  1
  O  O168  1  0.49184300  0.12727770  0.25133697  1
  O  O169  1  0.51152131  0.14761191  0.75564092  1
  O  O170  1  0.53239820  0.63473623  0.25981425  1
  O  O171  1  0.48722490  0.62542550  0.75635935  1
  O  O172  1  0.98535879  0.13184458  0.23392702  1
  O  O173  1  0.98530101  0.13952721  0.75552325  1
  O  O174  1  0.98670833  0.63793091  0.25805075  1
  O  O175  1  0.97676677  0.55041203  0.67572792  1
  O  O176  1  0.45093559  0.22951163  0.07525037  1
  O  O177  1  0.39346410  0.21447122  0.49774675  1
  O  O178  1  0.34619088  0.73004333  -0.00414066  1
  O  O179  1  0.36900226  0.76275412  0.48140732  1
  O  O180  1  0.86586900  0.24720584  0.00696121  1
  O  O181  1  0.85831283  0.24997084  0.48569321  1
  O  O182  1  0.89005202  0.77228122  -0.01573617  1
  O  O183  1  0.85955176  0.74822853  0.52470437  1
  O  O184  1  0.09587190  0.22368634  0.48919070  1
  O  O185  1  0.12004136  0.23282914  0.99802566  1
  O  O186  1  0.14271746  0.72964646  0.49444612  1
  O  O187  1  0.12984322  0.73652231  1.00219250  1
  O  O188  1  0.63723951  0.22472300  0.49646949  1
  O  O189  1  0.63648358  0.26322895  0.99182794  1
  O  O190  1  0.64347340  0.73230215  0.51098220  1
  O  O191  1  0.67354136  0.77107320  0.93651215  1
  O  O192  1  0.49766773  0.26464154  0.11786682  1
  O  O193  1  0.48794487  0.25024161  0.63002295  1
  O  O194  1  0.49635061  0.74763342  0.10006808  1
  O  O195  1  0.51381086  0.75715264  0.64217302  1
  O  O196  1  0.99332559  0.24672734  0.12796614  1
  O  O197  1  1.00027888  0.24988060  0.62587843  1
  O  O198  1  1.00906112  0.75673888  0.15273429  1
  O  O199  1  0.96525094  0.72923866  0.65689749  1
  O  O200  1  -0.01268198  0.25311099  0.35736113  1
  O  O201  1  0.00865994  0.26177976  0.88366293  1
  O  O202  1  0.02128951  0.74867193  0.37884914  1
  O  O203  1  0.00436901  0.71765212  0.84121699  1
  O  O204  1  0.50025259  0.28901349  0.37099847  1
  O  O205  1  0.51449709  0.26008239  0.87866148  1
  O  O206  1  0.51274106  0.76282641  0.36722688  1
  O  O207  1  0.51259996  0.77718124  0.90995915  1
  O  O208  1  0.24702123  0.21318698  0.41534254  1
  O  O209  1  0.23680083  0.12036524  1.00763217  1
  O  O210  1  0.28551617  0.64527674  0.51139847  1
  O  O211  1  0.22557021  0.63167134  0.99932191  1
  O  O212  1  0.73591384  0.13533968  0.49158665  1
  O  O213  1  0.74075344  0.14942173  1.00965868  1
  O  O214  1  0.74979474  0.62990315  0.49249042  1
  O  O215  1  0.73266704  0.59485053  0.98831183  1
  O  O216  1  0.24553521  0.38339332  0.01741600  1
  O  O217  1  0.23459841  0.39293132  0.51136633  1
  O  O218  1  0.23818172  0.84989049  0.01769318  1
  O  O219  1  0.26702313  0.86745063  0.50580216  1
  O  O220  1  0.75469594  0.36959313  0.01347398  1
  O  O221  1  0.75266701  0.37107306  0.50072535  1
  O  O222  1  0.76621426  0.87982275  0.00217786  1
  O  O223  1  0.73767458  0.86238543  0.51638391  1
  O  O224  1  0.11684403  0.49221995  0.24465495  1
  O  O225  1  0.11773113  0.49193776  0.75533296  1
  O  O226  1  0.13660074  0.98859305  0.24452584  1
  O  O227  1  0.11731544  0.99345877  0.74139144  1
  O  O228  1  0.64337148  0.51345337  0.24978539  1
  O  O229  1  0.62312524  0.48806551  0.74294546  1
  O  O230  1  0.64612062  0.99232596  0.23601499  1
  O  O231  1  0.62472930  1.01863726  0.75629709  1
  O  O232  1  0.36306502  -0.00895971  0.25444475  1
  O  O233  1  0.38026929  0.00887389  0.77751372  1
  O  O234  1  0.40708195  0.52335386  0.21898168  1
  O  O235  1  0.41457916  0.49246340  0.80298031  1
  O  O236  1  0.86895829  0.00597324  0.23499538  1
  O  O237  1  0.88117921  0.01143171  0.76665758  1
  O  O238  1  0.87182314  0.51724082  0.25376512  1
  O  O239  1  0.88315552  0.45927213  0.80355942  1
  O  O240  1  0.09682231  0.37661160  0.38859346  1
  O  O241  1  0.15920785  0.33442770  0.88230593  1
  O  O242  1  0.12715372  0.88945902  0.36959498  1
  O  O243  1  0.14206435  0.88054322  0.85365454  1
  O  O244  1  0.63123607  0.38298322  0.34825299  1
  O  O245  1  0.63731956  0.36694652  0.85964773  1
  O  O246  1  0.61715765  0.88752287  0.36767790  1
  O  O247  1  0.62496959  0.89842330  0.86493578  1
  O  O248  1  0.36890168  0.12144214  0.14610178  1
  O  O249  1  0.37005089  0.14389755  0.63842267  1
  O  O250  1  0.36688595  0.61210414  0.12339143  1
  O  O251  1  0.40575954  0.59772111  0.61844552  1
  O  O252  1  0.88524026  0.13427382  0.12057593  1
  O  O253  1  0.87361259  0.11901094  0.64080259  1
  O  O254  1  0.86649822  0.63533879  0.14150091  1
  O  O255  1  0.82924426  0.63890098  0.64636965  1
  O  O256  1  0.25058596  0.25890064  0.13047072  1
  O  O257  1  0.26532620  0.24823837  0.60139488  1
  O  O258  1  0.24552792  0.75711792  0.14273342  1
  O  O259  1  0.24754993  0.76515601  0.60808488  1
  O  O260  1  0.75938085  0.26388489  0.11948080  1
  O  O261  1  0.74589526  0.26382057  0.62437268  1
  O  O262  1  0.66346230  0.74911182  0.01128336  1
  O  O263  1  0.74533366  0.76501188  0.62311944  1
  O  O264  1  0.21895297  0.25805495  0.35300657  1
  O  O265  1  0.24845439  0.20845526  0.82617450  1
  O  O266  1  0.23196929  0.75929253  0.38841403  1
  O  O267  1  0.24777235  0.75348808  0.87810735  1
  O  O268  1  0.73618421  0.22701595  0.30993232  1
  O  O269  1  0.75521637  0.26351046  0.89041133  1
  O  O270  1  0.76456658  0.74722265  0.39627114  1
  O  O271  1  0.74152029  0.74579518  0.90329357  1
  O  O272  1  0.00964282  0.11422253  0.01026318  1
  O  O273  1  0.05351767  0.16329807  0.48104178  1
  O  O274  1  0.01207362  0.63152059  -0.00046970  1
  O  O275  1  -0.01311398  0.62119922  0.52303581  1
  O  O276  1  0.52008336  0.11512660  0.01163953  1
  O  O277  1  0.52685375  0.10427899  0.46916854  1
  O  O278  1  0.50927892  0.60119878  0.00157057  1
  O  O279  1  0.51648558  0.63541656  0.49632626  1
  O  O280  1  0.50404026  0.37437303  0.51380416  1
  O  O281  1  0.47490044  0.37640545  0.99519896  1
  O  O282  1  0.49575971  0.87665376  0.48208268  1
  O  O283  1  0.53334246  0.90386699  0.99396363  1
  O  O284  1  0.97212684  0.35347098  0.47743112  1
  O  O285  1  1.02219547  0.39317376  0.98903044  1
  O  O286  1  1.01916246  0.82469526  0.53534318  1
  O  O287  1  1.00686142  0.89001941  1.00197069  1
  O  O288  1  0.48969909  0.46897169  0.37536962  1
  O  O289  1  0.46687467  0.49062326  0.85281017  1
  O  O290  1  0.48537123  0.98300923  0.36098799  1
  O  O291  1  0.49594967  1.00337238  0.89608415  1
  O  O292  1  0.98007771  0.48139719  0.36582284  1
  O  O293  1  0.99810496  0.51763875  0.88718106  1
  O  O294  1  0.94821601  1.00882607  0.45459133  1
  O  O295  1  1.01113170  1.00348642  0.88858747  1
  O  O296  1  0.01263248  0.00640296  0.12058582  1
  O  O297  1  0.00629417  -0.00844987  0.62506332  1
  O  O298  1  -0.00890005  0.50410894  0.10370537  1
  O  O299  1  0.02949994  0.45557073  0.57789697  1
  O  O300  1  0.50656869  -0.00480405  0.12148499  1
  O  O301  1  0.47951577  0.00023167  0.62240388  1
  O  O302  1  0.42520530  0.56562373  0.14838191  1
  O  O303  1  0.52813916  0.49258858  0.62370289  1
  O  O304  1  0.28580619  0.38868897  0.22890269  1
  O  O305  1  0.25305210  0.38436916  0.72795792  1
  O  O306  1  0.23631850  0.87740209  0.24528908  1
  O  O307  1  0.29410058  0.86077367  0.73051508  1
  O  O308  1  0.74206326  0.38858097  0.23902083  1
  O  O309  1  0.74249392  0.36989560  0.73397652  1
  O  O310  1  0.74614011  0.88957956  0.25410822  1
  O  O311  1  0.73088860  0.88167718  0.74751930  1
  O  O312  1  0.25138418  0.10465268  0.25047390  1
  O  O313  1  0.25212060  0.16900129  0.76290697  1
  O  O314  1  0.23949934  0.59741456  0.25187518  1
  O  O315  1  0.24697539  0.59325413  0.74009621  1
  O  O316  1  0.76273787  0.10201409  0.23091994  1
  O  O317  1  0.77359526  0.13226139  0.76234064  1
  O  O318  1  0.76907154  0.62810734  0.26835254  1
  O  O319  1  0.69821444  0.64246936  0.78473262  1
  O  O320  1  0.38299244  0.10458019  0.36037964  1
  O  O321  1  0.38212140  0.11911205  0.89474968  1
  O  O322  1  0.37271869  0.66385040  0.31662386  1
  O  O323  1  0.45260239  0.68092425  0.80347839  1
  O  O324  1  0.87547027  0.12234226  0.35002159  1
  O  O325  1  0.88306053  0.10942989  0.88249447  1
  O  O326  1  0.87377121  0.61072541  0.37933877  1
  O  O327  1  0.84409803  0.63161992  0.87756178  1
  O  O328  1  0.13759449  0.36473975  0.13511854  1
  O  O329  1  0.14810017  0.32590495  0.62305104  1
  O  O330  1  0.13025723  0.88269938  0.13379782  1
  O  O331  1  0.15813777  0.90084966  0.64719483  1
  O  O332  1  0.64614242  0.37795490  0.13174415  1
  O  O333  1  0.63795174  0.37899432  0.62538500  1
  O  O334  1  0.63419686  0.86338207  0.14194225  1
  O  O335  1  0.63394085  0.89936637  0.64382468  1
  O  O336  1  0.10184822  0.23723759  0.24480258  1
  O  O337  1  0.10125637  0.23902659  0.76142670  1
  O  O338  1  0.11886120  0.76085744  0.26948276  1
  O  O339  1  0.12925382  0.77603782  0.72197628  1
  O  O340  1  0.60332063  0.26955899  0.23682837  1
  O  O341  1  0.62357794  0.25364686  0.76563383  1
  O  O342  1  0.63903014  0.76398068  0.26731320  1
  O  O343  1  0.56978551  0.74220941  0.68605007  1
  O  O344  1  0.37405907  0.23666058  0.26136453  1
  O  O345  1  0.40137659  0.26198270  0.76620705  1
  O  O346  1  0.36707330  0.72115716  0.27031285  1
  O  O347  1  0.39132534  0.71664472  0.76919487  1
  O  O348  1  0.87964076  0.23514390  0.23526360  1
  O  O349  1  0.88503302  0.24002864  0.75183063  1
  O  O350  1  0.88916227  0.74603018  0.26544465  1
  O  O351  1  0.84778539  0.74906453  0.76091731  1
  O  O352  1  0.37471469  0.53024897  0.60005162  1
  O  O353  1  0.35952770  0.49096195  0.98517486  1
  O  O354  1  0.37304869  0.98639007  0.48037403  1
  O  O355  1  0.39640111  1.00352626  1.00913855  1
  O  O356  1  0.86896531  0.49289617  0.48762513  1
  O  O357  1  0.89964568  0.50761016  1.01271029  1
  O  O358  1  0.91949689  1.07204410  0.49569020  1
  O  O359  1  0.89218045  0.99685538  0.99199168  1
  O  O360  1  0.12185552  0.00531517  0.00659567  1
  O  O361  1  0.12338411  -0.01194786  0.52340817  1
  O  O362  1  0.11566953  0.52324020  -0.00487540  1
  O  O363  1  0.12615657  0.53885114  0.50342066  1
  O  O364  1  0.63563709  0.02609029  0.00954010  1
  O  O365  1  0.62484257  0.01043661  0.49164625  1
  O  O366  1  0.61495304  0.47085341  -0.00203865  1
  O  O367  1  0.63131740  0.51203641  0.50024375  1
  O  O368  1  0.36398661  0.36701765  0.09987060  1
  O  O369  1  0.35973303  0.35085477  0.61178625  1
  O  O370  1  0.35609137  0.87048889  0.13466724  1
  O  O371  1  0.38617290  0.86522589  0.60137137  1
  O  O372  1  0.86630173  0.36434505  0.13631497  1
  O  O373  1  0.86275749  0.37657380  0.60191038  1
  O  O374  1  0.88629853  0.87619108  0.10662712  1
  O  O375  1  0.85495306  0.85966758  0.64858821  1
  O  O376  1  0.21554734  0.14582584  0.42441850  1
  O  O377  1  0.12277267  0.13462367  0.88813129  1
  O  O378  1  0.12575954  0.62724266  0.36770110  1
  O  O379  1  0.05477764  0.66892221  0.81669940  1
  O  O380  1  0.58616353  0.06943501  0.43683659  1
  O  O381  1  0.62615106  0.14812627  0.89762903  1
  O  O382  1  0.63892916  0.63716201  0.38653183  1
  O  O383  1  0.62454077  0.61247028  0.90392183  1
