# generated using pymatgen
data_VZnO4
_symmetry_space_group_name_H-M   'P 1'
_cell_length_a   16.98075019
_cell_length_b   16.94730057
_cell_length_c   16.98588475
_cell_angle_alpha   90.36834236
_cell_angle_beta   91.28718774
_cell_angle_gamma   89.94263692
_symmetry_Int_Tables_number   1
_chemical_formula_structural   VZnO4
_chemical_formula_sum   'V64 Zn64 O256'
_cell_volume   4886.82558743
_cell_formula_units_Z   64
loop_
 _symmetry_equiv_pos_site_id
 _symmetry_equiv_pos_as_xyz
  1  'x, y, z'
loop_
 _atom_site_type_symbol
 _atom_site_label
 _atom_site_symmetry_multiplicity
 _atom_site_fract_x
 _atom_site_fract_y
 _atom_site_fract_z
 _atom_site_occupancy
  V  V0  1  0.24701157  0.01016082  0.75004347  1
  V  V1  1  0.88622871  0.36727113  0.50730955  1
  V  V2  1  0.38544001  -0.00430875  0.37506152  1
  V  V3  1  0.75118947  0.38022849  0.14223966  1
  V  V4  1  0.26809715  0.37666646  0.63909460  1
  V  V5  1  0.00198073  0.23186300  0.25829879  1
  V  V6  1  0.75236305  0.36778347  0.62622851  1
  V  V7  1  0.37490692  0.36075732  0.50428832  1
  V  V8  1  0.76438997  0.12755719  0.38442540  1
  V  V9  1  0.01497750  0.88387906  0.90554479  1
  V  V10  1  0.37613461  0.37857161  0.00342605  1
  V  V11  1  0.62456941  -0.00177692  0.61410961  1
  V  V12  1  0.87932224  0.61326456  0.24987503  1
  V  V13  1  0.50478895  0.60464047  0.12424722  1
  V  V14  1  0.37871462  0.75373322  0.63008108  1
  V  V15  1  -0.01588954  0.37438458  0.90033369  1
  V  V16  1  0.73510305  0.87630241  0.13633536  1
  V  V17  1  -0.02509918  0.62751019  0.60206181  1
  V  V18  1  0.00921669  0.11010532  0.11062336  1
  V  V19  1  0.61764695  0.37463795  0.25370810  1
  V  V20  1  0.38577227  0.48298538  0.36891302  1
  V  V21  1  0.34573886  0.85148975  0.00114428  1
  V  V22  1  0.15414527  0.61632189  0.49580337  1
  V  V23  1  0.13446815  0.24958800  0.38660561  1
  V  V24  1  0.51921097  0.12022419  0.13621044  1
  V  V25  1  0.86776940  0.00009896  0.87960714  1
  V  V26  1  0.86572874  0.87570630  0.01133226  1
  V  V27  1  0.88962943  -0.00674849  0.37426809  1
  V  V28  1  0.74444010  0.24404110  0.01443414  1
  V  V29  1  0.87091818  0.74570055  0.13159476  1
  V  V30  1  0.88337936  0.49651619  0.38630601  1
  V  V31  1  0.11063966  0.24197840  0.87382941  1
  V  V32  1  0.51621085  0.49496574  0.49941903  1
  V  V33  1  0.25065820  0.12705882  0.38853071  1
  V  V34  1  0.10825036  0.38042116  0.73459650  1
  V  V35  1  0.35872459  0.11650870  0.24384670  1
  V  V36  1  0.37341533  0.03760424  0.87021169  1
  V  V37  1  0.87970911  0.23861212  0.12461840  1
  V  V38  1  0.61257301  0.24673580  0.37111117  1
  V  V39  1  0.62088791  0.12819049  0.50219044  1
  V  V40  1  0.50278496  -0.00346683  -0.00925731  1
  V  V41  1  0.11829162  0.37558590  0.25206088  1
  V  V42  1  0.54783103  0.43981439  -0.04526581  1
  V  V43  1  0.11567570  0.76665899  0.38868904  1
  V  V44  1  0.37195068  0.23893941  0.12275700  1
  V  V45  1  0.62998813  0.12305552  -0.02339230  1
  V  V46  1  -0.00190311  0.77012602  0.26161566  1
  V  V47  1  0.74739286  0.86165171  0.62870549  1
  V  V48  1  0.61367773  0.63182730  -0.01375603  1
  V  V49  1  0.73682942  0.61464305  0.36260446  1
  V  V50  1  0.50103149  0.76052190  0.24091074  1
  V  V51  1  0.13313748  0.87282130  0.72796850  1
  V  V52  1  0.00765376  0.74379029  0.75650862  1
  V  V53  1  0.39519742  0.85855532  0.47555473  1
  V  V54  1  0.24231668  0.36393780  0.12070212  1
  V  V55  1  0.63445034  0.50561512  0.64653210  1
  V  V56  1  0.24979156  0.87577519  0.57778558  1
  V  V57  1  0.73773649  -0.00028955  0.25540408  1
  V  V58  1  0.25026650  0.49193593  0.25162439  1
  V  V59  1  0.88152609  0.87069646  0.49806098  1
  V  V60  1  0.37503690  0.62931760  0.24975200  1
  V  V61  1  0.74998700  0.00757610  0.75296285  1
  V  V62  1  0.61874212  0.77038851  0.36606447  1
  V  V63  1  0.74310900  0.74652368  0.49461796  1
  Zn  Zn64  1  0.18219327  0.18616144  0.18623302  1
  Zn  Zn65  1  0.20909575  0.21388796  0.72153684  1
  Zn  Zn66  1  0.19197050  0.66655083  0.29467267  1
  Zn  Zn67  1  0.19783574  0.69560332  0.68049900  1
  Zn  Zn68  1  0.69661357  0.18311569  0.20111945  1
  Zn  Zn69  1  0.73323620  0.17130550  0.66361039  1
  Zn  Zn70  1  0.68505662  0.68512236  0.18408695  1
  Zn  Zn71  1  0.50504126  0.63125251  0.62681712  1
  Zn  Zn72  1  0.31618283  0.30216886  0.30398420  1
  Zn  Zn73  1  0.28191727  0.33042137  0.83655790  1
  Zn  Zn74  1  0.30457028  0.81448004  0.30479467  1
  Zn  Zn75  1  0.40363292  0.85095316  0.80313088  1
  Zn  Zn76  1  0.81942437  0.31021010  0.31738094  1
  Zn  Zn77  1  0.80367770  0.44738013  0.80937519  1
  Zn  Zn78  1  0.80972118  0.81232245  0.31482662  1
  Zn  Zn79  1  0.81928160  0.80799419  0.81544001  1
  Zn  Zn80  1  0.19707284  0.43397781  0.43443467  1
  Zn  Zn81  1  0.12290776  0.48571868  0.88037111  1
  Zn  Zn82  1  0.18137266  0.95259259  0.42179681  1
  Zn  Zn83  1  0.22494650  0.90809110  0.90159263  1
  Zn  Zn84  1  0.69900626  0.42722492  0.43475751  1
  Zn  Zn85  1  0.70747529  0.44376293  0.96891758  1
  Zn  Zn86  1  0.69132321  0.93785078  0.43642530  1
  Zn  Zn87  1  0.69570676  0.94147328  0.94855898  1
  Zn  Zn88  1  0.32254927  0.02806692  0.07017191  1
  Zn  Zn89  1  0.29216668  0.04588860  0.55294875  1
  Zn  Zn90  1  0.31521148  0.54981975  0.07893114  1
  Zn  Zn91  1  0.32004635  0.55742123  0.54816804  1
  Zn  Zn92  1  0.81303770  0.06044904  0.07179619  1
  Zn  Zn93  1  0.81048461  0.04571837  0.55709432  1
  Zn  Zn94  1  0.79774651  0.60291506  -0.06289614  1
  Zn  Zn95  1  0.79677729  0.56463502  0.55665406  1
  Zn  Zn96  1  0.43889795  0.42516104  0.18968805  1
  Zn  Zn97  1  0.36044726  0.55367393  0.70903039  1
  Zn  Zn98  1  0.43321220  0.94246903  0.17561798  1
  Zn  Zn99  1  0.41884568  0.96898867  0.66292355  1
  Zn  Zn100  1  0.92681018  0.42616380  0.19646400  1
  Zn  Zn101  1  0.92514041  0.46092673  0.68048918  1
  Zn  Zn102  1  0.93320399  0.94323628  0.19329248  1
  Zn  Zn103  1  0.91874179  0.89369432  0.70653023  1
  Zn  Zn104  1  0.07285266  0.05553722  0.31295455  1
  Zn  Zn105  1  0.05242372  0.04987267  0.79949949  1
  Zn  Zn106  1  0.05939979  0.56001879  0.31877821  1
  Zn  Zn107  1  -0.05716339  0.55974806  0.83541052  1
  Zn  Zn108  1  0.56462888  0.06357759  0.31629657  1
  Zn  Zn109  1  0.55063254  -0.03735147  0.79211821  1
  Zn  Zn110  1  0.55935506  0.55606465  0.30462429  1
  Zn  Zn111  1  0.54030883  0.54970314  0.80287737  1
  Zn  Zn112  1  0.43995084  0.17995191  0.43802030  1
  Zn  Zn113  1  0.44426476  0.19244510  0.94462025  1
  Zn  Zn114  1  0.44861355  0.67283504  0.42852302  1
  Zn  Zn115  1  0.42666088  0.67463355  0.94902833  1
  Zn  Zn116  1  0.94665553  0.18536102  0.44386470  1
  Zn  Zn117  1  0.93422433  0.18911033  0.93187365  1
  Zn  Zn118  1  0.92853639  0.68929100  0.42982395  1
  Zn  Zn119  1  0.96259833  0.70983060  0.95405647  1
  Zn  Zn120  1  0.06341034  0.29949044  0.05858747  1
  Zn  Zn121  1  0.07033154  0.45469548  0.56741250  1
  Zn  Zn122  1  0.05769664  0.81282699  0.08287765  1
  Zn  Zn123  1  0.06394853  0.79218352  0.56606433  1
  Zn  Zn124  1  0.56292480  0.30022619  0.07687897  1
  Zn  Zn125  1  0.56866865  0.32093730  0.55503200  1
  Zn  Zn126  1  0.55200784  0.80748598  0.06384063  1
  Zn  Zn127  1  0.56326039  0.81013532  0.55873855  1
  O  O128  1  0.10922616  0.12809374  0.12248208  1
  O  O129  1  0.10760530  0.11401784  0.60015987  1
  O  O130  1  0.13941199  0.65082789  0.10914880  1
  O  O131  1  0.14922084  0.62895133  0.59819080  1
  O  O132  1  0.61867576  0.12235745  0.13675593  1
  O  O133  1  0.64559132  0.11371466  0.60959613  1
  O  O134  1  0.60779012  0.62607718  0.12246179  1
  O  O135  1  0.61998279  0.60470633  0.62983543  1
  O  O136  1  0.37331210  0.38008989  0.36920374  1
  O  O137  1  0.36449802  0.36200599  0.90497813  1
  O  O138  1  0.37198926  0.88583826  0.36547425  1
  O  O139  1  0.36372979  0.88382718  0.90227832  1
  O  O140  1  0.86842806  0.38972241  0.38689825  1
  O  O141  1  0.88901140  0.38092811  0.86831266  1
  O  O142  1  0.87457826  0.88198190  0.38590516  1
  O  O143  1  0.86778896  0.87058436  0.89960045  1
  O  O144  1  0.26645907  0.02191572  0.37427619  1
  O  O145  1  0.26239435  0.01371370  0.86349522  1
  O  O146  1  0.26385873  0.49267849  0.35780842  1
  O  O147  1  0.13934631  0.62339839  0.87466183  1
  O  O148  1  0.75724175  0.00390197  0.36920225  1
  O  O149  1  0.75375788  -0.00876628  0.86296971  1
  O  O150  1  0.75622073  0.51350818  0.37422826  1
  O  O151  1  0.76570393  0.50176776  0.89901234  1
  O  O152  1  0.25357907  0.47584458  0.14057349  1
  O  O153  1  0.29490118  0.49536364  0.63733387  1
  O  O154  1  0.21244510  1.01131076  0.03007817  1
  O  O155  1  0.26880363  0.94859393  0.66783777  1
  O  O156  1  0.75551102  0.47474297  0.12712548  1
  O  O157  1  0.73758856  0.49911045  0.62182028  1
  O  O158  1  0.75453611  0.99077303  0.14505568  1
  O  O159  1  0.74937987  0.98494957  0.63774980  1
  O  O160  1  0.01521518  0.36800755  0.24327490  1
  O  O161  1  0.01148044  0.39724276  0.72073327  1
  O  O162  1  -0.00244939  0.86931644  0.25772574  1
  O  O163  1  0.02826329  0.87742817  0.74443725  1
  O  O164  1  0.51820572  0.36150439  0.24264157  1
  O  O165  1  0.52167684  0.33150140  0.77098473  1
  O  O166  1  0.48407037  0.85884586  0.23529020  1
  O  O167  1  0.47526135  0.90049181  0.73525342  1
  O  O168  1  0.49400999  0.11193182  0.23502871  1
  O  O169  1  0.46857356  0.16363220  0.70682451  1
  O  O170  1  0.49109703  0.62805727  0.24167766  1
  O  O171  1  0.53045646  0.72677843  0.81037296  1
  O  O172  1  1.01151001  0.13069271  0.24487924  1
  O  O173  1  0.97667649  0.10756182  0.71861404  1
  O  O174  1  0.98067672  0.62532948  0.25330008  1
  O  O175  1  1.00415105  0.64928947  0.78153581  1
  O  O176  1  0.37688917  0.25015675  0.01735686  1
  O  O177  1  0.37914817  0.26302742  0.48157553  1
  O  O178  1  0.38650931  0.75975433  0.01142691  1
  O  O179  1  0.38480958  0.75736692  0.47173384  1
  O  O180  1  0.86158761  0.23811571  0.01816357  1
  O  O181  1  0.89058313  0.26713928  0.49564824  1
  O  O182  1  0.87733758  0.75916373  0.02600181  1
  O  O183  1  0.85265147  0.76072962  0.48028524  1
  O  O184  1  0.13031085  0.26039707  0.48067547  1
  O  O185  1  0.12023186  0.24781110  0.97458890  1
  O  O186  1  0.12252878  0.73073817  0.48886038  1
  O  O187  1  0.08000711  0.64239219  1.06521062  1
  O  O188  1  0.62799814  0.23678381  0.48851089  1
  O  O189  1  0.63657922  0.23305459  1.01190063  1
  O  O190  1  0.63231899  0.75492200  0.47842950  1
  O  O191  1  0.58965080  0.73170702  0.99175923  1
  O  O192  1  0.48938988  0.22324715  0.12265273  1
  O  O193  1  0.49291606  0.25451352  0.61702027  1
  O  O194  1  0.49861315  0.73687417  0.14015051  1
  O  O195  1  0.48530101  0.74929183  0.61302819  1
  O  O196  1  0.99148283  0.24016582  0.13400380  1
  O  O197  1  1.05512212  0.15340779  0.56403616  1
  O  O198  1  0.97946775  0.75721104  0.14913937  1
  O  O199  1  1.00998387  0.72374527  0.64374756  1
  O  O200  1  0.01794910  0.23642802  0.36445700  1
  O  O201  1  -0.00598505  0.26332204  0.87262404  1
  O  O202  1  0.00191018  0.75098360  0.36928766  1
  O  O203  1  0.01082106  0.78320459  0.86990967  1
  O  O204  1  0.51467889  0.23955356  0.37130161  1
  O  O205  1  0.51697642  0.24632736  0.87107600  1
  O  O206  1  0.51449273  0.74216135  0.35972160  1
  O  O207  1  0.48201752  0.75243623  0.85968347  1
  O  O208  1  0.26248926  0.13562208  0.48621847  1
  O  O209  1  0.24420309  0.13442311  0.99327925  1
  O  O210  1  0.25126660  0.61828932  0.47881167  1
  O  O211  1  0.23009345  0.57348217  0.98988061  1
  O  O212  1  0.74634446  0.11626565  0.48816749  1
  O  O213  1  0.73757992  0.12701626  1.00884885  1
  O  O214  1  0.75138997  0.64071044  0.47711740  1
  O  O215  1  0.71464482  0.63506857  1.00036000  1
  O  O216  1  0.25985452  0.36995895  0.02194982  1
  O  O217  1  0.26907378  0.38479949  0.50840762  1
  O  O218  1  0.24631507  0.83970066  -0.00684831  1
  O  O219  1  0.26527157  0.85247761  0.48130565  1
  O  O220  1  0.74126485  0.35022243  0.02893009  1
  O  O221  1  0.77129484  0.38244209  0.50817062  1
  O  O222  1  0.75501075  0.87945780  0.02477995  1
  O  O223  1  0.75517469  0.86459153  0.50099120  1
  O  O224  1  0.13066173  0.48291382  0.25754184  1
  O  O225  1  0.16159516  0.45962316  0.78068814  1
  O  O226  1  0.14303153  0.97030277  0.31502793  1
  O  O227  1  0.13594099  0.98696980  0.74894029  1
  O  O228  1  0.62575920  0.47396577  0.26236958  1
  O  O229  1  0.62602455  0.49544756  0.74541307  1
  O  O230  1  0.63852387  0.99825068  0.25905529  1
  O  O231  1  0.64306168  0.99629320  0.73539059  1
  O  O232  1  0.37438906  0.00998305  0.25214011  1
  O  O233  1  0.36522028  0.00738921  0.76907523  1
  O  O234  1  0.37097751  0.49502318  0.25499106  1
  O  O235  1  0.46484369  0.58883521  0.72663917  1
  O  O236  1  0.86584079  -0.00716153  0.27156259  1
  O  O237  1  0.85655632  -0.02706725  0.76617131  1
  O  O238  1  0.87336814  0.50870295  0.25524551  1
  O  O239  1  0.87249661  0.52056122  0.75648105  1
  O  O240  1  0.13595325  0.36103264  0.35937974  1
  O  O241  1  0.09417494  0.35973674  0.86187660  1
  O  O242  1  0.10630970  0.86159815  0.41338370  1
  O  O243  1  0.10976784  0.90617703  0.91205802  1
  O  O244  1  0.63619993  0.35282232  0.36783309  1
  O  O245  1  0.61605019  0.38144046  0.91348652  1
  O  O246  1  0.62249152  0.86889029  0.36952975  1
  O  O247  1  0.66010627  0.84266156  0.88619093  1
  O  O248  1  0.36491376  0.11943231  0.13355753  1
  O  O249  1  0.38048049  0.06312723  0.61629363  1
  O  O250  1  0.38505272  0.61619874  0.14007864  1
  O  O251  1  0.36070219  0.65292469  0.61199977  1
  O  O252  1  0.88517792  0.13293454  0.13328959  1
  O  O253  1  0.88103427  0.11623613  0.62391707  1
  O  O254  1  0.86321464  0.64262467  0.14261572  1
  O  O255  1  0.87625074  0.63032730  0.61025255  1
  O  O256  1  0.25759125  0.25585112  0.13327881  1
  O  O257  1  0.25124157  0.27654026  0.63515116  1
  O  O258  1  0.19822766  0.83074503  0.17214460  1
  O  O259  1  0.26142408  0.77465836  0.62021506  1
  O  O260  1  0.76435317  0.23666754  0.12745807  1
  O  O261  1  0.75174549  0.26598079  0.61828423  1
  O  O262  1  0.76153557  0.76656556  0.14461602  1
  O  O263  1  0.73909664  0.75605978  0.59972114  1
  O  O264  1  0.24300186  0.23851496  0.36451670  1
  O  O265  1  0.21713244  0.24208218  0.84365954  1
  O  O266  1  0.21781215  0.76327066  0.35510079  1
  O  O267  1  0.30268184  0.66635205  0.82721143  1
  O  O268  1  0.76019164  0.22825464  0.37235137  1
  O  O269  1  0.75288795  0.25493662  0.90193662  1
  O  O270  1  0.73183079  0.74634807  0.37173218  1
  O  O271  1  0.74953203  0.70702970  0.83195784  1
  O  O272  1  -0.00984264  0.12448800  0.01288379  1
  O  O273  1  0.01553637  0.11207429  0.50381444  1
  O  O274  1  0.06293224  0.71715467  0.01290992  1
  O  O275  1  -0.00323813  0.63418437  0.50435827  1
  O  O276  1  0.52126069  0.12266427  0.00376875  1
  O  O277  1  0.52165752  0.12166942  0.49746216  1
  O  O278  1  0.49085455  0.61224253  0.01892088  1
  O  O279  1  0.49151509  0.60018321  0.50557367  1
  O  O280  1  0.48771201  0.38349210  0.49426251  1
  O  O281  1  0.48932416  0.37036024  1.01646560  1
  O  O282  1  0.49308483  0.87175848  0.48740822  1
  O  O283  1  0.50516282  0.89716447  1.00372537  1
  O  O284  1  0.98395009  0.39508331  0.51551506  1
  O  O285  1  0.98797726  0.36555290  1.00145384  1
  O  O286  1  0.97736074  0.85287825  0.51903162  1
  O  O287  1  0.98833121  0.87577378  1.00670281  1
  O  O288  1  0.48876466  0.49490383  0.37138461  1
  O  O289  1  0.49209788  0.48134538  0.88226582  1
  O  O290  1  0.48437018  1.00801338  0.37027605  1
  O  O291  1  0.48818438  1.00604609  0.87933778  1
  O  O292  1  0.98184072  0.50101684  0.37352095  1
  O  O293  1  1.01016905  0.48279998  0.88919659  1
  O  O294  1  0.98706292  1.00731264  0.37607182  1
  O  O295  1  0.97824903  0.97796790  0.86414915  1
  O  O296  1  -0.00586043  0.01162511  0.13036334  1
  O  O297  1  -0.06416306  0.06888855  0.66332120  1
  O  O298  1  -0.00785596  0.49667110  0.11413241  1
  O  O299  1  0.00653373  0.53272118  0.63039722  1
  O  O300  1  0.49316352  0.01690769  0.10433537  1
  O  O301  1  0.52874208  -0.00046793  0.62225703  1
  O  O302  1  0.50209194  0.50604182  0.13912348  1
  O  O303  1  0.52899088  0.48537441  0.60201313  1
  O  O304  1  0.24041424  0.37302142  0.24309499  1
  O  O305  1  0.29001589  0.38215846  0.73855083  1
  O  O306  1  0.24886219  0.87515787  0.21409374  1
  O  O307  1  0.21752596  0.86906823  0.78883052  1
  O  O308  1  0.74542311  0.36424897  0.24733064  1
  O  O309  1  0.76193738  0.38117379  0.72608354  1
  O  O310  1  0.75024508  0.88573498  0.24604027  1
  O  O311  1  0.75140873  0.85461331  0.72980232  1
  O  O312  1  0.25764449  0.12208133  0.25043689  1
  O  O313  1  0.23824276  0.10395155  0.71947694  1
  O  O314  1  0.26614427  0.60901075  0.23699523  1
  O  O315  1  0.27353312  0.62896523  0.75861251  1
  O  O316  1  0.75352605  0.10821849  0.26806488  1
  O  O317  1  0.76161996  0.10629766  0.74932583  1
  O  O318  1  0.75879080  0.63146700  0.25935489  1
  O  O319  1  0.69891694  0.69275233  0.77817507  1
  O  O320  1  0.37040066  0.12060178  0.36182588  1
  O  O321  1  0.37724948  0.13648619  0.86443770  1
  O  O322  1  0.38161874  0.60624872  0.35379691  1
  O  O323  1  0.35713816  0.62034242  0.86422835  1
  O  O324  1  0.86961555  0.10876272  0.39236538  1
  O  O325  1  0.87972893  0.09754655  0.87969378  1
  O  O326  1  0.86497525  0.61657405  0.36260137  1
  O  O327  1  0.89818229  0.63265204  0.90960439  1
  O  O328  1  0.13544573  0.36048051  0.13402347  1
  O  O329  1  0.15250753  0.40002546  0.63590648  1
  O  O330  1  0.14392344  0.87552412  0.13175687  1
  O  O331  1  0.14111163  0.86342702  0.62228659  1
  O  O332  1  0.63927597  0.35592197  0.14511248  1
  O  O333  1  0.64464860  0.38630688  0.61089657  1
  O  O334  1  0.63745614  0.86691270  0.12311339  1
  O  O335  1  0.63974722  0.88483262  0.60966115  1
  O  O336  1  0.11451492  0.25692828  0.25215826  1
  O  O337  1  0.11433941  0.27543612  0.74013632  1
  O  O338  1  0.09927032  0.74422611  0.26265429  1
  O  O339  1  0.12024283  0.76091136  0.74378606  1
  O  O340  1  0.63046090  0.24444676  0.26810402  1
  O  O341  1  0.52116489  0.19804079  0.66812487  1
  O  O342  1  0.61174516  0.75202296  0.25434990  1
  O  O343  1  0.61255729  0.85313204  0.82709178  1
  O  O344  1  0.37672217  0.22742682  0.23850473  1
  O  O345  1  0.47785043  0.29538637  0.81742300  1
  O  O346  1  0.38131640  0.73445459  0.25870151  1
  O  O347  1  0.37512851  0.76655951  0.72834930  1
  O  O348  1  0.89788974  0.25073265  0.25063220  1
  O  O349  1  0.81071590  0.23789103  0.85847763  1
  O  O350  1  0.88218406  0.74502200  0.25417186  1
  O  O351  1  0.90809364  0.77982782  0.74929442  1
  O  O352  1  0.38438220  0.48880976  0.47797851  1
  O  O353  1  0.37391213  0.47805466  1.01252373  1
  O  O354  1  0.37487974  0.98308764  0.47688055  1
  O  O355  1  0.39338878  1.02657539  0.97957634  1
  O  O356  1  0.87239817  0.50957239  0.48572580  1
  O  O357  1  0.95413539  0.52602772  1.05749998  1
  O  O358  1  0.87371261  0.97996542  0.49046758  1
  O  O359  1  0.86119474  0.98918416  0.99048774  1
  O  O360  1  0.19207043  0.08072557  -0.01047383  1
  O  O361  1  0.20634915  -0.02724948  0.53341925  1
  O  O362  1  0.17717572  0.51787812  -0.01728900  1
  O  O363  1  0.12993084  0.51114559  0.48731217  1
  O  O364  1  0.61505208  0.01100053  -0.01327251  1
  O  O365  1  0.63521539  0.00902698  0.50645917  1
  O  O366  1  0.61014979  0.50811874  0.00536022  1
  O  O367  1  0.61144176  0.49231742  0.47161743  1
  O  O368  1  0.36799585  0.35710749  0.12680806  1
  O  O369  1  0.37813316  0.36488756  0.60587196  1
  O  O370  1  0.35840140  0.91461723  0.08831704  1
  O  O371  1  0.36926649  0.86734246  0.58773608  1
  O  O372  1  0.86169628  0.35189948  0.13863599  1
  O  O373  1  0.86693142  0.38679629  0.61299628  1
  O  O374  1  0.86618315  0.87154050  0.12599332  1
  O  O375  1  0.85568319  0.87528383  0.61000500  1
  O  O376  1  0.14224607  0.13420539  0.37452292  1
  O  O377  1  0.08973963  0.14419107  0.84911667  1
  O  O378  1  0.12288574  0.63241863  0.38018379  1
  O  O379  1  0.18636973  0.66034844  0.91814244  1
  O  O380  1  0.63692300  0.12997506  0.38446193  1
  O  O381  1  0.63117181  0.13228291  0.88229369  1
  O  O382  1  0.63610972  0.62450579  0.35963962  1
  O  O383  1  0.59435255  0.61390138  0.88807993  1
