# generated using pymatgen
data_VZnO4
_symmetry_space_group_name_H-M   'P 1'
_cell_length_a   16.93957867
_cell_length_b   16.97966034
_cell_length_c   16.94695159
_cell_angle_alpha   90.31447070
_cell_angle_beta   89.58659944
_cell_angle_gamma   89.55522073
_symmetry_Int_Tables_number   1
_chemical_formula_structural   VZnO4
_chemical_formula_sum   'V64 Zn64 O256'
_cell_volume   4874.07406827
_cell_formula_units_Z   64
loop_
 _symmetry_equiv_pos_site_id
 _symmetry_equiv_pos_as_xyz
  1  'x, y, z'
loop_
 _atom_site_type_symbol
 _atom_site_label
 _atom_site_symmetry_multiplicity
 _atom_site_fract_x
 _atom_site_fract_y
 _atom_site_fract_z
 _atom_site_occupancy
  V  V0  1  0.00018821  0.25000419  0.24670940  1
  V  V1  1  0.00116173  0.73217414  0.75179421  1
  V  V2  1  0.36072557  0.12148027  0.25962434  1
  V  V3  1  0.11681103  0.87454465  0.75166030  1
  V  V4  1  0.75610092  0.62471937  0.37237838  1
  V  V5  1  0.12684476  0.10672840  0.01658323  1
  V  V6  1  0.12123482  0.00273317  0.61565849  1
  V  V7  1  -0.00112734  0.00390009  0.50143944  1
  V  V8  1  0.59481942  0.50440066  0.08421214  1
  V  V9  1  0.86232819  0.73799926  0.13741128  1
  V  V10  1  0.86890857  0.00503107  0.37850776  1
  V  V11  1  0.13037405  0.74508762  0.87843371  1
  V  V12  1  0.73301929  0.12156675  0.38056915  1
  V  V13  1  0.35705513  0.25516154  0.12957992  1
  V  V14  1  0.61582777  0.87708818  0.74830634  1
  V  V15  1  0.28771923  0.53851993  0.23511963  1
  V  V16  1  0.26066158  0.50114047  0.75877334  1
  V  V17  1  0.76799038  0.73909462  -0.01439011  1
  V  V18  1  0.24437866  0.88952717  0.10381481  1
  V  V19  1  0.38015236  0.86696788  0.48795313  1
  V  V20  1  0.88269595  0.89955593  0.03739283  1
  V  V21  1  0.39727435  0.23670050  0.61352721  1
  V  V22  1  -0.00450414  0.46135878  -0.02162600  1
  V  V23  1  0.74620333  0.47640672  0.24314218  1
  V  V24  1  0.62690894  0.86656920  0.24999386  1
  V  V25  1  0.34980941  0.75593844  0.13359030  1
  V  V26  1  0.62106525  0.75281667  0.87642670  1
  V  V27  1  0.75125252  0.25218762  0.01060676  1
  V  V28  1  0.75570436  0.26067992  0.50119756  1
  V  V29  1  0.62775563  0.48953824  0.63646287  1
  V  V30  1  0.14629333  0.74921509  0.37531760  1
  V  V31  1  0.12441810  0.38401047  0.24052056  1
  V  V32  1  0.61191495  0.27630458  0.37862221  1
  V  V33  1  0.62711120  0.10702850  0.01060930  1
  V  V34  1  0.36252698  0.01268234  0.38208072  1
  V  V35  1  0.51371942  0.11133512  0.64354683  1
  V  V36  1  -0.00002735  0.87507929  0.37343410  1
  V  V37  1  0.12404904  0.59431340  0.50385590  1
  V  V38  1  0.24910354  0.01499122  0.74670980  1
  V  V39  1  0.24276417  0.85790080  0.61350628  1
  V  V40  1  0.89013291  0.72487826  0.61990924  1
  V  V41  1  0.88823588  -0.01609249  0.86772200  1
  V  V42  1  0.75012237  0.11631855  0.88249464  1
  V  V43  1  0.74878577  -0.01036285  0.73327729  1
  V  V44  1  -0.00770725  0.37116923  0.39149775  1
  V  V45  1  0.50357100  0.26387655  0.24624722  1
  V  V46  1  0.12855411  0.89606570  0.23983986  1
  V  V47  1  0.62328110  0.62220004  0.51483204  1
  V  V48  1  0.87281807  0.26244793  0.12675114  1
  V  V49  1  0.87260528  0.49099799  0.38845274  1
  V  V50  1  0.87408492  0.13301411  0.74628807  1
  V  V51  1  0.13177299  0.24551999  0.39315044  1
  V  V52  1  0.74822399  0.74852809  0.50852594  1
  V  V53  1  -0.00767211  0.13811328  0.62362596  1
  V  V54  1  0.01430874  0.61739548  0.12348320  1
  V  V55  1  0.87076033  0.12409858  0.24856106  1
  V  V56  1  0.38089108  0.73859010  0.62849834  1
  V  V57  1  0.63177168  0.37063196  0.77294129  1
  V  V58  1  0.76316585  0.52480120  0.76093036  1
  V  V59  1  0.50862715  0.00650311  0.50022135  1
  V  V60  1  -0.00348461  0.74558681  0.24803705  1
  V  V61  1  0.23830534  0.25045828  -0.01696257  1
  V  V62  1  0.50443862  0.11331220  0.13379421  1
  V  V63  1  0.87267146  0.87509831  0.51107898  1
  Zn  Zn64  1  0.17663532  0.17626492  0.18947824  1
  Zn  Zn65  1  0.17791251  0.19303911  0.67512566  1
  Zn  Zn66  1  0.18176541  0.69736628  0.19803743  1
  Zn  Zn67  1  0.17234455  0.67862246  0.67454063  1
  Zn  Zn68  1  0.68700294  0.18743801  0.19289713  1
  Zn  Zn69  1  0.69287828  0.17949997  0.68837488  1
  Zn  Zn70  1  0.68236124  0.66371544  0.17993304  1
  Zn  Zn71  1  0.69195208  0.69563460  0.69116313  1
  Zn  Zn72  1  0.30694263  0.31156130  0.31589612  1
  Zn  Zn73  1  0.28835471  0.28596477  0.78400917  1
  Zn  Zn74  1  0.31727929  0.82837617  0.30224037  1
  Zn  Zn75  1  0.30772299  0.80888952  0.79985266  1
  Zn  Zn76  1  0.80713678  0.31001096  0.31817396  1
  Zn  Zn77  1  0.76620702  0.29084170  0.80806571  1
  Zn  Zn78  1  0.81538685  0.80916800  0.32370859  1
  Zn  Zn79  1  0.81595826  0.80651498  0.79632981  1
  Zn  Zn80  1  0.17434194  0.45942557  0.38512975  1
  Zn  Zn81  1  0.18808904  0.44666209  1.05483955  1
  Zn  Zn82  1  0.18751151  0.93652557  0.43559086  1
  Zn  Zn83  1  0.29980103  0.94174322  0.92723876  1
  Zn  Zn84  1  0.68481453  0.44486746  0.44260083  1
  Zn  Zn85  1  0.72316580  0.43769282  0.94299580  1
  Zn  Zn86  1  0.68872137  0.92948436  0.43754853  1
  Zn  Zn87  1  0.70946556  0.92673365  0.93298715  1
  Zn  Zn88  1  0.31027223  0.07549055  0.06700502  1
  Zn  Zn89  1  0.33505425  0.04048147  0.59237723  1
  Zn  Zn90  1  0.29764913  0.57356653  0.06016895  1
  Zn  Zn91  1  0.28653405  0.55546183  0.55903706  1
  Zn  Zn92  1  0.81514175  0.05488381  0.07125467  1
  Zn  Zn93  1  0.80684535  0.07181800  0.55771805  1
  Zn  Zn94  1  0.82924091  0.55882998  0.06770501  1
  Zn  Zn95  1  0.80791840  0.55454915  0.56830056  1
  Zn  Zn96  1  0.44000880  0.44095182  0.16549337  1
  Zn  Zn97  1  0.47815457  0.47660085  0.74826794  1
  Zn  Zn98  1  0.43468536  0.93852222  0.05602747  1
  Zn  Zn99  1  0.43724745  0.93009334  0.69078994  1
  Zn  Zn100  1  0.93167949  0.44372947  0.19954551  1
  Zn  Zn101  1  0.86892692  0.39686267  0.71444627  1
  Zn  Zn102  1  0.92807110  0.93396586  0.19776216  1
  Zn  Zn103  1  0.93644901  0.93860369  0.68984302  1
  Zn  Zn104  1  0.05870169  0.07102215  0.31940119  1
  Zn  Zn105  1  0.06185081  0.06305364  0.80820844  1
  Zn  Zn106  1  0.05496303  0.57041621  0.33459380  1
  Zn  Zn107  1  0.06660784  0.55831515  0.82873385  1
  Zn  Zn108  1  0.54781555  0.05530618  0.31421380  1
  Zn  Zn109  1  0.57851862  0.06843285  0.81522894  1
  Zn  Zn110  1  0.57723595  0.56175887  0.32562103  1
  Zn  Zn111  1  0.62316085  0.54488160  0.87657985  1
  Zn  Zn112  1  0.44622085  0.18923111  0.44213143  1
  Zn  Zn113  1  0.45765585  0.22338961  0.97572343  1
  Zn  Zn114  1  0.41678281  0.65467245  0.47979226  1
  Zn  Zn115  1  0.47636805  0.86462774  0.88780965  1
  Zn  Zn116  1  0.93389930  0.19082952  0.43945646  1
  Zn  Zn117  1  0.92829706  0.18762524  0.93348205  1
  Zn  Zn118  1  0.94224978  0.68054279  0.43635248  1
  Zn  Zn119  1  0.98908864  0.74640979  0.98374617  1
  Zn  Zn120  1  0.06268823  0.30595441  0.06054091  1
  Zn  Zn121  1  0.07484681  0.32150078  0.58168701  1
  Zn  Zn122  1  0.09465346  0.89575747  0.00214442  1
  Zn  Zn123  1  0.06005913  0.80800676  0.55500023  1
  Zn  Zn124  1  0.57906342  0.33208897  0.05226252  1
  Zn  Zn125  1  0.60004555  0.28207888  0.59156535  1
  Zn  Zn126  1  0.59504585  0.83988308  0.04689608  1
  Zn  Zn127  1  0.55731123  0.81394815  0.56617160  1
  O  O128  1  0.11233923  0.11878397  0.11691957  1
  O  O129  1  0.10061113  0.11310866  0.62858592  1
  O  O130  1  0.11315884  0.62946951  0.14134156  1
  O  O131  1  0.11185247  0.61589243  0.60310711  1
  O  O132  1  0.61539045  0.12275940  0.12562178  1
  O  O133  1  0.61369039  0.11618075  0.63505695  1
  O  O134  1  0.61418298  0.59443141  0.13122658  1
  O  O135  1  0.63133542  0.63387427  0.61666020  1
  O  O136  1  0.36721584  0.38357615  0.39466919  1
  O  O137  1  0.41100098  0.27643655  0.82264032  1
  O  O138  1  0.37076074  0.89291145  0.38427727  1
  O  O139  1  0.36788844  0.87617123  0.86307416  1
  O  O140  1  0.88156029  0.37583039  0.37810518  1
  O  O141  1  0.94503952  0.31642012  0.83738335  1
  O  O142  1  0.88064612  0.88761979  0.38161043  1
  O  O143  1  0.87526262  0.88600165  0.85418690  1
  O  O144  1  0.26284111  0.01051927  0.39268910  1
  O  O145  1  0.24556216  0.00144873  0.84495630  1
  O  O146  1  0.25908477  0.50269485  0.32694652  1
  O  O147  1  0.28523104  0.52766289  0.85552888  1
  O  O148  1  0.75697133  0.01102901  0.38694054  1
  O  O149  1  0.75931649  0.00715558  0.86253610  1
  O  O150  1  0.75623981  0.50570448  0.37282595  1
  O  O151  1  0.74629612  0.51597647  0.86603911  1
  O  O152  1  0.24794162  0.50390037  0.14301421  1
  O  O153  1  0.25690627  0.48959479  0.65085495  1
  O  O154  1  0.26573552  0.98392964  0.12767287  1
  O  O155  1  0.22977300  0.99496286  0.61961532  1
  O  O156  1  0.76236316  0.50659235  0.14632573  1
  O  O157  1  0.73751457  0.51084128  0.64443163  1
  O  O158  1  0.73990900  1.01927722  0.14603510  1
  O  O159  1  0.75016220  1.00854079  0.63546842  1
  O  O160  1  -0.00055179  0.35991696  0.25493327  1
  O  O161  1  -0.03116424  0.35031714  0.77174163  1
  O  O162  1  0.00312676  0.87435263  0.25823172  1
  O  O163  1  0.01553165  0.86688736  0.73149689  1
  O  O164  1  0.49219370  0.36159507  0.24133765  1
  O  O165  1  0.53106275  0.37524105  0.76269933  1
  O  O166  1  0.52573089  0.85441742  0.24561886  1
  O  O167  1  0.51260168  0.88951744  0.76752569  1
  O  O168  1  0.49525579  0.12781450  0.24351195  1
  O  O169  1  0.50004888  0.10473631  0.74346250  1
  O  O170  1  0.50776515  0.65672145  0.28178433  1
  O  O171  1  0.39802754  0.64840913  0.88340289  1
  O  O172  1  0.98119752  0.14140158  0.26422340  1
  O  O173  1  0.98416057  0.12276964  0.73773977  1
  O  O174  1  1.00275921  0.64515888  0.25911119  1
  O  O175  1  1.01536399  0.63380861  0.75100785  1
  O  O176  1  0.35064042  0.22880323  0.02247722  1
  O  O177  1  0.38436197  0.25497670  0.51526448  1
  O  O178  1  0.47220066  0.73393922  0.08745062  1
  O  O179  1  0.38172500  0.76645920  0.48237470  1
  O  O180  1  0.87139193  0.23054068  0.02295517  1
  O  O181  1  0.85533826  0.24822566  0.50188119  1
  O  O182  1  0.87399186  0.75291064  0.02496283  1
  O  O183  1  0.88124210  0.75460208  0.50952384  1
  O  O184  1  0.11558273  0.25932370  0.49111667  1
  O  O185  1  0.13455084  0.23372594  1.00899087  1
  O  O186  1  0.12007423  0.75302818  0.47536273  1
  O  O187  1  0.10306367  0.77998518  0.97432454  1
  O  O188  1  0.61045181  0.25358006  0.47797039  1
  O  O189  1  0.64948027  0.23676323  1.01924470  1
  O  O190  1  0.64504293  0.75146675  0.51228544  1
  O  O191  1  0.65985078  0.76706870  0.98659701  1
  O  O192  1  0.48914176  0.23792003  0.14078252  1
  O  O193  1  0.50378887  0.23117649  0.63309463  1
  O  O194  1  0.53236487  0.76279465  0.12169502  1
  O  O195  1  0.47997769  0.74868075  0.62068036  1
  O  O196  1  0.98721630  0.24703064  0.14078117  1
  O  O197  1  0.99361554  0.23447732  0.61725100  1
  O  O198  1  0.99508788  0.74428061  0.14445237  1
  O  O199  1  0.99460691  0.74653248  0.62675647  1
  O  O200  1  -0.00598431  0.25917135  0.36812422  1
  O  O201  1  -0.00731773  0.25757971  0.86139952  1
  O  O202  1  -0.00838483  0.76669445  0.36698215  1
  O  O203  1  0.00265106  0.75392065  0.85179554  1
  O  O204  1  0.50609248  0.24924208  0.36157046  1
  O  O205  1  0.42383041  0.20974725  0.85460692  1
  O  O206  1  0.48020707  0.69976268  0.33603858  1
  O  O207  1  0.52248526  0.75649603  0.88675067  1
  O  O208  1  0.25335383  0.13066899  0.51200738  1
  O  O209  1  0.23184471  0.12721943  1.00265919  1
  O  O210  1  0.22362106  0.61764640  0.48744241  1
  O  O211  1  0.25924054  0.51074715  0.98057583  1
  O  O212  1  0.74527032  0.13590110  0.48489378  1
  O  O213  1  0.74505642  0.12135772  1.00127132  1
  O  O214  1  0.74712229  0.63567471  0.50132755  1
  O  O215  1  0.76696748  0.64063885  1.00311193  1
  O  O216  1  0.23737679  0.34612964  0.01038407  1
  O  O217  1  0.31842262  0.41505431  0.44986880  1
  O  O218  1  0.22548534  0.88990221  0.00421652  1
  O  O219  1  0.26161368  0.88110171  0.50984704  1
  O  O220  1  0.76102898  0.35014745  -0.00095322  1
  O  O221  1  0.74269800  0.35971627  0.49061637  1
  O  O222  1  0.78327128  0.86985450  0.00200790  1
  O  O223  1  0.76155226  0.85810650  0.49026487  1
  O  O224  1  0.10949156  0.48149579  0.27015111  1
  O  O225  1  0.15770541  0.49775827  0.77637433  1
  O  O226  1  0.10672720  0.99361407  0.25300793  1
  O  O227  1  0.12624442  0.98987243  0.73587308  1
  O  O228  1  0.64708089  0.50230239  0.26331042  1
  O  O229  1  0.64603238  0.48573867  0.75271070  1
  O  O230  1  0.61332147  0.96991510  0.26077638  1
  O  O231  1  0.64119094  0.98886467  0.75809218  1
  O  O232  1  0.37540651  0.01607119  0.27330144  1
  O  O233  1  0.34717243  -0.00079400  0.71418728  1
  O  O234  1  0.38844678  0.52097104  0.22674597  1
  O  O235  1  0.36612457  0.50291198  0.74383070  1
  O  O236  1  0.87999361  0.01563042  0.26620242  1
  O  O237  1  0.86351876  0.00539211  0.75131748  1
  O  O238  1  0.85512511  0.49092557  0.27226910  1
  O  O239  1  0.86224577  0.50980714  0.74384477  1
  O  O240  1  0.10524381  0.36063068  0.36397015  1
  O  O241  1  0.00473348  0.48105461  0.87603157  1
  O  O242  1  0.11272796  0.87642402  0.36888040  1
  O  O243  1  0.12131651  0.87401129  0.84965753  1
  O  O244  1  0.61498499  0.37483114  0.37788501  1
  O  O245  1  0.64713879  0.37717502  0.87149334  1
  O  O246  1  0.62143457  0.85898985  0.35700503  1
  O  O247  1  0.63937246  0.86808922  0.86554455  1
  O  O248  1  0.38224224  0.13068721  0.14433422  1
  O  O249  1  0.39200081  0.13372546  0.62465143  1
  O  O250  1  0.34854237  0.66469429  0.08617471  1
  O  O251  1  0.36391653  0.64151279  0.58348753  1
  O  O252  1  0.87066941  0.13025534  0.14815683  1
  O  O253  1  0.87984930  0.11778014  0.63631081  1
  O  O254  1  0.88993758  0.63787985  0.13588627  1
  O  O255  1  0.88978343  0.62744872  0.60867094  1
  O  O256  1  0.25806712  0.24440573  0.14376427  1
  O  O257  1  0.23960578  0.19105576  0.55223394  1
  O  O258  1  0.24497233  0.77695171  0.13743801  1
  O  O259  1  0.24226660  0.75700153  0.61726693  1
  O  O260  1  0.76376359  0.24387317  0.12393043  1
  O  O261  1  0.71776643  0.24497357  0.59772438  1
  O  O262  1  0.76071133  0.73322222  0.13015110  1
  O  O263  1  0.77431301  0.74432727  0.61382327  1
  O  O264  1  0.23122917  0.25643610  0.38095817  1
  O  O265  1  0.24851590  0.24911952  0.88179533  1
  O  O266  1  0.24274846  0.77252188  0.36924493  1
  O  O267  1  0.22902449  0.75775098  0.86579381  1
  O  O268  1  0.73016031  0.24346451  0.38237836  1
  O  O269  1  0.76989019  0.22636675  0.89995994  1
  O  O270  1  0.76905749  0.73342658  0.39656039  1
  O  O271  1  0.77705706  0.74736327  0.88514158  1
  O  O272  1  0.02760016  0.12797671  -0.04189754  1
  O  O273  1  -0.01749442  0.11302013  0.51317112  1
  O  O274  1  0.00488320  0.63790805  0.02442001  1
  O  O275  1  0.03295161  0.61427701  0.44980738  1
  O  O276  1  0.51848845  0.13136507  0.01738066  1
  O  O277  1  0.50452896  0.11044874  0.50983249  1
  O  O278  1  0.45985272  0.49305698  -0.07968713  1
  O  O279  1  0.52781678  0.63989435  0.49397045  1
  O  O280  1  0.46675612  0.40404107  0.55604967  1
  O  O281  1  0.50934370  0.31913485  0.97069007  1
  O  O282  1  0.48304377  0.88392530  0.50906390  1
  O  O283  1  0.51444402  0.89074743  0.99333916  1
  O  O284  1  1.00285892  0.36847917  0.48795934  1
  O  O285  1  0.99182604  0.36019396  0.99273874  1
  O  O286  1  0.99024291  0.88389060  0.49132500  1
  O  O287  1  0.97509958  0.86875145  1.00127098  1
  O  O288  1  0.47372283  0.52458132  0.37794250  1
  O  O289  1  0.50755429  0.52399202  0.85205553  1
  O  O290  1  0.48357063  1.00619939  0.39385401  1
  O  O291  1  0.48755710  1.01279752  0.88267369  1
  O  O292  1  0.98126089  0.48185061  0.37141622  1
  O  O293  1  0.90096863  0.58500741  0.86412173  1
  O  O294  1  0.98910520  0.99691136  0.38534053  1
  O  O295  1  0.98756112  0.99407848  0.85867484  1
  O  O296  1  -0.09040174  -0.01675899  0.09828538  1
  O  O297  1  0.00461922  -0.00224498  0.61504083  1
  O  O298  1  -0.00717302  0.52016592  0.14464958  1
  O  O299  1  -0.00262718  0.45542554  0.64773751  1
  O  O300  1  0.49075535  0.01555525  0.12592555  1
  O  O301  1  0.49106763  0.00545354  0.61575853  1
  O  O302  1  0.49304144  0.49710792  0.08150623  1
  O  O303  1  0.53176575  0.51919474  0.65743713  1
  O  O304  1  0.22227899  0.36514772  0.25582129  1
  O  O305  1  0.26418472  0.39994235  0.77421176  1
  O  O306  1  0.22899093  0.88911387  0.25320977  1
  O  O307  1  0.23478752  0.87881122  0.72579596  1
  O  O308  1  0.74564939  0.37562382  0.24964579  1
  O  O309  1  0.76457721  0.38884306  0.75553566  1
  O  O310  1  0.73220801  0.87299585  0.26906650  1
  O  O311  1  0.75079117  0.88683028  0.74083504  1
  O  O312  1  0.26236930  0.12726680  0.25266508  1
  O  O313  1  0.23211027  0.11510482  0.73439983  1
  O  O314  1  0.27206866  0.63902129  0.23594708  1
  O  O315  1  0.24457889  0.60437762  0.73605784  1
  O  O316  1  0.76262259  0.13797347  0.27015870  1
  O  O317  1  0.75606410  0.11284601  0.75874072  1
  O  O318  1  0.74597844  0.63471008  0.27370579  1
  O  O319  1  0.75457260  0.62505899  0.75300754  1
  O  O320  1  0.37699925  0.12437168  0.37148612  1
  O  O321  1  0.42672282  0.05328033  0.89749745  1
  O  O322  1  0.41368449  0.57051448  0.38870339  1
  O  O323  1  0.33804767  0.65532684  0.92373104  1
  O  O324  1  0.86511598  0.11853498  0.37490673  1
  O  O325  1  0.87230477  0.11253213  0.85993824  1
  O  O326  1  0.86627607  0.60623322  0.38595509  1
  O  O327  1  0.89564634  0.64372455  0.90475956  1
  O  O328  1  0.11644272  0.37678199  0.13729804  1
  O  O329  1  0.06866131  0.43867703  0.62320149  1
  O  O330  1  0.13159921  0.88587485  0.13371310  1
  O  O331  1  0.13187661  0.87901789  0.61662150  1
  O  O332  1  0.62227334  0.40998101  0.11840223  1
  O  O333  1  0.62476160  0.38779991  0.63214064  1
  O  O334  1  0.64237358  0.87871132  0.14869701  1
  O  O335  1  0.61575240  0.86841534  0.64802863  1
  O  O336  1  0.10624069  0.25056510  0.25252389  1
  O  O337  1  0.14493242  0.29528802  0.66716086  1
  O  O338  1  0.11022247  0.77314525  0.25982539  1
  O  O339  1  0.11749509  0.75600882  0.74760846  1
  O  O340  1  0.61149810  0.24926239  0.25958942  1
  O  O341  1  0.65851989  0.26845674  0.75478476  1
  O  O342  1  0.63939947  0.76359321  0.24160676  1
  O  O343  1  0.63849187  0.76816589  0.76321414  1
  O  O344  1  0.38182236  0.24148485  0.25296904  1
  O  O345  1  0.32480806  0.27217309  0.67799677  1
  O  O346  1  0.37889267  0.76526231  0.22919043  1
  O  O347  1  0.35965329  0.73480501  0.72617139  1
  O  O348  1  0.87787550  0.24521902  0.24567115  1
  O  O349  1  0.85562066  0.23039486  0.74885703  1
  O  O350  1  0.88532212  0.75653774  0.24874776  1
  O  O351  1  0.88963635  0.74518994  0.72975747  1
  O  O352  1  0.35122310  0.47319433  0.49194045  1
  O  O353  1  0.43298053  0.42526424  0.91131045  1
  O  O354  1  0.38160432  0.99316889  0.49720111  1
  O  O355  1  0.36644117  1.00629554  0.99541318  1
  O  O356  1  0.85981257  0.48967094  0.48860783  1
  O  O357  1  0.90167840  0.50022649  1.00437717  1
  O  O358  1  0.87740523  0.99374880  0.49639754  1
  O  O359  1  0.86563182  0.99523196  0.97052120  1
  O  O360  1  0.11713697  0.00742810  0.00172469  1
  O  O361  1  0.10849458  -0.00456105  0.50259667  1
  O  O362  1  0.08637975  0.48777213  0.01601096  1
  O  O363  1  0.13337245  0.49178243  0.48575821  1
  O  O364  1  0.63590527  0.00920650  0.00274144  1
  O  O365  1  0.60628280  -0.01886044  0.49410498  1
  O  O366  1  0.63371855  0.50450557  -0.01368043  1
  O  O367  1  0.63155506  0.51247324  0.52245083  1
  O  O368  1  0.37333871  0.35297466  0.12933978  1
  O  O369  1  0.42542468  0.37967336  0.61153210  1
  O  O370  1  0.35729982  0.85675814  0.09298711  1
  O  O371  1  0.36054519  0.85587702  0.61547438  1
  O  O372  1  0.87799285  0.35999058  0.13101234  1
  O  O373  1  0.94176603  0.39959408  0.62526369  1
  O  O374  1  0.87104888  0.85162252  0.13499232  1
  O  O375  1  0.87854081  0.87473346  0.61161481  1
  O  O376  1  0.11425737  0.14570781  0.37834425  1
  O  O377  1  0.08913962  0.13355387  0.89857716  1
  O  O378  1  0.14240097  0.65207250  0.34758304  1
  O  O379  1  0.11838531  0.64551319  0.88129538  1
  O  O380  1  0.63518745  0.11322963  0.36419747  1
  O  O381  1  0.63736156  0.12266769  0.89549192  1
  O  O382  1  0.64778530  0.61713139  0.39856548  1
  O  O383  1  0.63921221  0.65504338  0.87117985  1
