# generated using pymatgen
data_VZnO4
_symmetry_space_group_name_H-M   'P 1'
_cell_length_a   16.85691625
_cell_length_b   16.84858771
_cell_length_c   16.88596823
_cell_angle_alpha   90.02235465
_cell_angle_beta   89.87116008
_cell_angle_gamma   90.12986500
_symmetry_Int_Tables_number   1
_chemical_formula_structural   VZnO4
_chemical_formula_sum   'V64 Zn64 O256'
_cell_volume   4795.84738448
_cell_formula_units_Z   64
loop_
 _symmetry_equiv_pos_site_id
 _symmetry_equiv_pos_as_xyz
  1  'x, y, z'
loop_
 _atom_site_type_symbol
 _atom_site_label
 _atom_site_symmetry_multiplicity
 _atom_site_fract_x
 _atom_site_fract_y
 _atom_site_fract_z
 _atom_site_occupancy
  V  V0  1  -0.00292860  0.24214528  0.24347494  1
  V  V1  1  0.13082012  0.76440885  0.87323369  1
  V  V2  1  0.24702548  0.77837895  0.00814835  1
  V  V3  1  0.14383323  0.12705724  0.49953518  1
  V  V4  1  0.00685881  0.76031399  0.73004921  1
  V  V5  1  0.23834354  0.75938041  0.49095074  1
  V  V6  1  0.75951717  0.12441725  0.38455616  1
  V  V7  1  0.88187992  0.74580559  0.15417125  1
  V  V8  1  0.74639725  0.23307360  0.00896374  1
  V  V9  1  0.38762383  0.75114748  0.61558231  1
  V  V10  1  0.48718983  0.89392365  0.88261866  1
  V  V11  1  0.37124674  0.35375563  0.01812191  1
  V  V12  1  -0.00855311  0.61662203  0.63410622  1
  V  V13  1  0.50117970  0.50203395  0.01694219  1
  V  V14  1  0.65723163  0.71929442  0.38209174  1
  V  V15  1  0.36452018  0.36428589  0.50160889  1
  V  V16  1  0.36643634  0.61747099  0.75095319  1
  V  V17  1  0.13609498  0.24899836  0.38437835  1
  V  V18  1  0.26191005  0.01081613  0.76479638  1
  V  V19  1  -0.00560573  0.37492280  0.39669388  1
  V  V20  1  0.88422063  -0.01446299  0.38057273  1
  V  V21  1  0.88871673  0.00942333  0.85027146  1
  V  V22  1  0.75467050  0.86593065  0.60931940  1
  V  V23  1  0.74741362  0.38241591  0.13770382  1
  V  V24  1  0.86330197  0.88269265  -0.00268426  1
  V  V25  1  0.51103304  0.00959983  0.02000851  1
  V  V26  1  0.86328899  0.50652341  0.36211107  1
  V  V27  1  0.00745039  0.00883634  0.01144391  1
  V  V28  1  0.25545587  0.37310554  0.64532038  1
  V  V29  1  0.36646075  0.49957314  0.37096550  1
  V  V30  1  0.52639965  0.26048470  0.25483077  1
  V  V31  1  0.35972352  -0.00538210  0.37152436  1
  V  V32  1  0.24183583  0.49791115  0.23503876  1
  V  V33  1  -0.00323728  0.13676102  0.63267228  1
  V  V34  1  0.36631137  0.14705791  0.24576137  1
  V  V35  1  0.13877880  0.50093452  0.65039672  1
  V  V36  1  0.61123051  -0.00368576  0.61662342  1
  V  V37  1  0.62053362  0.25095159  0.85849597  1
  V  V38  1  0.36928985  0.71707888  0.12614270  1
  V  V39  1  0.49354764  0.75342366  0.26266606  1
  V  V40  1  0.52280029  0.13717999  0.13103239  1
  V  V41  1  0.24958461  0.60371163  0.88460618  1
  V  V42  1  0.62783468  0.87757125  0.75612446  1
  V  V43  1  0.25268631  0.87320019  0.63410481  1
  V  V44  1  0.39540545  0.13212120  0.74929244  1
  V  V45  1  0.51164202  0.37874844  0.37172452  1
  V  V46  1  0.49808448  0.74859440  0.77194388  1
  V  V47  1  0.12715794  0.60836522  0.50131751  1
  V  V48  1  0.12523390  0.37069823  0.23571022  1
  V  V49  1  0.50369604  0.51705499  0.50543696  1
  V  V50  1  0.24474676  0.62468245  0.36998390  1
  V  V51  1  0.62999114  0.50199966  0.63471436  1
  V  V52  1  0.23809698  -0.01516505  0.22960892  1
  V  V53  1  0.76538693  0.26287894  0.50322682  1
  V  V54  1  0.87159590  0.37683283  0.00656980  1
  V  V55  1  0.88172645  0.11912911  0.25080749  1
  V  V56  1  0.13474891  -0.00180410  0.63155009  1
  V  V57  1  0.87948251  0.26868444  0.63610022  1
  V  V58  1  0.75044365  0.12206008  0.83959942  1
  V  V59  1  0.49332518  0.37454890  0.86682523  1
  V  V60  1  0.77752736  0.50932652  0.74741000  1
  V  V61  1  0.00091168  0.35869771  0.88448282  1
  V  V62  1  0.62118722  0.13119153  0.50188820  1
  V  V63  1  0.00015693  -0.00687193  0.50419948  1
  Zn  Zn64  1  0.15956420  0.15231105  0.20609815  1
  Zn  Zn65  1  0.24394950  0.16805099  0.65276808  1
  Zn  Zn66  1  0.17994524  0.69557676  0.18634361  1
  Zn  Zn67  1  0.18700231  0.68925196  0.69119270  1
  Zn  Zn68  1  0.69963824  0.19094737  0.19906277  1
  Zn  Zn69  1  0.67899381  0.19754352  0.67437754  1
  Zn  Zn70  1  0.71485856  0.76624527  0.23668607  1
  Zn  Zn71  1  0.69521124  0.67565377  0.69129394  1
  Zn  Zn72  1  0.31478721  0.31533226  0.30363951  1
  Zn  Zn73  1  0.31752457  0.30190329  0.81951154  1
  Zn  Zn74  1  0.30681046  0.81543630  0.29936457  1
  Zn  Zn75  1  0.31415851  0.81150034  0.81543442  1
  Zn  Zn76  1  0.81747648  0.31196343  0.31795676  1
  Zn  Zn77  1  0.81741048  0.31008036  0.82714876  1
  Zn  Zn78  1  0.87193853  0.75376794  0.36019986  1
  Zn  Zn79  1  0.83992181  0.83997260  0.77751712  1
  Zn  Zn80  1  0.18547047  0.43188468  0.43418828  1
  Zn  Zn81  1  0.19598647  0.40803086  0.92306232  1
  Zn  Zn82  1  0.18097171  0.93309097  0.42878261  1
  Zn  Zn83  1  0.17902435  0.94759556  0.94005779  1
  Zn  Zn84  1  0.68835159  0.44733812  0.43949440  1
  Zn  Zn85  1  0.67738348  0.42512388  0.94941680  1
  Zn  Zn86  1  0.71003200  0.94994861  0.46203726  1
  Zn  Zn87  1  0.68799916  0.95144737  0.93006152  1
  Zn  Zn88  1  0.33248645  -0.04256005  0.06296713  1
  Zn  Zn89  1  0.33725446  0.05794635  0.55852938  1
  Zn  Zn90  1  0.31591330  0.54137208  0.05139139  1
  Zn  Zn91  1  0.31587842  0.56184120  0.56400417  1
  Zn  Zn92  1  0.85709096  0.09296522  0.03945019  1
  Zn  Zn93  1  0.81199913  0.06189478  0.57754152  1
  Zn  Zn94  1  0.87802303  0.53841127  0.10795094  1
  Zn  Zn95  1  0.82750324  0.45035606  0.55906611  1
  Zn  Zn96  1  0.43233707  0.43439879  0.18601992  1
  Zn  Zn97  1  0.44627702  0.30442804  0.67978019  1
  Zn  Zn98  1  0.44859239  0.94761393  0.21723127  1
  Zn  Zn99  1  0.43597324  0.93408287  0.68889898  1
  Zn  Zn100  1  0.93590429  0.41260973  0.19040478  1
  Zn  Zn101  1  0.95801959  0.43563061  0.70219557  1
  Zn  Zn102  1  0.94193667  0.93338307  0.17951266  1
  Zn  Zn103  1  0.94141425  0.93617166  0.67230086  1
  Zn  Zn104  1  0.06549236  0.05645915  0.32060955  1
  Zn  Zn105  1  0.07547155  0.07635714  0.81269602  1
  Zn  Zn106  1  0.06125616  0.55270455  0.31701575  1
  Zn  Zn107  1  0.06867469  0.57781604  0.81793182  1
  Zn  Zn108  1  0.55493783  0.07130653  0.33164443  1
  Zn  Zn109  1  0.56669141  0.06495195  0.80501014  1
  Zn  Zn110  1  0.54575232  0.57469464  0.31230472  1
  Zn  Zn111  1  0.53007557  0.53998314  0.79323533  1
  Zn  Zn112  1  0.43257023  0.18814058  0.42494262  1
  Zn  Zn113  1  0.43999140  0.17919149  0.94079214  1
  Zn  Zn114  1  0.42243013  0.69050458  0.43369545  1
  Zn  Zn115  1  0.42645400  0.68336400  0.94479572  1
  Zn  Zn116  1  0.94715108  0.18544458  0.44437121  1
  Zn  Zn117  1  0.93712056  0.19105722  0.93001779  1
  Zn  Zn118  1  0.91764916  0.62396225  0.47069488  1
  Zn  Zn119  1  0.91999827  0.70590062  0.88972278  1
  Zn  Zn120  1  0.04871431  0.42644600  0.05029930  1
  Zn  Zn121  1  0.07718640  0.31454843  0.57288650  1
  Zn  Zn122  1  0.01986468  0.79196305  0.01250698  1
  Zn  Zn123  1  0.03352612  0.79767661  0.45171407  1
  Zn  Zn124  1  0.57285397  0.31696260  0.05518674  1
  Zn  Zn125  1  0.57114181  0.32703425  0.55253017  1
  Zn  Zn126  1  0.48438844  0.84155407  0.09080474  1
  Zn  Zn127  1  0.60278987  0.77312845  0.57918037  1
  O  O128  1  0.12582528  0.16119732  0.08456529  1
  O  O129  1  0.13310487  0.11948519  0.61359156  1
  O  O130  1  0.07768155  0.62689713  0.16465794  1
  O  O131  1  0.14009782  0.61158717  0.61880223  1
  O  O132  1  0.62090993  0.12038679  0.15016757  1
  O  O133  1  0.63031997  0.10961908  0.61193049  1
  O  O134  1  0.66431962  0.68768983  0.04534299  1
  O  O135  1  0.64229777  0.60381115  0.61534436  1
  O  O136  1  0.37253513  0.38554001  0.38125543  1
  O  O137  1  0.39173815  0.35090260  0.89017164  1
  O  O138  1  0.36490567  0.89275231  0.36090228  1
  O  O139  1  0.38843414  0.87550248  0.87555925  1
  O  O140  1  0.89035191  0.37312658  0.38290696  1
  O  O141  1  0.89255227  0.37362885  0.88623974  1
  O  O142  1  0.87820469  0.88845772  0.38048015  1
  O  O143  1  0.87162198  0.90469151  0.86805073  1
  O  O144  1  0.25132847  0.00040716  0.36963333  1
  O  O145  1  0.25213741  -0.00461124  0.86235472  1
  O  O146  1  0.24967895  0.50582376  0.36870560  1
  O  O147  1  0.24130657  0.50440597  0.87435388  1
  O  O148  1  0.77442758  0.01026543  0.38920383  1
  O  O149  1  0.75424336  0.01875435  0.86108428  1
  O  O150  1  0.76189071  0.49428833  0.36834187  1
  O  O151  1  0.74716631  0.46302806  0.84912800  1
  O  O152  1  0.24035141  0.50477209  0.13682335  1
  O  O153  1  0.24643625  0.49147434  0.62697837  1
  O  O154  1  0.24406693  0.99385444  0.12891490  1
  O  O155  1  0.24941883  0.99128253  0.62314172  1
  O  O156  1  0.77325728  0.48125898  0.13142572  1
  O  O157  1  0.75249004  0.49014754  0.64471097  1
  O  O158  1  0.72372339  0.96796867  0.13919164  1
  O  O159  1  0.73987337  0.97851211  0.61311467  1
  O  O160  1  0.01150788  0.35683367  0.26193009  1
  O  O161  1  0.01698080  0.39522975  0.79032445  1
  O  O162  1  0.02621040  0.87774625  0.25132962  1
  O  O163  1  0.00816936  0.86086736  0.72649859  1
  O  O164  1  0.49794149  0.37138266  0.26064601  1
  O  O165  1  0.48812340  0.37034498  0.76638935  1
  O  O166  1  0.51713569  0.84221839  0.20842015  1
  O  O167  1  0.50128208  0.86707179  0.76122970  1
  O  O168  1  0.51338490  0.15206647  0.25882883  1
  O  O169  1  0.49397630  0.11969104  0.73372082  1
  O  O170  1  0.51151758  0.65537503  0.24084433  1
  O  O171  1  0.48629679  0.64202591  0.76085287  1
  O  O172  1  0.99391795  0.13072466  0.26157616  1
  O  O173  1  1.02135615  0.13430677  0.72922420  1
  O  O174  1  1.03152748  0.62664333  0.22528776  1
  O  O175  1  1.00835270  0.63468060  0.73813462  1
  O  O176  1  0.38575843  0.25072092  0.00998924  1
  O  O177  1  0.37714808  0.26585441  0.48818101  1
  O  O178  1  0.35254749  0.74580487  0.01179716  1
  O  O179  1  0.35512199  0.74327876  0.51399225  1
  O  O180  1  0.85126326  0.25318055  -0.01631361  1
  O  O181  1  0.87050279  0.24657465  0.51281135  1
  O  O182  1  0.88748704  0.78264201  -0.02788219  1
  O  O183  1  0.79405963  0.67144906  0.51394713  1
  O  O184  1  0.12958867  0.24096177  0.49441092  1
  O  O185  1  0.14356776  0.22232136  1.04649992  1
  O  O186  1  0.13888909  0.73398386  0.50505085  1
  O  O187  1  0.14350921  0.76039846  0.99837218  1
  O  O188  1  0.65088093  0.23679939  0.51029668  1
  O  O189  1  0.64247769  0.25015256  0.98438494  1
  O  O190  1  0.61984593  0.75912748  0.46805123  1
  O  O191  1  0.63160673  0.74412166  1.01387957  1
  O  O192  1  0.51975048  0.24652926  0.14058609  1
  O  O193  1  0.51359351  0.25376752  0.60930714  1
  O  O194  1  0.46843082  0.72778626  0.10150804  1
  O  O195  1  0.48800022  0.75585197  0.60999599  1
  O  O196  1  0.99984795  0.24506968  0.14778139  1
  O  O197  1  0.99263925  0.24662820  0.61991038  1
  O  O198  1  0.97695484  0.76629039  0.11250563  1
  O  O199  1  1.00308515  0.73356891  0.63101930  1
  O  O200  1  0.01063556  0.25738988  0.37686093  1
  O  O201  1  0.01236574  0.25849144  0.87516019  1
  O  O202  1  -0.05914347  0.73595340  0.44623385  1
  O  O203  1  0.03155630  0.74770245  0.89934009  1
  O  O204  1  0.50246616  0.27060519  0.36896400  1
  O  O205  1  0.51771743  0.24323795  0.87725623  1
  O  O206  1  0.46939892  0.76242167  0.36063330  1
  O  O207  1  0.49572542  0.75841596  0.87358376  1
  O  O208  1  0.24239450  0.12032290  0.50221953  1
  O  O209  1  0.25756544  0.10798316  1.01934460  1
  O  O210  1  0.24375485  0.62957787  0.49099124  1
  O  O211  1  0.25544813  0.61522237  0.98660587  1
  O  O212  1  0.75242430  0.12909232  0.49724349  1
  O  O213  1  0.75392665  0.13092850  1.00508957  1
  O  O214  1  0.73616931  0.63717596  0.48455034  1
  O  O215  1  0.66548335  0.59614342  0.92189432  1
  O  O216  1  0.27048270  0.36666398  -0.00623098  1
  O  O217  1  0.26229425  0.37863923  0.50124413  1
  O  O218  1  0.25377085  0.88121064  0.00499657  1
  O  O219  1  0.24526801  0.86197819  0.50737185  1
  O  O220  1  0.75730142  0.36483099  0.00621064  1
  O  O221  1  0.75931611  0.36512851  0.49360285  1
  O  O222  1  0.76192688  0.88523055  -0.01566737  1
  O  O223  1  0.76296260  0.86118722  0.50801958  1
  O  O224  1  0.12938904  0.47954273  0.25451780  1
  O  O225  1  0.13519884  0.50931480  0.74925365  1
  O  O226  1  0.14696988  1.04351984  0.24395373  1
  O  O227  1  0.14229365  1.00939305  0.73673027  1
  O  O228  1  0.62713833  0.51894245  0.22000656  1
  O  O229  1  0.61685628  0.49471909  0.73537957  1
  O  O230  1  0.63758678  0.98399964  0.26914771  1
  O  O231  1  0.62011577  0.98550785  0.73273761  1
  O  O232  1  0.33870676  0.01851364  0.25149416  1
  O  O233  1  0.36718312  0.01010961  0.74248246  1
  O  O234  1  0.34982897  0.48852803  0.25647954  1
  O  O235  1  0.38299115  0.52288371  0.74195326  1
  O  O236  1  0.89514669  0.00589072  0.27111789  1
  O  O237  1  0.88724571  0.00509227  0.74922080  1
  O  O238  1  0.88207897  0.48013357  0.26410751  1
  O  O239  1  0.87693189  0.50435801  0.75011988  1
  O  O240  1  0.11722292  0.36104928  0.37298996  1
  O  O241  1  0.08466100  0.41717581  0.93670578  1
  O  O242  1  0.11024693  0.85486206  0.39479410  1
  O  O243  1  0.13599400  0.86438549  0.87041469  1
  O  O244  1  0.60983079  0.38692623  0.37615061  1
  O  O245  1  0.61004819  0.35902989  0.87826922  1
  O  O246  1  0.53348625  0.90403884  0.41901262  1
  O  O247  1  0.61267646  0.88235640  0.85926411  1
  O  O248  1  0.41486635  0.11798155  0.15663809  1
  O  O249  1  0.35411107  0.13154208  0.63858583  1
  O  O250  1  0.35777017  0.61904808  0.13074775  1
  O  O251  1  0.36371207  0.64470697  0.63700786  1
  O  O252  1  0.86547873  0.10870251  0.15396069  1
  O  O253  1  0.89292950  0.13143463  0.62791346  1
  O  O254  1  0.87403783  0.64542730  0.14058134  1
  O  O255  1  0.89586538  0.60997950  0.61958239  1
  O  O256  1  0.25689771  0.17240326  -0.01284690  1
  O  O257  1  0.22979815  0.27586625  0.62877888  1
  O  O258  1  0.25234927  0.74893597  0.11642455  1
  O  O259  1  0.24846021  0.76467072  0.62246487  1
  O  O260  1  0.74523740  0.25024824  0.11245089  1
  O  O261  1  0.76900670  0.25188752  0.61581256  1
  O  O262  1  0.77368178  0.76842138  0.14642449  1
  O  O263  1  0.71759133  0.76379367  0.62260008  1
  O  O264  1  0.23401508  0.25537465  0.36751079  1
  O  O265  1  0.21308018  0.27187065  0.87522063  1
  O  O266  1  0.25577505  0.74199751  0.38404438  1
  O  O267  1  0.24752799  0.75556644  0.89284455  1
  O  O268  1  0.76475778  0.23610854  0.39356903  1
  O  O269  1  0.74155508  0.23546870  0.87332708  1
  O  O270  1  0.75534474  0.74397712  0.35119326  1
  O  O271  1  0.74227406  0.74065704  0.88029225  1
  O  O272  1  -0.02957822  0.11354106  0.00682578  1
  O  O273  1  0.01533485  0.12021706  0.51593461  1
  O  O274  1  -0.01908427  0.63420947  0.01702766  1
  O  O275  1  0.02449729  0.62050555  0.52185544  1
  O  O276  1  0.51000520  0.12705752  0.02513166  1
  O  O277  1  0.52428200  0.13717462  0.47842050  1
  O  O278  1  0.48636410  0.60054004  -0.00901433  1
  O  O279  1  0.48302397  0.61584339  0.49277463  1
  O  O280  1  0.48764627  0.39045135  0.48308145  1
  O  O281  1  0.49327720  0.37596884  0.99803873  1
  O  O282  1  0.49335850  0.88696767  0.47672085  1
  O  O283  1  0.50870559  0.89078663  0.98949752  1
  O  O284  1  1.00978469  0.36952570  0.49531562  1
  O  O285  1  0.97486003  0.34734496  1.00369741  1
  O  O286  1  1.00388170  0.89538871  0.52108167  1
  O  O287  1  0.99168714  0.90289337  0.98874988  1
  O  O288  1  0.48247479  0.49489658  0.36377544  1
  O  O289  1  0.49811817  0.47843587  0.88191263  1
  O  O290  1  0.47273528  0.99484475  0.32071981  1
  O  O291  1  0.49719773  0.99288739  0.86539268  1
  O  O292  1  1.00125309  0.47894695  0.37678413  1
  O  O293  1  0.97071769  0.58963212  0.88967119  1
  O  O294  1  0.99881502  1.00120828  0.39465651  1
  O  O295  1  0.99062866  1.02403473  0.86830081  1
  O  O296  1  0.00766792  0.00239136  0.11307564  1
  O  O297  1  0.01689937  0.01324959  0.62192249  1
  O  O298  1  -0.01334959  0.48895925  0.12091759  1
  O  O299  1  0.02416393  0.50881759  0.63710679  1
  O  O300  1  0.51882153  0.00627333  0.12310815  1
  O  O301  1  0.51102959  -0.01129303  0.61774693  1
  O  O302  1  0.49607282  0.49982250  0.11964651  1
  O  O303  1  0.51552904  0.50515269  0.60685100  1
  O  O304  1  0.23450256  0.38082318  0.24913939  1
  O  O305  1  0.26781382  0.37829625  0.74360273  1
  O  O306  1  0.22918827  0.88533226  0.24865609  1
  O  O307  1  0.25767405  0.88508882  0.73797241  1
  O  O308  1  0.75712591  0.35595599  0.23615945  1
  O  O309  1  0.74595946  0.40284605  0.78844573  1
  O  O310  1  0.66513335  0.92558051  0.30533561  1
  O  O311  1  0.72733976  0.86071356  0.75423339  1
  O  O312  1  0.27091305  0.16346465  0.21844538  1
  O  O313  1  0.25366223  0.11332721  0.75686306  1
  O  O314  1  0.22543562  0.61165299  0.25894391  1
  O  O315  1  0.26063886  0.63376970  0.75972382  1
  O  O316  1  0.76706694  0.13049966  0.27402869  1
  O  O317  1  0.75101839  0.12817446  0.74039316  1
  O  O318  1  0.65232156  0.56684216  0.17103454  1
  O  O319  1  0.74976370  0.60765240  0.76250978  1
  O  O320  1  0.37622903  0.12050453  0.35202338  1
  O  O321  1  0.38653426  0.12936928  0.85235805  1
  O  O322  1  0.35632434  0.61216298  0.37266991  1
  O  O323  1  0.35994406  0.63079816  0.86306122  1
  O  O324  1  0.87446815  0.11679507  0.37649506  1
  O  O325  1  0.85983840  0.12175784  0.86569808  1
  O  O326  1  0.88627760  0.60786314  0.35575036  1
  O  O327  1  0.78039849  0.68482176  0.90892018  1
  O  O328  1  0.11673415  0.36943990  0.13770785  1
  O  O329  1  0.13751169  0.39304544  0.63190688  1
  O  O330  1  0.07993930  0.83493695  0.21208512  1
  O  O331  1  0.14052776  0.89455360  0.62325895  1
  O  O332  1  0.64586319  0.37733251  0.12054203  1
  O  O333  1  0.63919090  0.40950670  0.58505647  1
  O  O334  1  0.68582575  0.90673763  0.13062716  1
  O  O335  1  0.62930757  0.88349855  0.62647330  1
  O  O336  1  0.11615672  0.24879010  0.26086266  1
  O  O337  1  0.16447621  0.22102984  0.83222455  1
  O  O338  1  0.09984518  0.76768734  0.24783299  1
  O  O339  1  0.11527721  0.74897338  0.76261103  1
  O  O340  1  0.62530730  0.26054203  0.26108044  1
  O  O341  1  0.62965251  0.25779347  0.75721346  1
  O  O342  1  0.61345913  0.76556583  0.29499971  1
  O  O343  1  0.60018493  0.76001502  0.73908006  1
  O  O344  1  0.39430733  0.24912156  0.25532421  1
  O  O345  1  0.37416559  0.23903505  0.74303991  1
  O  O346  1  0.37829363  0.75153249  0.23118466  1
  O  O347  1  0.38909537  0.75434556  0.73827385  1
  O  O348  1  0.88873383  0.23294355  0.26248527  1
  O  O349  1  0.87134811  0.26193364  0.73518051  1
  O  O350  1  0.89879304  0.76894502  0.25123962  1
  O  O351  1  0.90993943  0.74743346  0.78077163  1
  O  O352  1  0.38029237  0.49455486  0.48981455  1
  O  O353  1  0.38917148  0.47264588  1.00298105  1
  O  O354  1  0.38233205  1.01092886  0.47027154  1
  O  O355  1  0.40814184  1.01331828  0.99790743  1
  O  O356  1  0.87609768  0.51274974  0.47920683  1
  O  O357  1  0.87332736  0.47816026  1.00235524  1
  O  O358  1  0.89321782  1.00822339  0.49983017  1
  O  O359  1  0.88214495  0.99502288  0.98260361  1
  O  O360  1  0.10645288  0.02024896  -0.01767765  1
  O  O361  1  0.12174912  0.01121848  0.50657521  1
  O  O362  1  0.00507817  0.58167328  -0.03167911  1
  O  O363  1  0.13506277  0.50684100  0.50778041  1
  O  O364  1  0.60716361  0.01047296  -0.01771257  1
  O  O365  1  0.62396299  0.00988519  0.50616592  1
  O  O366  1  0.60539251  0.49330447  0.00121027  1
  O  O367  1  0.60073776  0.51332508  0.47551419  1
  O  O368  1  0.37218352  0.36394175  0.12036920  1
  O  O369  1  0.36547257  0.37187307  0.61147671  1
  O  O370  1  0.38999528  0.89176593  0.13480148  1
  O  O371  1  0.36464095  0.86403591  0.62318160  1
  O  O372  1  0.86441699  0.35703217  0.11338597  1
  O  O373  1  0.89050615  0.37264619  0.62513025  1
  O  O374  1  0.87150772  0.88272590  0.10366737  1
  O  O375  1  0.84998400  0.86422778  0.65285149  1
  O  O376  1  0.12137094  0.13695594  0.39037087  1
  O  O377  1  0.14287858  0.15828545  0.87432652  1
  O  O378  1  0.12921000  0.61713403  0.39074970  1
  O  O379  1  0.14875597  0.64019017  0.87258467  1
  O  O380  1  0.64905399  0.11223620  0.38875693  1
  O  O381  1  0.63976560  0.13341481  0.86039427  1
  O  O382  1  0.63294593  0.62252729  0.36698954  1
  O  O383  1  0.61846185  0.62651152  0.87526410  1
