# generated using pymatgen
data_VZnO4
_symmetry_space_group_name_H-M   'P 1'
_cell_length_a   16.99859963
_cell_length_b   16.94892504
_cell_length_c   16.94022234
_cell_angle_alpha   90.39918236
_cell_angle_beta   90.09175499
_cell_angle_gamma   90.14324408
_symmetry_Int_Tables_number   1
_chemical_formula_structural   VZnO4
_chemical_formula_sum   'V64 Zn64 O256'
_cell_volume   4880.47332617
_cell_formula_units_Z   64
loop_
 _symmetry_equiv_pos_site_id
 _symmetry_equiv_pos_as_xyz
  1  'x, y, z'
loop_
 _atom_site_type_symbol
 _atom_site_label
 _atom_site_symmetry_multiplicity
 _atom_site_fract_x
 _atom_site_fract_y
 _atom_site_fract_z
 _atom_site_occupancy
  V  V0  1  0.76580101  -0.03800646  0.73796332  1
  V  V1  1  0.38635015  0.62972434  0.24125549  1
  V  V2  1  0.37439332  0.13333889  0.23869989  1
  V  V3  1  0.74629982  0.12795271  0.38985953  1
  V  V4  1  0.66604967  0.23396500  0.89372466  1
  V  V5  1  0.13344170  0.87113296  0.23675599  1
  V  V6  1  0.13970911  0.36314332  0.24538147  1
  V  V7  1  -0.00097256  0.27353916  0.76818745  1
  V  V8  1  0.37334604  0.48810333  0.87726584  1
  V  V9  1  0.49490387  -0.00951967  -0.00105194  1
  V  V10  1  0.88846686  0.11943087  0.25157602  1
  V  V11  1  -0.00406258  0.86343906  0.88678882  1
  V  V12  1  0.21655315  -0.00969050  0.71664427  1
  V  V13  1  0.38416442  0.00001385  0.38653218  1
  V  V14  1  0.12409422  0.24379474  0.38044191  1
  V  V15  1  0.00901199  0.61106686  0.13560280  1
  V  V16  1  0.48370231  0.75424746  0.75639062  1
  V  V17  1  0.59854759  0.01059022  0.62858695  1
  V  V18  1  0.75908101  0.86628180  0.11355723  1
  V  V19  1  0.00536900  0.15256910  0.61445148  1
  V  V20  1  0.35670757  0.36493889  0.50390282  1
  V  V21  1  0.61591131  0.65907369  0.50018596  1
  V  V22  1  0.62563193  0.39570362  0.23096769  1
  V  V23  1  0.86837900  0.16205643  0.74006828  1
  V  V24  1  0.63460719  0.00743707  0.11765445  1
  V  V25  1  0.25053085  0.49397809  0.23822403  1
  V  V26  1  0.51132984  0.25330217  0.24860971  1
  V  V27  1  0.24742596  0.49957734  0.74069445  1
  V  V28  1  0.01805042  -0.00708199  0.51105524  1
  V  V29  1  0.12715250  0.61704541  0.00647661  1
  V  V30  1  0.87918250  -0.00957647  0.38797486  1
  V  V31  1  0.24260230  0.25493882  0.00432622  1
  V  V32  1  0.61787873  0.63069490  0.00388492  1
  V  V33  1  -0.03005303  0.40697295  0.37063918  1
  V  V34  1  0.60651847  0.87711410  0.76217676  1
  V  V35  1  0.38876040  0.37050613  0.00944908  1
  V  V36  1  0.32937562  -0.01824999  0.84727630  1
  V  V37  1  -0.00038771  0.62192446  0.62726471  1
  V  V38  1  0.12062256  0.11380903  -0.02054018  1
  V  V39  1  0.12545271  0.60957903  0.50257972  1
  V  V40  1  0.25997053  0.75832918  0.03218270  1
  V  V41  1  0.86973159  0.51123981  0.86263871  1
  V  V42  1  -0.00020664  0.86285665  0.37318277  1
  V  V43  1  0.00414598  0.39673250  0.90334522  1
  V  V44  1  0.04067882  0.75058878  0.74894406  1
  V  V45  1  0.25165966  0.12918719  0.38337613  1
  V  V46  1  -0.05221481  0.30037388  0.21207269  1
  V  V47  1  0.25321352  0.62401979  0.37869774  1
  V  V48  1  0.13780509  0.75362872  0.37967217  1
  V  V49  1  0.61708035  0.86928846  0.25164694  1
  V  V50  1  0.50994601  0.13080426  0.11657731  1
  V  V51  1  0.36958145  0.76352246  0.60276331  1
  V  V52  1  0.25386850  -0.00609745  0.23246390  1
  V  V53  1  0.24917080  0.63205564  0.87582009  1
  V  V54  1  0.89913651  0.75110767  0.12608401  1
  V  V55  1  0.49922163  0.86798265  0.38274907  1
  V  V56  1  0.49659075  0.62023910  0.62439065  1
  V  V57  1  0.75264901  -0.00729393  0.25698291  1
  V  V58  1  0.37733692  0.49604579  0.38276587  1
  V  V59  1  0.63421456  0.37938158  0.78591777  1
  V  V60  1  0.00554792  0.09137427  0.11834753  1
  V  V61  1  0.51099343  0.37358499  0.37980141  1
  V  V62  1  0.12769033  0.38000595  0.71979534  1
  V  V63  1  0.74445255  0.62022545  0.38494200  1
  Zn  Zn64  1  0.18541853  0.17979532  0.18299063  1
  Zn  Zn65  1  0.13439723  0.15730110  0.74468442  1
  Zn  Zn66  1  0.18903093  0.68372991  0.19303272  1
  Zn  Zn67  1  0.19860355  0.68167694  0.68268050  1
  Zn  Zn68  1  0.69455845  0.18529995  0.20398636  1
  Zn  Zn69  1  0.65538874  0.16275867  0.74490838  1
  Zn  Zn70  1  0.69142052  0.68779693  0.19637174  1
  Zn  Zn71  1  0.67165435  0.71520365  0.67747616  1
  Zn  Zn72  1  0.31456274  0.31141371  0.31056630  1
  Zn  Zn73  1  0.29433358  0.31452667  0.81908420  1
  Zn  Zn74  1  0.31859413  0.81399686  0.30985836  1
  Zn  Zn75  1  0.30088115  0.81868865  0.79605621  1
  Zn  Zn76  1  0.82470048  0.29242046  0.44758864  1
  Zn  Zn77  1  0.81468856  0.33074306  0.82135648  1
  Zn  Zn78  1  0.80966320  0.79326025  0.30700620  1
  Zn  Zn79  1  0.81465013  0.81187342  0.79936086  1
  Zn  Zn80  1  0.19002507  0.43200682  0.43155657  1
  Zn  Zn81  1  0.18967560  0.44135725  0.93824673  1
  Zn  Zn82  1  0.19192835  0.94877600  0.42728015  1
  Zn  Zn83  1  0.18243115  0.91840773  0.96206827  1
  Zn  Zn84  1  0.75336986  0.41152004  0.35325681  1
  Zn  Zn85  1  0.69373085  0.45210232  0.95016434  1
  Zn  Zn86  1  0.66956031  0.95512839  0.44119326  1
  Zn  Zn87  1  0.80869151  0.93202953  0.92496955  1
  Zn  Zn88  1  0.31231543  0.06625561  0.04351215  1
  Zn  Zn89  1  0.31275214  0.07111241  0.56835107  1
  Zn  Zn90  1  0.31569546  0.56141718  0.05835698  1
  Zn  Zn91  1  0.31681310  0.56662812  0.56045131  1
  Zn  Zn92  1  0.83191623  0.04194280  0.07634446  1
  Zn  Zn93  1  0.81690837  0.06393038  0.57545221  1
  Zn  Zn94  1  0.83471469  0.61886672  0.02463262  1
  Zn  Zn95  1  0.82032642  0.66299270  0.54315402  1
  Zn  Zn96  1  0.43989591  0.44351715  0.18382535  1
  Zn  Zn97  1  0.43210958  0.44296399  0.69003916  1
  Zn  Zn98  1  0.44661043  0.95428749  0.19181624  1
  Zn  Zn99  1  0.42595602  0.93795743  0.68649871  1
  Zn  Zn100  1  0.92834831  0.43443440  0.08292589  1
  Zn  Zn101  1  0.94168616  0.46073200  0.69992831  1
  Zn  Zn102  1  0.93984356  0.92537426  0.19737056  1
  Zn  Zn103  1  0.98458488  0.95728108  0.72347884  1
  Zn  Zn104  1  0.06896484  0.05165775  0.31662505  1
  Zn  Zn105  1  0.10510941  -0.00527416  0.84417512  1
  Zn  Zn106  1  0.07345923  0.55946944  0.30514866  1
  Zn  Zn107  1  0.07021439  0.56427950  0.81394888  1
  Zn  Zn108  1  0.56634368  0.06381064  0.31024008  1
  Zn  Zn109  1  0.63402636  0.01870868  0.86855527  1
  Zn  Zn110  1  0.56283229  0.56376966  0.31952384  1
  Zn  Zn111  1  0.55250728  0.56595065  0.80698196  1
  Zn  Zn112  1  0.42993626  0.19436220  0.42679757  1
  Zn  Zn113  1  0.26936190  0.13296343  0.86416530  1
  Zn  Zn114  1  0.44100331  0.68663146  0.43481531  1
  Zn  Zn115  1  0.42411581  0.68495173  0.93615333  1
  Zn  Zn116  1  0.94790119  0.17338090  0.43419676  1
  Zn  Zn117  1  0.94040565  0.06281883  0.91466313  1
  Zn  Zn118  1  0.94336103  0.59878835  0.42643458  1
  Zn  Zn119  1  0.94966046  0.69635544  0.94120626  1
  Zn  Zn120  1  0.07096181  0.30374020  0.05990497  1
  Zn  Zn121  1  0.06433585  0.32464688  0.53950178  1
  Zn  Zn122  1  0.07427525  0.80445153  0.05083378  1
  Zn  Zn123  1  0.05706636  0.80090427  0.55129165  1
  Zn  Zn124  1  0.56842096  0.30703387  0.05320863  1
  Zn  Zn125  1  0.50283267  0.31706950  0.58525623  1
  Zn  Zn126  1  0.59875175  0.83375042  0.03907493  1
  Zn  Zn127  1  0.54879216  0.82819728  0.57333906  1
  O  O128  1  0.10214530  0.11656929  0.13652306  1
  O  O129  1  0.09890546  0.12775829  0.63424972  1
  O  O130  1  0.12058036  0.62795725  0.11981810  1
  O  O131  1  0.13198026  0.62277057  0.60440571  1
  O  O132  1  0.61736672  0.12002082  0.14070920  1
  O  O133  1  0.61680725  0.10958165  0.65627443  1
  O  O134  1  0.61949039  0.64477664  0.10752755  1
  O  O135  1  0.61174816  0.64171070  0.60957185  1
  O  O136  1  0.37609549  0.38099480  0.38448379  1
  O  O137  1  0.36580316  0.38157862  0.88137636  1
  O  O138  1  0.38565263  0.89110936  0.36738663  1
  O  O139  1  0.36507082  0.89082430  0.86965280  1
  O  O140  1  0.87174673  0.38147623  0.36753687  1
  O  O141  1  0.89258860  0.40013859  0.87483741  1
  O  O142  1  0.89609670  0.87457517  0.36131650  1
  O  O143  1  0.88010611  0.85314221  0.87730505  1
  O  O144  1  0.26618745  0.00941806  0.36544640  1
  O  O145  1  0.22699744  -0.01915709  0.87064255  1
  O  O146  1  0.26328521  0.50302870  0.36992382  1
  O  O147  1  0.25263179  0.50294424  0.86468614  1
  O  O148  1  0.76047844  -0.00180644  0.37087291  1
  O  O149  1  0.75080063  -0.00756503  0.83876514  1
  O  O150  1  0.75678960  0.52596871  0.35889368  1
  O  O151  1  0.77228120  0.49652872  0.88147216  1
  O  O152  1  0.25045562  0.50437023  0.14115541  1
  O  O153  1  0.25911022  0.51023653  0.64194273  1
  O  O154  1  0.25723618  1.00610072  0.13511990  1
  O  O155  1  0.23720903  1.00652720  0.61969710  1
  O  O156  1  0.74897886  0.57017008  0.16225633  1
  O  O157  1  0.69566698  0.46786142  0.62296104  1
  O  O158  1  0.75240347  0.99106986  0.13808699  1
  O  O159  1  0.74638333  1.01219596  0.64963412  1
  O  O160  1  0.01221936  0.36386498  0.27780921  1
  O  O161  1  0.01124934  0.37858285  0.73679002  1
  O  O162  1  0.02630316  0.88826819  0.26631618  1
  O  O163  1  0.00179095  0.84604006  0.74925603  1
  O  O164  1  0.49934702  0.36336627  0.24902011  1
  O  O165  1  0.51459448  0.36843081  0.74109657  1
  O  O166  1  0.51315963  0.88391992  0.24958369  1
  O  O167  1  0.49742829  0.86812268  0.75360959  1
  O  O168  1  0.49170678  0.13618969  0.25153982  1
  O  O169  1  0.47388179  0.15072548  0.77899961  1
  O  O170  1  0.48425112  0.61992842  0.26073730  1
  O  O171  1  0.50819710  0.64258014  0.73341607  1
  O  O172  1  0.99095094  0.10170227  0.24654776  1
  O  O173  1  1.00018970  0.17092242  0.73805620  1
  O  O174  1  1.01752160  0.62711000  0.23533630  1
  O  O175  1  1.01835491  0.63871479  0.73948610  1
  O  O176  1  0.34953558  0.27216750  -0.00402681  1
  O  O177  1  0.37106861  0.26551596  0.49209195  1
  O  O178  1  0.35612304  0.74194230  0.00110356  1
  O  O179  1  0.37581847  0.75022922  0.50146714  1
  O  O180  1  0.82990821  0.27905106  0.03414829  1
  O  O181  1  0.89370389  0.23716499  0.50630403  1
  O  O182  1  0.87052747  0.73648849  0.02185985  1
  O  O183  1  0.78289463  0.82958918  0.47179732  1
  O  O184  1  0.13207889  0.25167122  0.47980315  1
  O  O185  1  0.12451471  0.22241414  1.00322251  1
  O  O186  1  0.12821878  0.73701117  0.48157457  1
  O  O187  1  0.15213907  0.73718750  1.00547296  1
  O  O188  1  0.67227853  0.33502272  0.49634497  1
  O  O189  1  0.63029473  0.24007520  0.98891399  1
  O  O190  1  0.61525312  0.75729831  0.49859575  1
  O  O191  1  0.62354230  0.73561528  0.98875848  1
  O  O192  1  0.50571580  0.23770563  0.13660542  1
  O  O193  1  0.51446903  0.19689187  0.57756734  1
  O  O194  1  0.48831087  0.76817714  0.11545707  1
  O  O195  1  0.48564806  0.74741427  0.62836575  1
  O  O196  1  0.99781765  0.25177977  0.14074084  1
  O  O197  1  1.00484481  0.25247550  0.60533197  1
  O  O198  1  0.99975779  0.75719327  0.12614945  1
  O  O199  1  1.02564815  0.73961591  0.63809594  1
  O  O200  1  0.02508109  0.22596714  0.36733930  1
  O  O201  1  -0.00627117  0.28230204  0.86754216  1
  O  O202  1  0.01879391  0.76287373  0.36983847  1
  O  O203  1  0.00319961  0.75200312  0.85846699  1
  O  O204  1  0.49262053  0.26312689  0.35799149  1
  O  O205  1  0.46465077  0.19234406  0.83703303  1
  O  O206  1  0.49193183  0.76925419  0.37122611  1
  O  O207  1  0.48016851  0.73961168  0.85511028  1
  O  O208  1  0.25801022  0.12480678  0.48169754  1
  O  O209  1  0.23493392  0.12690180  0.98614980  1
  O  O210  1  0.24170892  0.61678591  0.48580496  1
  O  O211  1  0.24587749  0.63073797  0.99417715  1
  O  O212  1  0.76236631  0.11318604  0.48790279  1
  O  O213  1  0.79265170  0.23032309  1.07609660  1
  O  O214  1  0.72010864  0.62620136  0.49944895  1
  O  O215  1  0.72264323  0.62943246  1.00138426  1
  O  O216  1  0.21406252  0.35277316  0.00442484  1
  O  O217  1  0.25876607  0.37799827  0.50762945  1
  O  O218  1  0.25137449  0.85988380  0.02239384  1
  O  O219  1  0.22734793  0.87038450  0.52238444  1
  O  O220  1  0.76568340  0.44924747  0.04589215  1
  O  O221  1  0.74728064  0.37534859  0.46542909  1
  O  O222  1  0.74640134  0.87866084  0.01474229  1
  O  O223  1  0.73932909  0.88266448  0.50814578  1
  O  O224  1  0.14457532  0.48053898  0.26461300  1
  O  O225  1  0.13208434  0.48687961  0.74724426  1
  O  O226  1  0.14748671  0.98742437  0.25737148  1
  O  O227  1  0.11112461  0.99192835  0.72838632  1
  O  O228  1  0.61410740  0.49545325  0.24360525  1
  O  O229  1  0.61767319  0.47975951  0.77644929  1
  O  O230  1  0.63822897  0.99576637  0.24234828  1
  O  O231  1  0.62772597  0.98513324  0.74542470  1
  O  O232  1  0.36742004  0.00805126  0.25245771  1
  O  O233  1  0.34469720  -0.00208144  0.74482596  1
  O  O234  1  0.36397049  0.50010319  0.25994408  1
  O  O235  1  0.35436450  0.48418106  0.76152602  1
  O  O236  1  0.87000401  -0.00151874  0.26073781  1
  O  O237  1  0.86471061  -0.05008163  0.73049214  1
  O  O238  1  0.79501053  0.52791901  0.19973242  1
  O  O239  1  0.87515639  0.52537010  0.76275865  1
  O  O240  1  0.13781747  0.35462290  0.36458955  1
  O  O241  1  0.10162566  0.38850764  0.87943108  1
  O  O242  1  0.13166558  0.86332843  0.37400252  1
  O  O243  1  0.10139472  0.88045472  0.88472739  1
  O  O244  1  0.60697457  0.38407684  0.35594070  1
  O  O245  1  0.64284164  0.37016867  0.89185851  1
  O  O246  1  0.61032511  0.89048459  0.36101118  1
  O  O247  1  0.62183999  0.88705451  0.86019443  1
  O  O248  1  0.39307965  0.11776024  0.13672545  1
  O  O249  1  0.36822605  0.15265395  0.63794704  1
  O  O250  1  0.37453680  0.61422406  0.14167059  1
  O  O251  1  0.39332931  0.63449927  0.61061620  1
  O  O252  1  0.89179320  0.11451138  0.14152719  1
  O  O253  1  0.90043495  0.11255377  0.64628290  1
  O  O254  1  0.90221871  0.63559882  0.12218083  1
  O  O255  1  0.90096121  0.63507110  0.61675228  1
  O  O256  1  0.24787667  0.22934887  0.10376645  1
  O  O257  1  0.32231564  0.21113728  0.66732400  1
  O  O258  1  0.26264936  0.74287481  0.13168758  1
  O  O259  1  0.27255453  0.73782062  0.62321256  1
  O  O260  1  0.74260325  0.26394979  0.13174096  1
  O  O261  1  0.68492091  0.28739985  0.55141146  1
  O  O262  1  0.74618744  0.76636766  0.12833198  1
  O  O263  1  0.76434761  0.73741636  0.61413430  1
  O  O264  1  0.25205126  0.23242261  0.36657826  1
  O  O265  1  0.24395773  0.24074735  0.88558695  1
  O  O266  1  0.24444430  0.74049376  0.37110662  1
  O  O267  1  0.25976220  0.73009160  0.86121897  1
  O  O268  1  0.76008848  0.22652575  0.37527913  1
  O  O269  1  0.76483169  0.25543233  0.89140075  1
  O  O270  1  0.74844833  0.79346882  0.40698999  1
  O  O271  1  0.79571366  0.69297533  0.80437895  1
  O  O272  1  0.00640928  0.11146431  0.01191911  1
  O  O273  1  -0.00193884  0.10381531  0.51478636  1
  O  O274  1  0.02370007  0.63663066  0.01102067  1
  O  O275  1  0.01681604  0.62852294  0.50871541  1
  O  O276  1  0.50401014  0.12299506  0.02024856  1
  O  O277  1  0.51181630  0.15911794  0.51128041  1
  O  O278  1  0.51369076  0.63670721  0.00094350  1
  O  O279  1  0.51276402  0.62541421  0.50379169  1
  O  O280  1  0.50935788  0.36463077  0.48017422  1
  O  O281  1  0.48656473  0.36172513  0.99631557  1
  O  O282  1  0.50558208  0.88245519  0.48024699  1
  O  O283  1  0.51274215  0.89133576  1.00536758  1
  O  O284  1  1.00270856  0.37982931  0.46011076  1
  O  O285  1  0.99912321  0.38172691  1.00641626  1
  O  O286  1  1.00910062  0.87801384  0.48265336  1
  O  O287  1  0.99282563  0.85808807  0.98688867  1
  O  O288  1  0.48366200  0.48395948  0.36704111  1
  O  O289  1  0.47036271  0.50759728  0.86420816  1
  O  O290  1  0.48637811  1.00300723  0.36653060  1
  O  O291  1  0.52078853  1.01441392  0.90469344  1
  O  O292  1  0.98219177  0.51141189  0.36405395  1
  O  O293  1  0.99534492  0.49929581  0.87806676  1
  O  O294  1  0.99803108  0.99052564  0.38772580  1
  O  O295  1  0.98640180  0.97288424  0.85098916  1
  O  O296  1  -0.00268864  -0.00746861  0.12215636  1
  O  O297  1  0.00066178  -0.02501046  0.60797296  1
  O  O298  1  -0.00047181  0.51247610  0.12479862  1
  O  O299  1  0.00783712  0.52159038  0.63121377  1
  O  O300  1  0.51592674  0.01218577  0.12246921  1
  O  O301  1  0.49710854  0.00861779  0.63401029  1
  O  O302  1  0.49502204  0.51604940  0.12171334  1
  O  O303  1  0.49835048  0.52087156  0.63585845  1
  O  O304  1  0.24919266  0.38087293  0.24629108  1
  O  O305  1  0.23235058  0.38214562  0.74647537  1
  O  O306  1  0.24975027  0.88544009  0.24747988  1
  O  O307  1  0.23552530  0.89100105  0.73566643  1
  O  O308  1  0.72327022  0.37735086  0.25055252  1
  O  O309  1  0.72989721  0.37054482  0.75360898  1
  O  O310  1  0.74241175  0.88168152  0.24952947  1
  O  O311  1  0.72984150  0.85967266  0.74162202  1
  O  O312  1  0.26471054  0.11517116  0.24881805  1
  O  O313  1  0.22661216  0.09648101  0.76155415  1
  O  O314  1  0.25346274  0.60917347  0.26241949  1
  O  O315  1  0.23596755  0.60709233  0.76409893  1
  O  O316  1  0.76763582  0.11051424  0.25574039  1
  O  O317  1  0.77075666  0.16651315  0.72633327  1
  O  O318  1  0.74608555  0.67666245  0.29829878  1
  O  O319  1  0.74161778  0.65457846  0.76733455  1
  O  O320  1  0.37092665  0.11769421  0.36133380  1
  O  O321  1  0.36145459  0.06881314  0.89166007  1
  O  O322  1  0.37147216  0.60954082  0.37402751  1
  O  O323  1  0.35449001  0.60482425  0.88646097  1
  O  O324  1  0.87582572  0.10709523  0.36547404  1
  O  O325  1  0.88539472  0.11667248  0.82642068  1
  O  O326  1  0.84510146  0.64757153  0.42794082  1
  O  O327  1  0.88475484  0.60020568  0.91993246  1
  O  O328  1  0.11348624  0.36806094  0.14955536  1
  O  O329  1  0.12625524  0.37888504  0.62109821  1
  O  O330  1  0.12246548  0.86949607  0.13983736  1
  O  O331  1  0.17670667  0.86096392  0.57571243  1
  O  O332  1  0.61341026  0.37469048  0.13269183  1
  O  O333  1  0.56691047  0.34648386  0.67894365  1
  O  O334  1  0.63950053  0.88685907  0.13495199  1
  O  O335  1  0.61064110  0.89400405  0.64040672  1
  O  O336  1  0.14144169  0.25784392  0.25635990  1
  O  O337  1  0.11168751  0.27418250  0.74985510  1
  O  O338  1  0.13741045  0.76553476  0.26069316  1
  O  O339  1  0.13897158  0.75428041  0.75278949  1
  O  O340  1  0.61171452  0.25363194  0.25238496  1
  O  O341  1  0.61936268  0.26196882  0.79859044  1
  O  O342  1  0.62298482  0.77120946  0.24496340  1
  O  O343  1  0.60225600  0.76717163  0.74736411  1
  O  O344  1  0.37965551  0.23633048  0.24846468  1
  O  O345  1  0.35831357  0.25183835  0.72463254  1
  O  O346  1  0.36858741  0.72776323  0.25836360  1
  O  O347  1  0.38188655  0.75898579  0.73436330  1
  O  O348  1  0.88711814  0.22587649  0.25809295  1
  O  O349  1  0.88973206  0.27090076  0.74691296  1
  O  O350  1  0.87495564  0.75111577  0.22605966  1
  O  O351  1  0.82563552  0.80261421  0.63181985  1
  O  O352  1  0.37180546  0.49030642  0.48662971  1
  O  O353  1  0.35973257  0.48005471  0.98897551  1
  O  O354  1  0.37612525  1.01300182  0.48506428  1
  O  O355  1  0.39553077  0.99410027  1.02106498  1
  O  O356  1  0.85324082  0.45768770  0.55505483  1
  O  O357  1  0.83280271  0.48969778  1.03876478  1
  O  O358  1  0.88132513  0.99547048  0.48969965  1
  O  O359  1  0.85738222  1.01989184  0.97544873  1
  O  O360  1  0.13045253  0.01511054  0.00327433  1
  O  O361  1  0.11652944  -0.00187542  0.49694340  1
  O  O362  1  0.13653880  0.51714180  0.00833140  1
  O  O363  1  0.12375482  0.51138924  0.48242064  1
  O  O364  1  0.63167418  0.00733060  0.01793960  1
  O  O365  1  0.62262452  0.00693030  0.52804407  1
  O  O366  1  0.61991755  0.52589006  0.01234819  1
  O  O367  1  0.64889383  0.47199143  0.56824822  1
  O  O368  1  0.37709329  0.38185539  0.10938155  1
  O  O369  1  0.40104047  0.37465451  0.60134355  1
  O  O370  1  0.43237894  0.81351270  0.12471934  1
  O  O371  1  0.37728710  0.86448751  0.61321771  1
  O  O372  1  0.89026953  0.36708730  0.16641787  1
  O  O373  1  0.86584321  0.41070352  0.61065204  1
  O  O374  1  0.86620964  0.86860910  0.12619906  1
  O  O375  1  0.88121489  0.80056407  0.58271173  1
  O  O376  1  0.14559616  0.12763613  0.36301322  1
  O  O377  1  0.10323008  0.11069221  0.87865950  1
  O  O378  1  0.13379541  0.63374523  0.37597584  1
  O  O379  1  0.13854941  0.61983344  0.89078382  1
  O  O380  1  0.64677987  0.11302067  0.37265385  1
  O  O381  1  0.65581201  0.13303242  0.86365730  1
  O  O382  1  0.62879941  0.62091154  0.39320532  1
  O  O383  1  0.61450585  0.61794713  0.89757134  1
