# generated using pymatgen
data_VZnO4
_symmetry_space_group_name_H-M   'P 1'
_cell_length_a   16.87135644
_cell_length_b   16.88189331
_cell_length_c   16.94276815
_cell_angle_alpha   90.13051281
_cell_angle_beta   89.99808159
_cell_angle_gamma   90.06849923
_symmetry_Int_Tables_number   1
_chemical_formula_structural   VZnO4
_chemical_formula_sum   'V64 Zn64 O256'
_cell_volume   4825.63069900
_cell_formula_units_Z   64
loop_
 _symmetry_equiv_pos_site_id
 _symmetry_equiv_pos_as_xyz
  1  'x, y, z'
loop_
 _atom_site_type_symbol
 _atom_site_label
 _atom_site_symmetry_multiplicity
 _atom_site_fract_x
 _atom_site_fract_y
 _atom_site_fract_z
 _atom_site_occupancy
  V  V0  1  0.38544252  0.47947568  0.87834885  1
  V  V1  1  0.12763650  0.85390817  0.25164719  1
  V  V2  1  0.37424249  -0.00142332  0.87663136  1
  V  V3  1  0.38192640  0.36667632  0.01951743  1
  V  V4  1  0.88861855  0.00757078  0.89302237  1
  V  V5  1  0.26505069  0.61466251  0.87924103  1
  V  V6  1  0.73130048  0.24765710  0.49801970  1
  V  V7  1  0.63759250  0.63266795  0.49408843  1
  V  V8  1  0.38836254  0.09864072  0.22264400  1
  V  V9  1  0.65281675  0.75755039  0.37519781  1
  V  V10  1  0.51956601  0.60738400  0.11602414  1
  V  V11  1  0.35498742  0.87585587  0.48653359  1
  V  V12  1  0.24817482  0.12261536  0.85757329  1
  V  V13  1  0.25284067  0.24653738  0.01822416  1
  V  V14  1  -0.00687158  0.74997303  0.74400520  1
  V  V15  1  0.49876814  0.76778362  0.75452585  1
  V  V16  1  0.22784685  0.63095780  0.38069871  1
  V  V17  1  0.51175265  0.37082881  0.38072168  1
  V  V18  1  0.00274986  0.57825640  0.11593207  1
  V  V19  1  0.61961816  0.39409803  0.74808423  1
  V  V20  1  0.87887081  0.24474546  0.61926617  1
  V  V21  1  0.86916768  0.13455754  0.76729964  1
  V  V22  1  0.86261042  0.74180766  0.61619017  1
  V  V23  1  0.62975234  0.23877765  0.86813273  1
  V  V24  1  0.13263025  0.36920405  0.23059704  1
  V  V25  1  0.49789401  0.63421071  0.63030568  1
  V  V26  1  0.49766027  0.23918869  0.74298811  1
  V  V27  1  0.88917870  0.63100686  0.24455869  1
  V  V28  1  0.12982273  0.59989005  0.00422889  1
  V  V29  1  0.13058624  0.13211166  0.51957437  1
  V  V30  1  0.24776459  0.49899189  0.24079166  1
  V  V31  1  0.49559777  0.24866391  0.24345439  1
  V  V32  1  0.50650032  0.50878187  0.50390874  1
  V  V33  1  0.86580136  0.12042533  0.26467548  1
  V  V34  1  0.26714550  0.74354806  0.01273393  1
  V  V35  1  0.74596396  0.88457383  0.61842851  1
  V  V36  1  0.51123981  0.74385801  0.26700110  1
  V  V37  1  0.36306915  0.37871216  0.50923710  1
  V  V38  1  0.12546855  0.38298718  0.73489125  1
  V  V39  1  0.62971857  -0.00501666  0.15591583  1
  V  V40  1  0.88016987  0.39767892  -0.04159666  1
  V  V41  1  0.63074575  0.37814898  0.23043168  1
  V  V42  1  0.35172641  0.75674165  0.62421081  1
  V  V43  1  0.74156181  0.00261104  0.76779901  1
  V  V44  1  0.84575207  0.24677229  0.12074373  1
  V  V45  1  0.38589473  0.73265658  0.13861925  1
  V  V46  1  0.00738649  0.51061367  0.50927976  1
  V  V47  1  -0.00026840  0.24227839  0.24624527  1
  V  V48  1  0.36776701  0.24090482  0.62595715  1
  V  V49  1  0.26041363  0.88975549  0.13025611  1
  V  V50  1  0.87291438  0.38132620  0.48868230  1
  V  V51  1  0.73835155  0.11551579  0.38453007  1
  V  V52  1  0.01999201  0.37600469  0.37735274  1
  V  V53  1  0.25505306  0.49933453  0.73998405  1
  V  V54  1  0.12779808  0.25597260  0.88120816  1
  V  V55  1  0.49774010  -0.00393668  0.47732989  1
  V  V56  1  0.12834634  0.75835870  0.88801252  1
  V  V57  1  0.75125252  0.83931750  0.10164792  1
  V  V58  1  0.74702123  0.38810964  0.63003055  1
  V  V59  1  0.76754493  0.49526465  0.25497490  1
  V  V60  1  0.00302120  0.01434491  0.46317729  1
  V  V61  1  0.61798797  0.01700656  0.62082854  1
  V  V62  1  0.00211853  0.25467613  0.74941122  1
  V  V63  1  0.37453570  0.51014803  0.37241850  1
  Zn  Zn64  1  0.19947490  0.18410213  0.21624881  1
  Zn  Zn65  1  0.18776368  0.19178321  0.68133092  1
  Zn  Zn66  1  0.18347947  0.67317785  0.18633700  1
  Zn  Zn67  1  0.18185300  0.70188267  0.71191402  1
  Zn  Zn68  1  0.67618730  0.18522720  0.20064564  1
  Zn  Zn69  1  0.68975817  0.19268618  0.68660448  1
  Zn  Zn70  1  0.69503149  0.67455602  0.18860389  1
  Zn  Zn71  1  0.66958126  0.70928017  0.67774767  1
  Zn  Zn72  1  0.32247882  0.32802460  0.31412026  1
  Zn  Zn73  1  0.30860554  0.31177770  0.80358274  1
  Zn  Zn74  1  0.31162334  0.80842587  0.30721659  1
  Zn  Zn75  1  0.35133249  0.79191733  0.83411474  1
  Zn  Zn76  1  0.80557268  0.30465550  0.31212581  1
  Zn  Zn77  1  0.80492215  0.31999905  0.81208031  1
  Zn  Zn78  1  0.82126111  0.80212155  0.29126547  1
  Zn  Zn79  1  0.84457201  0.79943410  0.87039680  1
  Zn  Zn80  1  0.18785069  0.45027493  0.44297624  1
  Zn  Zn81  1  0.19973732  0.42363628  0.93428410  1
  Zn  Zn82  1  0.14682095  0.91373290  0.45917534  1
  Zn  Zn83  1  0.22495862  0.91115706  0.91082450  1
  Zn  Zn84  1  0.69411984  0.44631220  0.43629803  1
  Zn  Zn85  1  0.68124971  0.38212760  0.95583703  1
  Zn  Zn86  1  0.68610502  0.93833656  0.44353314  1
  Zn  Zn87  1  0.73558031  0.97464990  0.98329176  1
  Zn  Zn88  1  0.32204935  0.06878459  0.04440374  1
  Zn  Zn89  1  0.31757950  0.06066688  0.55243662  1
  Zn  Zn90  1  0.32876132  0.55461706  0.06259490  1
  Zn  Zn91  1  0.31363558  0.57372657  0.55723893  1
  Zn  Zn92  1  0.84313638  0.02884624  0.11083568  1
  Zn  Zn93  1  0.81815480  0.06079419  0.55858803  1
  Zn  Zn94  1  0.81471113  0.52642671  0.07611122  1
  Zn  Zn95  1  0.81986199  0.56317110  0.56325721  1
  Zn  Zn96  1  0.44163499  0.43636660  0.19293788  1
  Zn  Zn97  1  0.43864715  0.44230965  0.68849323  1
  Zn  Zn98  1  0.44573449  0.92276001  0.18922975  1
  Zn  Zn99  1  0.43662526  0.93118638  0.66835554  1
  Zn  Zn100  1  0.93330927  0.41640468  0.18747046  1
  Zn  Zn101  1  0.94194956  0.43118456  0.68325735  1
  Zn  Zn102  1  0.95501603  0.80869761  0.15942764  1
  Zn  Zn103  1  0.91837345  0.91352461  0.74122888  1
  Zn  Zn104  1  -0.00729238  -0.01492078  0.25109656  1
  Zn  Zn105  1  0.05422317  0.07895025  0.81727853  1
  Zn  Zn106  1  0.05925551  0.55301211  0.31158674  1
  Zn  Zn107  1  0.08126433  0.58116760  0.80064249  1
  Zn  Zn108  1  0.56580760  0.06065791  0.30471616  1
  Zn  Zn109  1  0.55452771  0.06087363  0.80388364  1
  Zn  Zn110  1  0.56714975  0.56594072  0.30899405  1
  Zn  Zn111  1  0.55959462  0.56179596  0.81066880  1
  Zn  Zn112  1  0.45050484  0.19573931  0.45572849  1
  Zn  Zn113  1  0.42968455  0.19715816  0.92005724  1
  Zn  Zn114  1  0.42976867  0.69414103  0.44393502  1
  Zn  Zn115  1  0.45286459  0.68109547  0.94225914  1
  Zn  Zn116  1  0.94379951  0.19247937  0.43301534  1
  Zn  Zn117  1  0.93423935  0.23047546  0.94060598  1
  Zn  Zn118  1  0.92505317  0.68684595  0.43987723  1
  Zn  Zn119  1  0.96428263  0.70756379  0.97999761  1
  Zn  Zn120  1  0.05003155  0.31722148  0.05935536  1
  Zn  Zn121  1  0.06599926  0.30839393  0.55736632  1
  Zn  Zn122  1  0.09018391  0.83360291  0.04114046  1
  Zn  Zn123  1  -0.05501559  0.90021937  0.56637648  1
  Zn  Zn124  1  0.56014887  0.29413757  0.05841828  1
  Zn  Zn125  1  0.55711435  0.31996236  0.57055957  1
  Zn  Zn126  1  0.55155353  0.83888932  0.08796579  1
  Zn  Zn127  1  0.56210006  0.81886350  0.55685451  1
  O  O128  1  0.12200375  0.10019111  0.13428956  1
  O  O129  1  0.11673144  0.12745426  0.62042365  1
  O  O130  1  0.11764689  0.61076627  0.11277514  1
  O  O131  1  0.10825377  0.70379074  0.54614514  1
  O  O132  1  0.61092760  0.09650538  0.16785984  1
  O  O133  1  0.63215855  0.11581493  0.62077165  1
  O  O134  1  0.61977013  0.62406923  0.12164366  1
  O  O135  1  0.60925686  0.63731964  0.60791802  1
  O  O136  1  0.38742217  0.38643353  0.39071040  1
  O  O137  1  0.37202701  0.37761324  0.87639285  1
  O  O138  1  0.37136203  0.86282292  0.38841916  1
  O  O139  1  0.32947770  0.89974455  0.85795687  1
  O  O140  1  0.86989985  0.37039994  0.38938564  1
  O  O141  1  0.88063536  0.39100722  0.85563368  1
  O  O142  1  0.91131058  0.84412795  0.36818260  1
  O  O143  1  0.88629263  0.90524287  0.86596593  1
  O  O144  1  0.16288320  0.03128449  0.29790208  1
  O  O145  1  0.24294419  0.02055696  0.88085312  1
  O  O146  1  0.26087927  0.50699738  0.37092397  1
  O  O147  1  0.25949013  0.50305568  0.87062489  1
  O  O148  1  0.75462980  0.01668119  0.39626483  1
  O  O149  1  0.74168603  0.00376816  0.87045286  1
  O  O150  1  0.74489677  0.50500197  0.35544129  1
  O  O151  1  0.65313848  0.56730658  0.88423117  1
  O  O152  1  0.26232701  0.50161111  0.14319393  1
  O  O153  1  0.25912086  0.51927905  0.64339299  1
  O  O154  1  0.26746111  0.98685877  0.11204333  1
  O  O155  1  0.24957528  0.99635537  0.63677666  1
  O  O156  1  0.74055663  0.50175200  0.15303370  1
  O  O157  1  0.75687071  0.48652552  0.62151291  1
  O  O158  1  0.72690402  0.99857806  0.09967640  1
  O  O159  1  0.74302867  0.99924185  0.62700827  1
  O  O160  1  0.01760720  0.37344102  0.25968633  1
  O  O161  1  0.01348040  0.36937082  0.75027732  1
  O  O162  1  0.02275599  0.87549330  0.22614379  1
  O  O163  1  0.01570295  0.84709191  0.75609068  1
  O  O164  1  0.51045805  0.37165922  0.26558914  1
  O  O165  1  0.51659063  0.37480632  0.73585992  1
  O  O166  1  0.50835691  0.84223044  0.24391879  1
  O  O167  1  0.49825626  0.86672837  0.74416209  1
  O  O168  1  0.48218049  0.14119256  0.27226076  1
  O  O169  1  0.49705379  0.14005604  0.73989568  1
  O  O170  1  0.51081515  0.63696292  0.23513176  1
  O  O171  1  0.49911527  0.62135134  0.73115772  1
  O  O172  1  0.98612912  0.14274107  0.26347360  1
  O  O173  1  0.98130302  0.14184554  0.74959757  1
  O  O174  1  1.00156735  0.60261525  0.22384123  1
  O  O175  1  1.07054180  0.67172422  0.73162377  1
  O  O176  1  0.36356641  0.25410943  0.00124969  1
  O  O177  1  0.38371709  0.27021607  0.51501641  1
  O  O178  1  0.37213642  0.73556813  0.01432047  1
  O  O179  1  0.37157408  0.76325845  0.51171955  1
  O  O180  1  0.87198237  0.21056640  0.02828253  1
  O  O181  1  0.87727196  0.26108915  0.51166226  1
  O  O182  1  0.85417328  0.72562817  -0.04125757  1
  O  O183  1  0.86716862  0.74827868  0.51614120  1
  O  O184  1  0.11951678  0.23294528  0.49489905  1
  O  O185  1  0.13202003  0.26083782  0.98659727  1
  O  O186  1  0.10746297  0.74832386  0.48917200  1
  O  O187  1  0.15269775  0.72686330  0.99932452  1
  O  O188  1  0.63339046  0.25341928  0.51045415  1
  O  O189  1  0.62662490  0.27652172  0.96911004  1
  O  O190  1  0.62617489  0.74233230  0.48836464  1
  O  O191  1  0.60356719  0.74684111  0.95866055  1
  O  O192  1  0.50547970  0.24319283  0.14445245  1
  O  O193  1  0.48769433  0.25736278  0.63259035  1
  O  O194  1  0.49234771  0.74399705  0.12189943  1
  O  O195  1  0.49883610  0.74604263  0.63309173  1
  O  O196  1  1.00065964  0.25085349  0.14415479  1
  O  O197  1  0.98500246  0.26200101  0.63426322  1
  O  O198  1  1.00168679  0.76656019  0.06819988  1
  O  O199  1  0.96811390  0.75225775  0.63988544  1
  O  O200  1  -0.00877440  0.27071859  0.36147751  1
  O  O201  1  0.01725166  0.24381347  0.86398326  1
  O  O202  1  -0.03368039  0.79378476  0.38391654  1
  O  O203  1  0.02832311  0.73717455  0.87733621  1
  O  O204  1  0.49763433  0.26832740  0.38102292  1
  O  O205  1  0.50441845  0.25401331  0.85136244  1
  O  O206  1  0.50219956  0.74081091  0.36748276  1
  O  O207  1  0.46207187  0.75072131  0.85450757  1
  O  O208  1  0.23236226  0.11925115  0.50858859  1
  O  O209  1  0.25423597  0.14329081  0.98625630  1
  O  O210  1  0.24534715  0.61784247  0.48059685  1
  O  O211  1  0.24977685  0.61544146  0.99697955  1
  O  O212  1  0.75398401  0.14055210  0.49667902  1
  O  O213  1  0.60972368  0.06921597  1.00996315  1
  O  O214  1  0.73533453  0.61764918  0.50499055  1
  O  O215  1  0.80110810  0.64395181  0.94594574  1
  O  O216  1  0.25977266  0.35500059  0.00119064  1
  O  O217  1  0.26450694  0.38291617  0.49478893  1
  O  O218  1  0.25928861  0.84853449  0.01650404  1
  O  O219  1  0.25395309  0.88676254  0.49290921  1
  O  O220  1  0.78979795  0.35686008  -0.01874566  1
  O  O221  1  0.75751940  0.36863728  0.50621109  1
  O  O222  1  0.75836969  0.86149802  0.00083496  1
  O  O223  1  0.76017069  0.88508944  0.51969455  1
  O  O224  1  0.13756746  0.48094143  0.25252664  1
  O  O225  1  0.13478698  0.49039382  0.75374549  1
  O  O226  1  0.12053269  0.99095791  0.23959689  1
  O  O227  1  0.11043835  0.99474766  0.75365842  1
  O  O228  1  0.62225189  0.47988790  0.25535940  1
  O  O229  1  0.62212371  0.49403543  0.74164336  1
  O  O230  1  0.63505141  0.97470435  0.25334726  1
  O  O231  1  0.63888527  1.01092285  0.74101141  1
  O  O232  1  0.39277529  0.00119705  0.25001618  1
  O  O233  1  0.35226204  -0.00035953  0.72437141  1
  O  O234  1  0.36319074  0.48464789  0.26717876  1
  O  O235  1  0.36163316  0.49001712  0.76293037  1
  O  O236  1  0.87815568  0.02078266  0.25253888  1
  O  O237  1  0.86926209  0.02177155  0.77166644  1
  O  O238  1  0.87165983  0.49145180  0.25049612  1
  O  O239  1  0.92004902  0.53088321  0.76803165  1
  O  O240  1  0.12024932  0.37228906  0.38061996  1
  O  O241  1  0.13300793  0.36034728  0.86080750  1
  O  O242  1  0.13377089  0.87121440  0.35054105  1
  O  O243  1  0.12548543  0.85798781  0.92722236  1
  O  O244  1  0.61146175  0.38077937  0.38704284  1
  O  O245  1  0.63321654  0.37506758  0.84910257  1
  O  O246  1  0.63606242  0.85625300  0.38261197  1
  O  O247  1  0.59949046  0.81611415  0.92727884  1
  O  O248  1  0.39750613  0.10333462  0.12309177  1
  O  O249  1  0.37184220  0.14209563  0.61566633  1
  O  O250  1  0.39112064  0.62815773  0.12790251  1
  O  O251  1  0.39019330  0.64341573  0.61024189  1
  O  O252  1  0.85865640  0.13649131  0.15699897  1
  O  O253  1  0.87161605  0.14368733  0.62939526  1
  O  O254  1  0.89965581  0.60496320  0.12069638  1
  O  O255  1  0.84955724  0.64361295  0.63683833  1
  O  O256  1  0.23754565  0.23498204  0.11525514  1
  O  O257  1  0.26820598  0.25959815  0.63548949  1
  O  O258  1  0.26687489  0.72693503  0.12095485  1
  O  O259  1  0.25291309  0.73633737  0.63176123  1
  O  O260  1  0.74475388  0.24357567  0.12883732  1
  O  O261  1  0.76035444  0.25879753  0.61397955  1
  O  O262  1  0.75629414  0.74002513  0.11417617  1
  O  O263  1  0.75661680  0.77253778  0.64328488  1
  O  O264  1  0.27463161  0.23158388  0.38304495  1
  O  O265  1  0.24096142  0.24261717  0.87049345  1
  O  O266  1  0.25362005  0.72652164  0.36220341  1
  O  O267  1  0.26935641  0.72915613  0.89688088  1
  O  O268  1  0.74579285  0.25032060  0.39551855  1
  O  O269  1  0.73066278  0.24498292  0.85298102  1
  O  O270  1  0.75378082  0.75244066  0.36670912  1
  O  O271  1  0.73186081  0.74891441  0.84164558  1
  O  O272  1  0.11917535  0.10662269  0.06153136  1
  O  O273  1  0.01151120  0.12103144  0.48803537  1
  O  O274  1  0.01918485  0.60667480  0.00492645  1
  O  O275  1  -0.01372200  0.60812689  0.49190472  1
  O  O276  1  0.50341202  0.14925798  0.00522336  1
  O  O277  1  0.48441716  0.09845005  0.49070536  1
  O  O278  1  0.50350632  0.61564553  0.01431688  1
  O  O279  1  0.50351362  0.61884094  0.50164491  1
  O  O280  1  0.49805525  0.39300917  0.49637203  1
  O  O281  1  0.48071129  0.35857011  1.00222623  1
  O  O282  1  0.48617462  0.88964562  0.51183181  1
  O  O283  1  0.56349912  0.87292516  0.97198564  1
  O  O284  1  0.99029315  0.37608681  0.49085575  1
  O  O285  1  0.96699020  0.34218202  0.98642428  1
  O  O286  1  1.03256772  0.91125981  0.49927709  1
  O  O287  1  0.99606715  0.92348944  1.03841248  1
  O  O288  1  0.49153391  0.49714553  0.38225932  1
  O  O289  1  0.48310360  0.49904876  0.86888867  1
  O  O290  1  0.51193714  0.98781873  0.37970317  1
  O  O291  1  0.46882615  0.99714261  0.84216602  1
  O  O292  1  0.99981125  0.48016744  0.38240600  1
  O  O293  1  0.96709380  0.54094696  0.82651789  1
  O  O294  1  0.99154456  1.00456609  0.36558012  1
  O  O295  1  0.98614929  1.02872603  0.89657270  1
  O  O296  1  -0.03295408  0.01826590  0.12878623  1
  O  O297  1  0.00442325  -0.01406021  0.67128019  1
  O  O298  1  0.00370175  0.47940559  0.11482606  1
  O  O299  1  -0.00886697  0.49984321  0.60935769  1
  O  O300  1  0.53464997  -0.04387085  0.11976498  1
  O  O301  1  0.51819066  0.00422874  0.63766138  1
  O  O302  1  0.50230373  0.50911697  0.13317105  1
  O  O303  1  0.49133764  0.51611446  0.60941977  1
  O  O304  1  0.23823235  0.37668502  0.25571298  1
  O  O305  1  0.23892511  0.38884702  0.74729563  1
  O  O306  1  0.24602582  0.87297482  0.23748787  1
  O  O307  1  0.27611698  0.97481433  0.70520827  1
  O  O308  1  0.73824484  0.37985262  0.25531663  1
  O  O309  1  0.74135908  0.37532139  0.73379249  1
  O  O310  1  0.79434175  0.87891119  0.20679742  1
  O  O311  1  0.75903803  0.90584878  0.74386463  1
  O  O312  1  0.29558236  0.13344402  0.24559724  1
  O  O313  1  0.24463739  0.12667042  0.75815352  1
  O  O314  1  0.24078436  0.60308356  0.26100934  1
  O  O315  1  0.24347555  0.61290104  0.77191794  1
  O  O316  1  0.75579041  0.13406147  0.27420930  1
  O  O317  1  0.76463884  0.11953975  0.74288339  1
  O  O318  1  0.78168066  0.61567165  0.24282673  1
  O  O319  1  0.73575161  0.68467222  0.80370858  1
  O  O320  1  0.32213596  0.17535939  0.39469341  1
  O  O321  1  0.35990346  0.11533939  0.86888887  1
  O  O322  1  0.37763202  0.61081249  0.37671116  1
  O  O323  1  0.36784275  0.60493500  0.88682469  1
  O  O324  1  0.86268116  0.13863454  0.37123739  1
  O  O325  1  0.87171595  0.13719199  0.86889530  1
  O  O326  1  0.90450807  0.63149704  0.34352005  1
  O  O327  1  0.81030041  0.60863464  0.88262044  1
  O  O328  1  0.12501454  0.37018090  0.13232270  1
  O  O329  1  0.12250155  0.37372334  0.63578603  1
  O  O330  1  0.15411313  0.87114437  0.12808912  1
  O  O331  1  0.08230640  0.97442085  0.68303313  1
  O  O332  1  0.61964148  0.37127707  0.13198030  1
  O  O333  1  0.63980286  0.37544817  0.62892111  1
  O  O334  1  0.65510838  0.86297632  0.13200943  1
  O  O335  1  0.64045184  0.88254379  0.62457524  1
  O  O336  1  0.11680081  0.25996040  0.25110478  1
  O  O337  1  0.11832751  0.26162532  0.75045645  1
  O  O338  1  0.12602626  0.75398371  0.24020838  1
  O  O339  1  0.16912261  0.78032323  0.79850719  1
  O  O340  1  0.61179823  0.26846341  0.25677976  1
  O  O341  1  0.61317265  0.25547483  0.74822451  1
  O  O342  1  0.62677795  0.73681288  0.26992557  1
  O  O343  1  0.59697475  0.74122031  0.75873276  1
  O  O344  1  0.39616739  0.26975301  0.25114777  1
  O  O345  1  0.38706228  0.26158297  0.73698183  1
  O  O346  1  0.38892514  0.74020722  0.24330959  1
  O  O347  1  0.38053546  0.75250439  0.72730431  1
  O  O348  1  0.88188967  0.25072834  0.24388409  1
  O  O349  1  0.87707846  0.24827223  0.74282300  1
  O  O350  1  0.89219760  0.73405508  0.22619752  1
  O  O351  1  0.89862044  0.73905405  0.78137290  1
  O  O352  1  0.38344235  0.49769512  0.49037137  1
  O  O353  1  0.36948078  0.47674280  0.98877765  1
  O  O354  1  0.38183157  0.98500554  0.49777706  1
  O  O355  1  0.38397531  0.99765287  0.97555870  1
  O  O356  1  0.87831733  0.48430796  0.50047542  1
  O  O357  1  0.87870853  0.49508695  0.99051903  1
  O  O358  1  0.90791264  1.00375606  0.51581219  1
  O  O359  1  0.85324339  1.01614895  0.98897876  1
  O  O360  1  0.01496499  -0.00723338  0.06714439  1
  O  O361  1  0.11538800  0.02748122  0.47408490  1
  O  O362  1  0.13730486  0.50151442  -0.00803194  1
  O  O363  1  0.10804587  0.50065809  0.50257513  1
  O  O364  1  0.53770697  0.07853068  -0.01321762  1
  O  O365  1  0.60898540  -0.00559245  0.51263823  1
  O  O366  1  0.68741739  0.49657712  -0.00709889  1
  O  O367  1  0.61208397  0.51314135  0.49476024  1
  O  O368  1  0.37599787  0.37697147  0.11858760  1
  O  O369  1  0.37509833  0.38791235  0.61024485  1
  O  O370  1  0.36447035  0.85071401  0.13393713  1
  O  O371  1  0.36035330  0.86259757  0.61564577  1
  O  O372  1  0.86995621  0.34831190  0.12424468  1
  O  O373  1  0.86396945  0.36785844  0.62120528  1
  O  O374  1  0.85283147  0.88238032  0.14135981  1
  O  O375  1  0.86776299  0.87008126  0.64137739  1
  O  O376  1  0.14521195  0.10624325  0.30330389  1
  O  O377  1  0.13454269  0.14219201  0.86982560  1
  O  O378  1  0.12683667  0.62262469  0.37126406  1
  O  O379  1  0.14276179  0.62911476  0.89074368  1
  O  O380  1  0.63845478  0.12220509  0.37267068  1
  O  O381  1  0.61423621  0.13903105  0.86733376  1
  O  O382  1  0.62529861  0.63314811  0.38870415  1
  O  O383  1  0.64007876  0.55344270  0.96070396  1
