# generated using pymatgen
data_VZnO4
_symmetry_space_group_name_H-M   'P 1'
_cell_length_a   16.89397512
_cell_length_b   16.88620353
_cell_length_c   16.86764300
_cell_angle_alpha   90.15578058
_cell_angle_beta   90.26273974
_cell_angle_gamma   90.24333858
_symmetry_Int_Tables_number   1
_chemical_formula_structural   VZnO4
_chemical_formula_sum   'V64 Zn64 O256'
_cell_volume   4811.80654937
_cell_formula_units_Z   64
loop_
 _symmetry_equiv_pos_site_id
 _symmetry_equiv_pos_as_xyz
  1  'x, y, z'
loop_
 _atom_site_type_symbol
 _atom_site_label
 _atom_site_symmetry_multiplicity
 _atom_site_fract_x
 _atom_site_fract_y
 _atom_site_fract_z
 _atom_site_occupancy
  V  V0  1  0.46368657  0.13176125  0.62787617  1
  V  V1  1  -0.00441620  0.75429091  0.75578487  1
  V  V2  1  0.62255506  0.76228036  0.38711802  1
  V  V3  1  0.11597189  0.00919297  0.11438093  1
  V  V4  1  0.86787231  0.50330795  0.37532284  1
  V  V5  1  0.89896662  0.24617810  0.14016935  1
  V  V6  1  0.88899535  0.62976592  0.24594738  1
  V  V7  1  0.86495144  0.49328169  0.87720871  1
  V  V8  1  0.00946741  0.24991865  0.74315195  1
  V  V9  1  0.75724516  0.36437989  0.14265715  1
  V  V10  1  0.64056648  0.02464292  0.62166413  1
  V  V11  1  0.85260661  0.83701747  0.50127780  1
  V  V12  1  0.26489279  0.62696346  0.87831648  1
  V  V13  1  0.47823032  0.01299467  -0.02463795  1
  V  V14  1  0.12875279  0.63100980  0.00302610  1
  V  V15  1  0.62886104  0.25022656  0.35422423  1
  V  V16  1  0.26376028  0.00138629  0.74748831  1
  V  V17  1  0.86617833  0.62486868  0.74622807  1
  V  V18  1  0.37708567  0.62374878  0.27025458  1
  V  V19  1  0.38428578  0.37977483  -0.00378302  1
  V  V20  1  0.25200800  0.11114122  0.88175924  1
  V  V21  1  0.13178232  0.26214802  0.35627433  1
  V  V22  1  0.50480429  0.38055328  0.38023413  1
  V  V23  1  0.25917486  0.37061948  0.13274604  1
  V  V24  1  0.27091144  0.50720295  0.75623960  1
  V  V25  1  0.50315701  0.74945598  0.24889561  1
  V  V26  1  0.48681800  -0.00039534  0.49848579  1
  V  V27  1  0.87095312  0.24551428  0.63150001  1
  V  V28  1  0.75022216  0.63448722  0.37646599  1
  V  V29  1  0.12777944  0.13682039  0.47309234  1
  V  V30  1  0.00693633  0.37756581  0.36140724  1
  V  V31  1  0.26032046  0.88088334  0.11873474  1
  V  V32  1  0.73854022  0.63054769  0.88561319  1
  V  V33  1  0.00398543  0.63030948  0.62998313  1
  V  V34  1  0.14726474  0.63839353  0.50142341  1
  V  V35  1  0.12653731  0.75731073  0.87899272  1
  V  V36  1  0.60778034  0.47821131  0.11550542  1
  V  V37  1  0.24974734  0.36345446  0.62265110  1
  V  V38  1  -0.00226763  0.00527132  0.49611602  1
  V  V39  1  -0.00661120  0.51033870  0.00239484  1
  V  V40  1  0.63467789  0.24067092  0.85965857  1
  V  V41  1  0.48234326  0.11087421  0.15245368  1
  V  V42  1  0.01034799  0.37778958  0.88656751  1
  V  V43  1  0.12960818  0.74844879  0.35163473  1
  V  V44  1  0.12910437  0.38171147  0.76243351  1
  V  V45  1  0.24742479  0.51252456  0.25545669  1
  V  V46  1  0.63468305  0.87235685  0.23105235  1
  V  V47  1  0.87528880  0.38059972  0.51637195  1
  V  V48  1  0.10862698  0.88071974  0.23378814  1
  V  V49  1  0.48080516  0.25491596  0.75713186  1
  V  V50  1  0.74496000  0.11514312  0.36439525  1
  V  V51  1  0.63447575  0.60309376  0.50907692  1
  V  V52  1  0.00285043  -0.00954666  -0.02661709  1
  V  V53  1  0.87933285  0.76934131  0.12429236  1
  V  V54  1  0.49696614  0.63720434  0.61680140  1
  V  V55  1  0.24130250  0.24696487  -0.01031564  1
  V  V56  1  0.85900477  0.87655004  -0.02955199  1
  V  V57  1  0.12908217  0.87883490  0.73978762  1
  V  V58  1  0.37420208  0.73689917  0.11619820  1
  V  V59  1  0.00977244  0.50351260  0.50237475  1
  V  V60  1  0.12328753  0.49851185  0.12703820  1
  V  V61  1  0.13259014  0.50766544  0.63446187  1
  V  V62  1  0.61014812  0.88508432  0.74117830  1
  V  V63  1  0.11806146  0.03071494  0.63055461  1
  Zn  Zn64  1  0.18635423  0.18668905  0.18950068  1
  Zn  Zn65  1  0.19622726  0.19191766  0.71171701  1
  Zn  Zn66  1  0.19472740  0.69222343  0.18236558  1
  Zn  Zn67  1  0.19890213  0.69328506  0.69463713  1
  Zn  Zn68  1  0.69648858  0.18625121  0.18769950  1
  Zn  Zn69  1  0.65985124  0.23450309  0.65766678  1
  Zn  Zn70  1  0.71922700  0.72564682  0.20839842  1
  Zn  Zn71  1  0.64102752  0.67415557  0.72563823  1
  Zn  Zn72  1  0.31546686  0.34021036  0.32668083  1
  Zn  Zn73  1  0.31421988  0.31693049  0.82157001  1
  Zn  Zn74  1  0.30258619  0.82150942  0.30459866  1
  Zn  Zn75  1  0.30729277  0.79644046  0.95085080  1
  Zn  Zn76  1  0.81473293  0.31253050  0.31598072  1
  Zn  Zn77  1  0.83862624  0.28992472  0.83505298  1
  Zn  Zn78  1  0.82450306  0.81943846  0.31828013  1
  Zn  Zn79  1  0.74899288  0.82560213  0.82296117  1
  Zn  Zn80  1  0.20169660  0.44107750  0.44638176  1
  Zn  Zn81  1  0.19866816  0.44548749  0.94649406  1
  Zn  Zn82  1  0.11716016  0.92843892  0.42786711  1
  Zn  Zn83  1  0.19120508  0.93865407  0.93951370  1
  Zn  Zn84  1  0.66708906  0.39837552  0.47896024  1
  Zn  Zn85  1  0.67486923  0.41875749  0.95013423  1
  Zn  Zn86  1  0.68665514  0.94088068  0.45462991  1
  Zn  Zn87  1  0.66877985  0.93226393  0.94424224  1
  Zn  Zn88  1  0.31996795  0.06554303  0.06428454  1
  Zn  Zn89  1  0.29821317  0.06163740  0.55236474  1
  Zn  Zn90  1  0.31547578  0.55860627  0.06372310  1
  Zn  Zn91  1  0.32737772  0.53873996  0.54190354  1
  Zn  Zn92  1  0.87430189  0.08724978  0.03545505  1
  Zn  Zn93  1  0.82124244  0.06963496  0.55796438  1
  Zn  Zn94  1  0.76566451  0.60429568  0.09133992  1
  Zn  Zn95  1  0.81210406  0.56445551  0.56392575  1
  Zn  Zn96  1  0.43119024  0.42768831  0.21254745  1
  Zn  Zn97  1  0.42890551  0.41901613  0.67866075  1
  Zn  Zn98  1  0.43196674  0.93156649  0.20855815  1
  Zn  Zn99  1  0.44507510  0.93967130  0.68060660  1
  Zn  Zn100  1  0.93089989  0.44432345  0.18456766  1
  Zn  Zn101  1  0.94288567  0.44382289  0.69762507  1
  Zn  Zn102  1  0.93677663  0.95522069  0.19175031  1
  Zn  Zn103  1  0.94079155  0.93277065  0.67258025  1
  Zn  Zn104  1  0.04268492  0.06591192  0.29943978  1
  Zn  Zn105  1  0.06969135  0.07156271  0.81887052  1
  Zn  Zn106  1  0.06827662  0.56841145  0.31991297  1
  Zn  Zn107  1  0.06546091  0.56694280  0.81945409  1
  Zn  Zn108  1  0.57945148  0.04869837  0.31183717  1
  Zn  Zn109  1  0.56429503  0.07519022  0.80335188  1
  Zn  Zn110  1  0.57310084  0.56281303  0.29975072  1
  Zn  Zn111  1  0.57305360  0.53286903  0.77880573  1
  Zn  Zn112  1  0.46460340  0.14302939  0.37325310  1
  Zn  Zn113  1  0.43176249  0.19626423  0.94391923  1
  Zn  Zn114  1  0.45614950  0.67131668  0.43443739  1
  Zn  Zn115  1  0.46300517  0.68489224  0.93524311  1
  Zn  Zn116  1  0.94979197  0.20015458  0.44795128  1
  Zn  Zn117  1  0.97663537  0.20455831  0.96114533  1
  Zn  Zn118  1  0.94949370  0.69610340  0.43682091  1
  Zn  Zn119  1  0.92992148  0.69248482  0.93836526  1
  Zn  Zn120  1  0.06379053  0.31342954  0.07478425  1
  Zn  Zn121  1  0.07873428  0.31983150  0.56016077  1
  Zn  Zn122  1  0.04696233  0.81579310  0.05976857  1
  Zn  Zn123  1  0.05615727  0.81144807  0.56334844  1
  Zn  Zn124  1  0.57746614  0.30356559  0.05016847  1
  Zn  Zn125  1  0.50230284  0.25549848  0.51322397  1
  Zn  Zn126  1  0.56253373  0.79491671  0.05413166  1
  Zn  Zn127  1  0.56358935  0.82262817  0.56602438  1
  O  O128  1  0.13419424  0.10682229  0.12836672  1
  O  O129  1  0.12294525  0.12951136  0.64159325  1
  O  O130  1  0.13312309  0.62348120  0.10734180  1
  O  O131  1  0.12553013  0.62292586  0.62727582  1
  O  O132  1  0.60146139  0.14215850  0.12345824  1
  O  O133  1  0.63030260  0.12552831  0.62841659  1
  O  O134  1  0.64568229  0.58704800  0.14621936  1
  O  O135  1  0.62994930  0.63320706  0.60835967  1
  O  O136  1  0.33419355  0.30181487  0.46738371  1
  O  O137  1  0.37423748  0.37962918  0.89429904  1
  O  O138  1  0.29257268  0.91148955  0.42051332  1
  O  O139  1  0.38846562  0.83236232  0.86166344  1
  O  O140  1  0.88994991  0.38963674  0.38625217  1
  O  O141  1  0.89276347  0.38834596  0.87297544  1
  O  O142  1  0.88278787  0.86008558  0.40364333  1
  O  O143  1  0.85307625  0.86271828  0.87185220  1
  O  O144  1  0.23821864  -0.04746534  0.45010162  1
  O  O145  1  0.25243039  0.00336279  0.86783082  1
  O  O146  1  0.22134692  0.50537979  0.35040490  1
  O  O147  1  0.25359787  0.51327903  0.86667147  1
  O  O148  1  0.73709939  0.01600990  0.38205369  1
  O  O149  1  0.77831938  0.05449932  0.79478605  1
  O  O150  1  0.76855562  0.50912387  0.38139148  1
  O  O151  1  0.76589604  0.48585227  0.88423719  1
  O  O152  1  0.23791642  0.49819366  0.12996941  1
  O  O153  1  0.24395048  0.50231296  0.64251230  1
  O  O154  1  0.24100196  0.98607659  0.11312534  1
  O  O155  1  0.23118719  1.00863465  0.64126369  1
  O  O156  1  0.73918548  0.47819309  0.10129391  1
  O  O157  1  0.75600784  0.50390415  0.63860868  1
  O  O158  1  0.74446399  1.01759747  0.11915728  1
  O  O159  1  0.74200475  1.01367500  0.61436480  1
  O  O160  1  0.00303005  0.39362374  0.26390835  1
  O  O161  1  0.01369684  0.38055479  0.76587062  1
  O  O162  1  0.00969171  0.86966780  0.23549220  1
  O  O163  1  0.00748334  0.85911497  0.74705031  1
  O  O164  1  0.42429637  0.35719677  0.30687964  1
  O  O165  1  0.49114847  0.35838797  0.74675426  1
  O  O166  1  0.51797580  0.85452194  0.25101522  1
  O  O167  1  0.51067458  0.87811769  0.75078746  1
  O  O168  1  0.49806050  0.11993436  0.25609833  1
  O  O169  1  0.49308980  0.13523036  0.73337196  1
  O  O170  1  0.48615936  0.63063552  0.25672247  1
  O  O171  1  0.52692243  0.62082347  0.71802509  1
  O  O172  1  0.94445397  0.05042057  0.24934987  1
  O  O173  1  1.00938716  0.15237774  0.76348783  1
  O  O174  1  0.98797788  0.62752382  0.26264315  1
  O  O175  1  1.00208658  0.63181656  0.74615444  1
  O  O176  1  0.35070549  0.26362712  0.00450219  1
  O  O177  1  0.36869868  0.24236825  0.49313494  1
  O  O178  1  0.38963630  0.74614325  0.01309890  1
  O  O179  1  0.36348798  0.74083304  0.49258155  1
  O  O180  1  0.90101639  0.25812411  0.02581228  1
  O  O181  1  0.89444188  0.27271607  0.52177809  1
  O  O182  1  0.87657069  0.77149560  0.00459135  1
  O  O183  1  0.86697508  0.73458769  0.50482134  1
  O  O184  1  0.11244945  0.23987558  0.48235218  1
  O  O185  1  0.14129229  0.25912893  1.01233198  1
  O  O186  1  0.13645826  0.73748329  0.52025932  1
  O  O187  1  0.11499328  0.73991146  0.99006055  1
  O  O188  1  0.62222441  0.25237649  0.51649878  1
  O  O189  1  0.62979239  0.30976570  0.94666455  1
  O  O190  1  0.61777533  0.75043041  0.48735011  1
  O  O191  1  0.55831601  0.72756096  0.96693720  1
  O  O192  1  0.54631036  0.20701705  0.11785509  1
  O  O193  1  0.48613694  0.23997917  0.63228269  1
  O  O194  1  0.48705223  0.74983303  0.14079040  1
  O  O195  1  0.49369951  0.73772922  0.60980836  1
  O  O196  1  1.00192479  0.25157106  0.14361173  1
  O  O197  1  1.00933774  0.26213372  0.64015804  1
  O  O198  1  0.97664161  0.74142295  0.11558106  1
  O  O199  1  1.00939791  0.73918975  0.64251580  1
  O  O200  1  0.00193513  0.27292935  0.37341413  1
  O  O201  1  0.00162927  0.27385282  0.87172329  1
  O  O202  1  0.03519760  0.75758469  0.39581289  1
  O  O203  1  0.01504766  0.73883301  0.86427333  1
  O  O204  1  0.51718385  0.24561871  0.38925057  1
  O  O205  1  0.50582806  0.24019134  0.86222981  1
  O  O206  1  0.51366878  0.74351535  0.36596827  1
  O  O207  1  0.43239954  0.77678631  0.83714902  1
  O  O208  1  0.22725360  0.13000588  0.49341960  1
  O  O209  1  0.25078164  0.13737149  0.99730256  1
  O  O210  1  0.24421251  0.62183896  0.51363592  1
  O  O211  1  0.23904132  0.61796782  0.98927524  1
  O  O212  1  0.78992128  0.14592599  0.47066405  1
  O  O213  1  0.81556386  0.13233571  0.92236959  1
  O  O214  1  0.74437841  0.62270746  0.48996696  1
  O  O215  1  0.72876584  0.60658996  0.98181278  1
  O  O216  1  0.25478281  0.37309395  0.01629978  1
  O  O217  1  0.20359008  0.36077677  0.52980333  1
  O  O218  1  0.24445979  0.86639777  0.01013032  1
  O  O219  1  0.37183210  0.81397845  0.49433440  1
  O  O220  1  0.75913438  0.42294078  0.03853667  1
  O  O221  1  0.77805745  0.38308433  0.49752070  1
  O  O222  1  0.76077991  0.89068584  -0.00351202  1
  O  O223  1  0.75436259  0.86579291  0.50601330  1
  O  O224  1  0.13035964  0.52409570  0.23044496  1
  O  O225  1  0.13278966  0.50084606  0.74960889  1
  O  O226  1  0.11731259  0.98760361  0.23096431  1
  O  O227  1  0.11487014  0.99157783  0.74060797  1
  O  O228  1  0.65104574  0.53363413  0.21397799  1
  O  O229  1  0.58374552  0.47278359  0.66802815  1
  O  O230  1  0.62743262  0.97201013  0.24507290  1
  O  O231  1  0.61919008  1.00244220  0.72951627  1
  O  O232  1  0.37418385  -0.09266661  0.29995134  1
  O  O233  1  0.36026031  -0.01131823  0.74180457  1
  O  O234  1  0.36088344  0.51604637  0.25088304  1
  O  O235  1  0.36846015  0.49874316  0.74667552  1
  O  O236  1  0.77757124  -0.00967925  0.17781622  1
  O  O237  1  0.88253476  -0.02013658  0.76226129  1
  O  O238  1  0.88364688  0.50884653  0.27191145  1
  O  O239  1  0.88279151  0.51463069  0.76810895  1
  O  O240  1  0.11490998  0.37275151  0.37995155  1
  O  O241  1  0.11968842  0.39332678  0.87426090  1
  O  O242  1  0.13435981  0.86399209  0.33904764  1
  O  O243  1  0.12883993  0.85953386  0.87341418  1
  O  O244  1  0.61470308  0.35890008  0.38233006  1
  O  O245  1  0.63497287  0.43001664  0.81246270  1
  O  O246  1  0.63197200  0.86171733  0.37135131  1
  O  O247  1  0.66804765  0.90699331  0.83613658  1
  O  O248  1  0.38411686  0.13236689  0.13664580  1
  O  O249  1  0.36398134  0.12546007  0.62743249  1
  O  O250  1  0.37304367  0.63487088  0.12887300  1
  O  O251  1  0.40258060  0.59929568  0.60319516  1
  O  O252  1  0.86517374  0.14639216  0.12648928  1
  O  O253  1  0.88261518  0.14680906  0.62218641  1
  O  O254  1  0.87258719  0.59993375  0.14996051  1
  O  O255  1  0.89189639  0.61567744  0.63964608  1
  O  O256  1  0.24461364  0.26956608  0.13593374  1
  O  O257  1  0.24951781  0.26666688  0.64686776  1
  O  O258  1  0.26847340  0.75348906  0.11877569  1
  O  O259  1  0.27021695  0.76382210  0.63286643  1
  O  O260  1  0.74901168  0.26364052  0.12190445  1
  O  O261  1  0.77248950  0.25614045  0.64048939  1
  O  O262  1  0.77889572  0.72069195  0.11340919  1
  O  O263  1  0.77640894  0.79621621  0.65179104  1
  O  O264  1  0.23308537  0.27212539  0.36247885  1
  O  O265  1  0.24011314  0.25404417  0.88692051  1
  O  O266  1  0.23288567  0.75548782  0.36819605  1
  O  O267  1  0.23755711  0.73795328  0.87662364  1
  O  O268  1  0.73291605  0.25347337  0.37257237  1
  O  O269  1  0.73209571  0.26703588  0.84166365  1
  O  O270  1  0.73719980  0.73930371  0.37632992  1
  O  O271  1  0.74258766  0.72943246  0.88258784  1
  O  O272  1  -0.01429745  0.09736454  -0.01119935  1
  O  O273  1  0.01523479  0.11935085  0.49733591  1
  O  O274  1  0.01232653  0.61670611  -0.00954840  1
  O  O275  1  0.01199458  0.61934763  0.51335566  1
  O  O276  1  0.48646985  0.11172965  0.01062928  1
  O  O277  1  0.48780867  0.13160627  0.52142521  1
  O  O278  1  0.49601524  0.55303654  -0.07320413  1
  O  O279  1  0.52337948  0.61515219  0.50518704  1
  O  O280  1  0.47916975  0.37508628  0.47631895  1
  O  O281  1  0.47859262  0.35129007  1.01822442  1
  O  O282  1  0.50039917  0.89807468  0.50365477  1
  O  O283  1  0.52773014  0.90903055  1.00152834  1
  O  O284  1  1.00213584  0.39310002  0.50178736  1
  O  O285  1  1.01258241  0.39173526  0.99159326  1
  O  O286  1  1.03388549  0.90159001  0.50242150  1
  O  O287  1  0.98549727  0.88352969  0.99015326  1
  O  O288  1  0.51806455  0.47834057  0.35419127  1
  O  O289  1  0.48873387  0.50937613  0.86587192  1
  O  O290  1  0.50209033  1.03138358  0.39724756  1
  O  O291  1  0.49347870  1.01785753  0.87605103  1
  O  O292  1  1.00422527  0.49700551  0.38774970  1
  O  O293  1  0.99773184  0.49682268  0.88574782  1
  O  O294  1  1.03024378  1.00359972  0.39498373  1
  O  O295  1  1.01287073  0.98932988  0.87376323  1
  O  O296  1  0.01358083  -0.00180967  0.10896401  1
  O  O297  1  0.01309692  0.00752614  0.61908394  1
  O  O298  1  0.01036118  0.49776439  0.11208306  1
  O  O299  1  0.01485926  0.51038500  0.62548228  1
  O  O300  1  0.48426053  0.00784393  0.14285210  1
  O  O301  1  0.49850921  0.01973378  0.61769483  1
  O  O302  1  0.51360106  0.47523192  0.15283890  1
  O  O303  1  0.52057751  0.48542447  0.62550346  1
  O  O304  1  0.25497509  0.39861748  0.24139388  1
  O  O305  1  0.24708703  0.39190732  0.75147128  1
  O  O306  1  0.22969898  0.86251046  0.21966869  1
  O  O307  1  0.23051661  0.89366879  0.75915238  1
  O  O308  1  0.75268740  0.38127611  0.24222584  1
  O  O309  1  0.68585508  0.40811443  0.76220989  1
  O  O310  1  0.73533086  0.84311025  0.24892314  1
  O  O311  1  0.79595956  0.84540306  0.70318392  1
  O  O312  1  0.25858979  0.11718037  0.25852141  1
  O  O313  1  0.25097144  0.10886362  0.76489113  1
  O  O314  1  0.26309691  0.62173737  0.24547639  1
  O  O315  1  0.25559896  0.61796603  0.76402297  1
  O  O316  1  0.75442034  0.12460638  0.26363195  1
  O  O317  1  0.83534128  0.04554216  0.74733440  1
  O  O318  1  0.76662341  0.62989959  0.27224766  1
  O  O319  1  0.76924176  0.63910067  0.73818680  1
  O  O320  1  0.34754700  0.11985465  0.35727183  1
  O  O321  1  0.35118585  0.13662122  0.88197399  1
  O  O322  1  0.37226554  0.62688280  0.36995191  1
  O  O323  1  0.36338819  0.64007709  0.89084987  1
  O  O324  1  0.84953241  0.14179503  0.40798928  1
  O  O325  1  0.86658206  0.17001259  0.88101915  1
  O  O326  1  0.87304076  0.61982930  0.37747934  1
  O  O327  1  0.85787883  0.61661363  0.87086257  1
  O  O328  1  0.13276746  0.39529252  0.12607133  1
  O  O329  1  0.12833779  0.39158164  0.64739472  1
  O  O330  1  0.12521950  0.87737700  0.12145582  1
  O  O331  1  0.12866138  0.87224535  0.64044419  1
  O  O332  1  0.63623911  0.37384577  0.12693985  1
  O  O333  1  0.63938858  0.31725721  0.56500306  1
  O  O334  1  0.62646409  0.85179009  0.13194529  1
  O  O335  1  0.62462522  0.89325960  0.63510905  1
  O  O336  1  0.11902325  0.25184127  0.25774337  1
  O  O337  1  0.12061550  0.27156930  0.75626729  1
  O  O338  1  0.11694162  0.74255444  0.24855111  1
  O  O339  1  0.12377447  0.75912883  0.76046697  1
  O  O340  1  0.62040895  0.25185750  0.25608732  1
  O  O341  1  0.60590044  0.25421364  0.75582909  1
  O  O342  1  0.61475321  0.74209067  0.25824702  1
  O  O343  1  0.64790304  0.78543252  0.74671661  1
  O  O344  1  0.32040476  0.15550969  0.29106534  1
  O  O345  1  0.37911080  0.24852996  0.76002370  1
  O  O346  1  0.38374350  0.73805920  0.24834808  1
  O  O347  1  0.33725868  0.79488206  0.66729841  1
  O  O348  1  0.87628640  0.25467392  0.24189030  1
  O  O349  1  0.89831234  0.26807329  0.73938148  1
  O  O350  1  0.87335577  0.73947715  0.23934539  1
  O  O351  1  0.89421415  0.73371639  0.76185067  1
  O  O352  1  0.31467616  0.46346656  0.45965057  1
  O  O353  1  0.37742307  0.48215353  1.01328805  1
  O  O354  1  0.38533396  1.00453816  0.50776232  1
  O  O355  1  0.37983570  0.99178659  0.99550295  1
  O  O356  1  0.89046679  0.50029700  0.49560601  1
  O  O357  1  0.89173615  0.51110776  0.98866012  1
  O  O358  1  0.89779658  1.00709890  0.49841826  1
  O  O359  1  0.88608402  0.98440716  0.98800068  1
  O  O360  1  0.11373154  -0.00685217  0.00317223  1
  O  O361  1  0.12427729  0.02715824  0.52118716  1
  O  O362  1  0.11977878  0.51327203  0.00815671  1
  O  O363  1  0.12531369  0.51352613  0.51426031  1
  O  O364  1  0.58652666  -0.02746235  0.01338051  1
  O  O365  1  0.61249642  0.00453057  0.51799020  1
  O  O366  1  0.60454189  0.48670148  0.01386731  1
  O  O367  1  0.63694213  0.50390723  0.50850843  1
  O  O368  1  0.36088076  0.37778516  0.12956661  1
  O  O369  1  0.34768560  0.38888843  0.60775563  1
  O  O370  1  0.36332532  0.86815111  0.12933737  1
  O  O371  1  0.36065033  0.86033653  0.63047221  1
  O  O372  1  0.86728572  0.36566700  0.13295443  1
  O  O373  1  0.88251574  0.38641231  0.61949822  1
  O  O374  1  0.87598889  0.87017170  0.13680751  1
  O  O375  1  0.90449552  0.87052055  0.58565129  1
  O  O376  1  0.11781250  0.14125769  0.36659842  1
  O  O377  1  0.14823493  0.12795838  0.87739009  1
  O  O378  1  0.13030577  0.63661460  0.39309438  1
  O  O379  1  0.13597138  0.63298958  0.88380656  1
  O  O380  1  0.63701004  0.13805309  0.37328371  1
  O  O381  1  0.63386193  0.14086679  0.87560617  1
  O  O382  1  0.63896665  0.62267183  0.38344128  1
  O  O383  1  0.65297408  0.60382327  0.82767545  1
