# generated using pymatgen
data_VZnO4
_symmetry_space_group_name_H-M   'P 1'
_cell_length_a   17.02445413
_cell_length_b   17.03372485
_cell_length_c   16.99263791
_cell_angle_alpha   90.90743005
_cell_angle_beta   89.86944886
_cell_angle_gamma   90.28849828
_symmetry_Int_Tables_number   1
_chemical_formula_structural   VZnO4
_chemical_formula_sum   'V64 Zn64 O256'
_cell_volume   4927.00044426
_cell_formula_units_Z   64
loop_
 _symmetry_equiv_pos_site_id
 _symmetry_equiv_pos_as_xyz
  1  'x, y, z'
loop_
 _atom_site_type_symbol
 _atom_site_label
 _atom_site_symmetry_multiplicity
 _atom_site_fract_x
 _atom_site_fract_y
 _atom_site_fract_z
 _atom_site_occupancy
  V  V0  1  0.87172089  0.37664792  0.00727845  1
  V  V1  1  -0.00280380  0.61148653  0.63693834  1
  V  V2  1  0.14617827  0.61555244  0.00428767  1
  V  V3  1  0.61349410  0.12900962  -0.00221368  1
  V  V4  1  0.37916897  0.25731884  0.11395242  1
  V  V5  1  0.01040581  0.48787973  0.49897538  1
  V  V6  1  0.60988166  0.73932965  0.40001869  1
  V  V7  1  0.59092425  -0.05215347  0.65256655  1
  V  V8  1  0.00659073  0.37775915  0.86563012  1
  V  V9  1  0.86818008  0.49337729  0.37883569  1
  V  V10  1  0.00447320  0.76016963  0.76185773  1
  V  V11  1  0.86829268  0.49481179  0.87221531  1
  V  V12  1  0.73573718  0.26317856  0.01830676  1
  V  V13  1  0.13100268  0.49338584  0.12968166  1
  V  V14  1  0.76408594  0.26596961  0.47637294  1
  V  V15  1  0.49984287  0.62464585  0.13260072  1
  V  V16  1  0.12939939  0.74229863  0.88182605  1
  V  V17  1  0.61942911  0.76452989  0.87441990  1
  V  V18  1  0.74796509  0.12091001  0.36242615  1
  V  V19  1  0.12394346  -0.01192573  0.62944588  1
  V  V20  1  0.74781204  0.50146532  0.23706909  1
  V  V21  1  0.62941807  0.85686267  0.23903110  1
  V  V22  1  0.76137088  0.64260348  0.38618993  1
  V  V23  1  0.84859426  -0.03077869  0.87246377  1
  V  V24  1  -0.00911631  0.87026851  0.38201340  1
  V  V25  1  0.48967885  0.23995192  0.77835756  1
  V  V26  1  0.64811647  0.00467721  0.13299325  1
  V  V27  1  0.35835545  0.10790372  0.24691868  1
  V  V28  1  0.54155958  -0.04400462  0.46787295  1
  V  V29  1  0.37181146  0.10325513  0.75489317  1
  V  V30  1  0.47883619  0.25578916  0.26924083  1
  V  V31  1  0.10664539  0.22535963  0.35621832  1
  V  V32  1  0.25489228  0.60472063  0.86371458  1
  V  V33  1  0.62888887  0.62177120  0.00860335  1
  V  V34  1  0.88148678  0.63266145  0.24926046  1
  V  V35  1  0.58749787  0.37404682  0.76223212  1
  V  V36  1  0.49456339  0.49435579  -0.01384647  1
  V  V37  1  0.60307488  0.51863221  0.62732786  1
  V  V38  1  0.34888293  0.74900709  0.63428633  1
  V  V39  1  0.76696931  0.76348789  0.01444146  1
  V  V40  1  0.13426446  0.88422200  0.24626628  1
  V  V41  1  0.37667051  0.63189866  0.28254786  1
  V  V42  1  0.75199008  0.62782575  0.86947299  1
  V  V43  1  0.74921755  0.14082417  0.86923008  1
  V  V44  1  0.01710388  0.88628995  0.89866640  1
  V  V45  1  0.87750684  0.76434525  0.63028447  1
  V  V46  1  0.12435932  0.64219547  0.49410702  1
  V  V47  1  0.00038884  0.62111060  0.11706104  1
  V  V48  1  0.86934832  0.16184570  0.23652711  1
  V  V49  1  0.49560571  0.11405635  0.12588963  1
  V  V50  1  0.26621721  0.37915172  0.11209945  1
  V  V51  1  -0.01805802  0.13230893  0.08927734  1
  V  V52  1  0.37858663  0.74899991  0.10034036  1
  V  V53  1  0.37615744  0.25527131  0.62611991  1
  V  V54  1  0.25083060  0.25658219  0.48773024  1
  V  V55  1  0.03875060  0.25169657  0.74014790  1
  V  V56  1  -0.00072617  0.02644906  0.50207111  1
  V  V57  1  0.74796947  0.49092107  0.73864074  1
  V  V58  1  0.62672737  0.36692793  0.25256823  1
  V  V59  1  0.26799322  0.49964781  0.25710948  1
  V  V60  1  0.20452066  0.12239503  0.94230185  1
  V  V61  1  0.38984789  0.61272226  0.74884844  1
  V  V62  1  0.01407658  0.38112378  0.35742981  1
  V  V63  1  0.02168065  0.73904351  0.26312442  1
  Zn  Zn64  1  0.18661792  0.19068174  0.16760316  1
  Zn  Zn65  1  0.17361765  0.14186417  0.71853036  1
  Zn  Zn66  1  0.19892283  0.67968436  0.19031078  1
  Zn  Zn67  1  0.17783343  0.67213716  0.68692944  1
  Zn  Zn68  1  0.67625023  0.19221595  0.19437209  1
  Zn  Zn69  1  0.74784895  0.05065548  0.69983622  1
  Zn  Zn70  1  0.69997137  0.68259328  0.18433255  1
  Zn  Zn71  1  0.68566649  0.69860014  0.68572837  1
  Zn  Zn72  1  0.27790681  0.30000206  0.29435453  1
  Zn  Zn73  1  0.28871757  0.25416199  0.83290606  1
  Zn  Zn74  1  0.31309848  0.81416452  0.23564793  1
  Zn  Zn75  1  0.29257167  0.79861002  0.80099141  1
  Zn  Zn76  1  0.80895605  0.32068749  0.30733901  1
  Zn  Zn77  1  0.75715073  0.33482280  0.83759159  1
  Zn  Zn78  1  0.84405677  0.87332664  0.23687096  1
  Zn  Zn79  1  0.82813965  0.80179859  0.82591839  1
  Zn  Zn80  1  0.20187396  0.43335502  0.43937775  1
  Zn  Zn81  1  0.21433934  0.39425640  0.90810423  1
  Zn  Zn82  1  0.16120635  0.92039761  0.44302429  1
  Zn  Zn83  1  0.21474151  0.98984757  0.80815410  1
  Zn  Zn84  1  0.62831756  0.40792091  0.45462115  1
  Zn  Zn85  1  0.67920705  0.44398832  0.94067194  1
  Zn  Zn86  1  0.71940298  0.92016786  0.37177965  1
  Zn  Zn87  1  0.69209742  0.94438702  0.94467976  1
  Zn  Zn88  1  0.28612074  0.06414003  0.09802128  1
  Zn  Zn89  1  0.25808833  0.09577056  0.57389836  1
  Zn  Zn90  1  0.32250790  0.55821905  0.06232179  1
  Zn  Zn91  1  0.30823557  0.57380532  0.55967300  1
  Zn  Zn92  1  0.81143064  0.07117540  0.04534262  1
  Zn  Zn93  1  0.82010320  0.07954731  0.53853513  1
  Zn  Zn94  1  0.81598148  0.56488956  0.05798095  1
  Zn  Zn95  1  0.81959403  0.57113402  0.56355572  1
  Zn  Zn96  1  0.45324431  0.43969050  0.18787679  1
  Zn  Zn97  1  0.36813560  0.40319613  0.76316722  1
  Zn  Zn98  1  0.45262427  0.93055962  0.19002349  1
  Zn  Zn99  1  0.31586063  0.93432421  0.67238138  1
  Zn  Zn100  1  0.93820836  0.44472273  0.18792089  1
  Zn  Zn101  1  0.94162307  0.44046353  0.69451722  1
  Zn  Zn102  1  0.93578651  0.94258367  0.05907335  1
  Zn  Zn103  1  0.91312701  0.97733922  0.66993110  1
  Zn  Zn104  1  0.04150964  0.03413608  0.30208082  1
  Zn  Zn105  1  0.04778365  0.07633958  0.82154699  1
  Zn  Zn106  1  0.07226120  0.55782214  0.31310419  1
  Zn  Zn107  1  0.06727233  0.54858641  0.82147018  1
  Zn  Zn108  1  0.55742965  0.06919398  0.31145979  1
  Zn  Zn109  1  0.58769118  0.08208589  0.78885484  1
  Zn  Zn110  1  0.57125895  0.57521767  0.31155432  1
  Zn  Zn111  1  0.56812899  0.57220608  0.81325714  1
  Zn  Zn112  1  0.39463286  0.18317421  0.43548798  1
  Zn  Zn113  1  0.41049265  0.16349078  0.93467345  1
  Zn  Zn114  1  0.41722800  0.77716030  0.41109032  1
  Zn  Zn115  1  0.43997871  0.68270611  0.93218104  1
  Zn  Zn116  1  0.93209003  0.19977091  0.42596284  1
  Zn  Zn117  1  0.92193688  0.21456015  0.91414993  1
  Zn  Zn118  1  0.94212788  0.68522408  0.44826845  1
  Zn  Zn119  1  0.93729589  0.68039163  0.93994763  1
  Zn  Zn120  1  0.07410822  0.32388831  0.03248360  1
  Zn  Zn121  1  0.08202322  0.19318378  0.55720712  1
  Zn  Zn122  1  0.06913802  0.79900656  0.07245583  1
  Zn  Zn123  1  0.05107474  0.81102795  0.57033953  1
  Zn  Zn124  1  0.55589243  0.31922291  0.07427827  1
  Zn  Zn125  1  0.55279718  0.32030483  0.58900704  1
  Zn  Zn126  1  0.57898459  0.80453989  0.07093623  1
  Zn  Zn127  1  0.53201427  0.80023208  0.55535983  1
  O  O128  1  0.08383009  0.18686939  0.10757684  1
  O  O129  1  0.14814577  0.11849331  0.60987069  1
  O  O130  1  0.12742915  0.62134532  0.11534340  1
  O  O131  1  0.10207031  0.62638594  0.61345339  1
  O  O132  1  0.61103637  0.12396639  0.12353077  1
  O  O133  1  0.68844376  -0.02649883  0.64221752  1
  O  O134  1  0.61387699  0.63268539  0.11595741  1
  O  O135  1  0.62702162  0.61864100  0.63602513  1
  O  O136  1  0.39536307  0.41903230  0.44218889  1
  O  O137  1  0.28759808  0.36125448  0.82867870  1
  O  O138  1  0.32481770  0.96355563  0.39308587  1
  O  O139  1  0.33888272  0.92087417  0.93122852  1
  O  O140  1  0.88312399  0.39154098  0.36296427  1
  O  O141  1  0.86148186  0.38518363  0.87722345  1
  O  O142  1  0.89881630  0.88153274  0.34183798  1
  O  O143  1  0.91258545  0.87619919  0.88817594  1
  O  O144  1  0.26239370  -0.00693436  0.41774029  1
  O  O145  1  0.22435296  0.02660239  0.91582426  1
  O  O146  1  0.25140732  0.49350086  0.35368028  1
  O  O147  1  0.24743889  0.50903046  0.88185589  1
  O  O148  1  0.76881036  0.02348811  0.36507490  1
  O  O149  1  0.75438331  0.03265242  0.89303412  1
  O  O150  1  0.76713327  0.51068596  0.36219556  1
  O  O151  1  0.75171667  0.50821255  0.86540816  1
  O  O152  1  0.25108206  0.49677004  0.12972108  1
  O  O153  1  0.29041321  0.46655019  0.51930829  1
  O  O154  1  0.18007018  0.97163966  0.08249609  1
  O  O155  1  0.23221043  0.98918887  0.61331278  1
  O  O156  1  0.76155975  0.50580888  0.13922069  1
  O  O157  1  0.75953815  0.51272773  0.64173536  1
  O  O158  1  0.74600482  1.01456015  0.12464580  1
  O  O159  1  0.75555004  0.86734708  0.53604309  1
  O  O160  1  0.00540618  0.38847269  0.25837087  1
  O  O161  1  -0.00617836  0.36304478  0.75592163  1
  O  O162  1  0.01974767  0.84121272  0.25204920  1
  O  O163  1  0.01764509  0.85713332  0.77725096  1
  O  O164  1  0.46444614  0.35409265  0.26891589  1
  O  O165  1  0.48468023  0.36568587  0.77566504  1
  O  O166  1  0.53558743  0.89152501  0.25812809  1
  O  O167  1  0.47698688  0.92578269  0.89924490  1
  O  O168  1  0.48639949  0.13211329  0.23794169  1
  O  O169  1  0.50113477  0.14177958  0.74595999  1
  O  O170  1  0.48956512  0.62175678  0.24047487  1
  O  O171  1  0.48761264  0.62894192  0.75717458  1
  O  O172  1  0.98568618  0.14520341  0.21245821  1
  O  O173  1  1.00191189  0.15839681  0.75881216  1
  O  O174  1  0.99322003  0.62182411  0.25055121  1
  O  O175  1  1.00596400  0.60504583  0.73745411  1
  O  O176  1  0.38704507  0.24632994  0.01706656  1
  O  O177  1  0.36587267  0.26274216  0.51914412  1
  O  O178  1  0.37089577  0.74890772  0.00160996  1
  O  O179  1  0.38088329  0.72328004  0.51928389  1
  O  O180  1  0.84883733  0.27060482  -0.00688848  1
  O  O181  1  0.86414500  0.26572973  0.48992271  1
  O  O182  1  0.86539145  0.74592288  -0.00385605  1
  O  O183  1  0.89101859  0.74976860  0.52988273  1
  O  O184  1  0.13886340  0.23362461  0.45490716  1
  O  O185  1  0.15740974  0.30711115  0.96173684  1
  O  O186  1  0.11254319  0.74236074  0.50215283  1
  O  O187  1  0.11900596  0.72435795  0.99212812  1
  O  O188  1  0.66622215  0.23437904  0.55315650  1
  O  O189  1  0.62507575  0.24351082  1.01459933  1
  O  O190  1  0.62203146  0.75236178  0.49802372  1
  O  O191  1  0.64249298  0.74017097  0.99630153  1
  O  O192  1  0.48614837  0.24856708  0.14047866  1
  O  O193  1  0.47773872  0.25351676  0.64066576  1
  O  O194  1  0.49153234  0.73426944  0.11230062  1
  O  O195  1  0.44794118  0.71986484  0.57148946  1
  O  O196  1  1.02792149  0.25063886  0.11160619  1
  O  O197  1  1.03151933  0.25636668  0.63899987  1
  O  O198  1  1.01119875  0.72274711  0.14241830  1
  O  O199  1  1.00096558  0.74103491  0.65092996  1
  O  O200  1  0.00752380  0.26785071  0.36447257  1
  O  O201  1  0.00542591  0.27310925  0.86327573  1
  O  O202  1  -0.00773436  0.75076681  0.36608991  1
  O  O203  1  0.00977993  0.73572593  0.87265272  1
  O  O204  1  0.47444785  0.22907836  0.36483255  1
  O  O205  1  0.48789714  0.23543756  0.87668407  1
  O  O206  1  0.51337887  0.72122418  0.38332919  1
  O  O207  1  0.52112721  0.74547013  0.88510264  1
  O  O208  1  0.27008699  0.15500098  0.47682058  1
  O  O209  1  0.20560781  0.12414240  1.04703145  1
  O  O210  1  0.22249009  0.62306625  0.51189982  1
  O  O211  1  0.24710986  0.62209075  0.99533176  1
  O  O212  1  0.76160503  0.14220218  0.47140910  1
  O  O213  1  0.73585064  0.14715231  0.99384381  1
  O  O214  1  0.76140899  0.62444474  0.48365966  1
  O  O215  1  0.74073986  0.62780244  0.99988655  1
  O  O216  1  0.26826346  0.39212889  0.01532024  1
  O  O217  1  0.36905439  0.42272537  0.51013366  1
  O  O218  1  0.33248798  0.92232353  0.00509378  1
  O  O219  1  0.25642042  0.84772750  0.47223747  1
  O  O220  1  0.74400280  0.36872048  -0.00084640  1
  O  O221  1  0.73412194  0.36113975  0.47769608  1
  O  O222  1  0.75303409  0.86199661  0.00207351  1
  O  O223  1  0.79166579  0.87384825  0.47365796  1
  O  O224  1  0.14892802  0.51659910  0.23430256  1
  O  O225  1  0.11340121  0.50044020  0.72350708  1
  O  O226  1  0.11378148  0.98135224  0.23349485  1
  O  O227  1  0.12316367  1.02393244  0.73717428  1
  O  O228  1  0.64992922  0.52172115  0.24769232  1
  O  O229  1  0.63665608  0.50338808  0.74680073  1
  O  O230  1  0.62679206  1.01714667  0.23133527  1
  O  O231  1  0.56276269  0.98223009  0.74399476  1
  O  O232  1  0.38204291  0.01076330  0.23544657  1
  O  O233  1  0.39035326  0.02144734  0.70002023  1
  O  O234  1  0.37390625  0.51199430  0.24340273  1
  O  O235  1  0.37827117  0.51434707  0.75428490  1
  O  O236  1  0.95043474  0.07325545  0.24036926  1
  O  O237  1  0.89990907  0.00670756  0.79543599  1
  O  O238  1  0.86963350  0.50826358  0.25645347  1
  O  O239  1  0.86040569  0.49558952  0.76247053  1
  O  O240  1  0.11265556  0.38307896  0.37180289  1
  O  O241  1  0.09976755  0.41052998  0.87019609  1
  O  O242  1  0.10391487  0.87336582  0.35867888  1
  O  O243  1  0.12240326  0.84318958  0.88994686  1
  O  O244  1  0.60005874  0.40595623  0.33990282  1
  O  O245  1  0.63931290  0.38373441  0.85222218  1
  O  O246  1  0.63855416  0.82530781  0.35099581  1
  O  O247  1  0.63009128  0.86302310  0.89306958  1
  O  O248  1  0.38701291  0.13486113  0.12317616  1
  O  O249  1  0.33240637  0.16069706  0.64154483  1
  O  O250  1  0.38890935  0.63749999  0.12187314  1
  O  O251  1  0.35762420  0.62406568  0.64546354  1
  O  O252  1  0.87458511  0.13486475  0.12175186  1
  O  O253  1  0.84135878  0.06209224  0.64498524  1
  O  O254  1  0.89465296  0.60893879  0.13545053  1
  O  O255  1  0.89552620  0.63509350  0.62578167  1
  O  O256  1  0.26443705  0.27075313  0.12525318  1
  O  O257  1  0.21713531  0.28879096  0.57289152  1
  O  O258  1  0.28089929  0.74160687  0.14132676  1
  O  O259  1  0.24812639  0.74486041  0.63304307  1
  O  O260  1  0.73800806  0.25825533  0.11734678  1
  O  O261  1  0.73098980  0.24862666  0.59294353  1
  O  O262  1  0.75984367  0.74640893  0.11371591  1
  O  O263  1  0.77969338  0.74866532  0.64973481  1
  O  O264  1  0.26337811  0.32491425  0.40834841  1
  O  O265  1  0.28782493  0.18066107  0.91435454  1
  O  O266  1  0.30873098  0.84551512  0.41753504  1
  O  O267  1  0.23309942  0.72995160  0.87227004  1
  O  O268  1  0.74947975  0.24824515  0.37160928  1
  O  O269  1  0.72471834  0.24250345  0.88878262  1
  O  O270  1  0.77380175  0.73814172  0.38021946  1
  O  O271  1  0.75364761  0.73491918  0.88786320  1
  O  O272  1  -0.03257137  0.15019763  -0.00784051  1
  O  O273  1  0.00011695  0.13028200  0.49288144  1
  O  O274  1  0.00215339  0.61913714  0.01615912  1
  O  O275  1  0.00687029  0.60954113  0.50686030  1
  O  O276  1  0.50567558  0.13265948  0.01646995  1
  O  O277  1  0.43181534  0.09717108  0.51791147  1
  O  O278  1  0.51550976  0.62005326  0.00223982  1
  O  O279  1  0.50200214  0.57715422  0.45767577  1
  O  O280  1  0.55934454  0.32296864  0.48150953  1
  O  O281  1  0.51656951  0.39791789  1.00615948  1
  O  O282  1  0.48821221  0.86473660  0.46585451  1
  O  O283  1  0.49249303  0.86563607  1.01560191  1
  O  O284  1  0.99322160  0.39086400  0.48157845  1
  O  O285  1  0.97727336  0.37121052  0.97883907  1
  O  O286  1  0.99125030  0.86010847  0.48194130  1
  O  O287  1  1.01653251  0.87190442  1.00299698  1
  O  O288  1  0.52059359  0.52028313  0.39986625  1
  O  O289  1  0.51337963  0.50532735  0.88747865  1
  O  O290  1  0.50629771  1.01946448  0.39876019  1
  O  O291  1  0.50770297  0.92818897  0.96659184  1
  O  O292  1  0.99451313  0.49511853  0.37871312  1
  O  O293  1  0.97427440  0.49234276  0.86674360  1
  O  O294  1  1.00755784  0.98493683  0.39801289  1
  O  O295  1  1.03466991  0.98191271  0.88614186  1
  O  O296  1  0.00479579  0.03614984  0.08914254  1
  O  O297  1  0.01160449  0.01328155  0.61297728  1
  O  O298  1  0.02397461  0.51070964  0.13732803  1
  O  O299  1  -0.01645465  0.50243691  0.60962778  1
  O  O300  1  0.50275076  0.01484184  0.12402556  1
  O  O301  1  0.53731359  -0.01004672  0.56962565  1
  O  O302  1  0.49356801  0.52283093  0.11272553  1
  O  O303  1  0.50642903  0.51381732  0.63393725  1
  O  O304  1  0.26397320  0.39441926  0.23132322  1
  O  O305  1  0.17001144  0.44222730  0.72711933  1
  O  O306  1  0.23310962  0.87880724  0.27317227  1
  O  O307  1  0.26947691  0.90020065  0.77093987  1
  O  O308  1  0.73373541  0.38818278  0.24768208  1
  O  O309  1  0.74891959  0.38966679  0.73915854  1
  O  O310  1  0.73279693  0.88764486  0.25946825  1
  O  O311  1  0.78047869  0.90379480  0.83039670  1
  O  O312  1  0.26039843  0.10779807  0.20604929  1
  O  O313  1  0.26722008  0.09783188  0.76810123  1
  O  O314  1  0.27375532  0.61606565  0.25142380  1
  O  O315  1  0.24027261  0.61082209  0.76360355  1
  O  O316  1  0.76361285  0.13986295  0.24527214  1
  O  O317  1  0.70189135  0.11987591  0.77495062  1
  O  O318  1  0.76936825  0.62122997  0.25262913  1
  O  O319  1  0.74939128  0.62014921  0.76968261  1
  O  O320  1  0.35183648  0.12337976  0.34489251  1
  O  O321  1  0.40084520  0.08435043  0.84988289  1
  O  O322  1  0.37905434  0.60668698  0.37372722  1
  O  O323  1  0.36045147  0.63170870  0.86149061  1
  O  O324  1  0.87029067  0.14863604  0.34359658  1
  O  O325  1  0.84553396  0.15437855  0.85053377  1
  O  O326  1  0.87631060  0.61840691  0.36355943  1
  O  O327  1  0.85958157  0.60716402  0.88976602  1
  O  O328  1  0.14155791  0.39093872  0.11867232  1
  O  O329  1  0.21764629  0.43983019  0.67035801  1
  O  O330  1  0.13649541  0.83974770  0.15330299  1
  O  O331  1  0.10905670  0.88987791  0.63513431  1
  O  O332  1  0.57604729  0.39581604  0.16854226  1
  O  O333  1  0.60429387  0.39389487  0.65939223  1
  O  O334  1  0.62950376  0.89668627  0.12979342  1
  O  O335  1  0.57951386  0.84730570  0.64592397  1
  O  O336  1  0.17243800  0.24549283  0.27714551  1
  O  O337  1  0.13869855  0.24476393  0.75684676  1
  O  O338  1  0.11950483  0.71924885  0.26442904  1
  O  O339  1  0.11219467  0.72674028  0.77131763  1
  O  O340  1  0.60080077  0.26332245  0.25308081  1
  O  O341  1  0.59518743  0.27123681  0.75290434  1
  O  O342  1  0.62123974  0.76174080  0.20840707  1
  O  O343  1  0.64033076  0.74990738  0.77695370  1
  O  O344  1  0.36905017  0.23502380  0.24012364  1
  O  O345  1  0.38105014  0.22541086  0.76204905  1
  O  O346  1  0.37307408  0.73874013  0.29906137  1
  O  O347  1  0.36680079  0.73576730  0.74056396  1
  O  O348  1  0.87303511  0.26088042  0.23134211  1
  O  O349  1  0.86746657  0.27752589  0.66284881  1
  O  O350  1  0.88809789  0.73080862  0.24542369  1
  O  O351  1  0.89902693  0.74514938  0.75795348  1
  O  O352  1  0.45572384  0.55499286  0.51069716  1
  O  O353  1  0.39434547  0.50603056  0.99330366  1
  O  O354  1  0.38291908  1.04280399  0.52876268  1
  O  O355  1  0.35687880  0.99337247  1.04287909  1
  O  O356  1  0.88112096  0.50802474  0.48092587  1
  O  O357  1  0.85725523  0.48509586  0.98503857  1
  O  O358  1  0.90158895  1.00439872  0.50485836  1
  O  O359  1  0.87144784  0.99642757  0.97844453  1
  O  O360  1  0.17541336  -0.06968894  0.02286803  1
  O  O361  1  0.11020589  -0.00771455  0.51345810  1
  O  O362  1  0.13050257  0.51300572  0.01857417  1
  O  O363  1  0.11190602  0.49204024  0.49820831  1
  O  O364  1  0.63318414  0.02328777  0.01776922  1
  O  O365  1  0.63887077  -0.05494597  0.45156192  1
  O  O366  1  0.62452286  0.51874320  0.00433613  1
  O  O367  1  0.62542246  0.49202800  0.53074247  1
  O  O368  1  0.37691013  0.36686077  0.12585373  1
  O  O369  1  0.34575538  0.34249301  0.66408975  1
  O  O370  1  0.39009173  0.84438829  0.15010285  1
  O  O371  1  0.37043626  0.84702170  0.62482296  1
  O  O372  1  0.88340549  0.38803570  0.10498137  1
  O  O373  1  0.86668893  0.34398877  0.63465990  1
  O  O374  1  0.89848868  0.88580385  0.14399338  1
  O  O375  1  0.89536872  0.86436176  0.64572556  1
  O  O376  1  0.08841189  0.13004963  0.34394124  1
  O  O377  1  0.11793679  0.13997290  0.89527560  1
  O  O378  1  0.11684614  0.62038117  0.39508467  1
  O  O379  1  0.13303418  0.61504317  0.89061876  1
  O  O380  1  0.64845606  0.12622773  0.35358044  1
  O  O381  1  0.60913342  0.11807212  0.89867267  1
  O  O382  1  0.65097357  0.64549208  0.36271461  1
  O  O383  1  0.64035132  0.63064128  0.88926212  1
