# generated using pymatgen
data_VZnO4
_symmetry_space_group_name_H-M   'P 1'
_cell_length_a   16.98941962
_cell_length_b   17.09433703
_cell_length_c   16.97055152
_cell_angle_alpha   90.31283816
_cell_angle_beta   89.89765169
_cell_angle_gamma   90.22465125
_symmetry_Int_Tables_number   1
_chemical_formula_structural   VZnO4
_chemical_formula_sum   'V64 Zn64 O256'
_cell_volume   4928.51716606
_cell_formula_units_Z   64
loop_
 _symmetry_equiv_pos_site_id
 _symmetry_equiv_pos_as_xyz
  1  'x, y, z'
loop_
 _atom_site_type_symbol
 _atom_site_label
 _atom_site_symmetry_multiplicity
 _atom_site_fract_x
 _atom_site_fract_y
 _atom_site_fract_z
 _atom_site_occupancy
  V  V0  1  -0.01324703  0.23162966  0.24583251  1
  V  V1  1  0.37734634  0.61173378  0.23888693  1
  V  V2  1  0.40895830  0.85157687  0.48912519  1
  V  V3  1  0.65570532  0.05016541  0.16213454  1
  V  V4  1  0.23466193  0.36715072  0.14182967  1
  V  V5  1  0.13456058  0.00594285  0.61725083  1
  V  V6  1  0.64722038  0.25663976  0.87066624  1
  V  V7  1  0.72990589  0.85375522  0.12528389  1
  V  V8  1  0.49400974  0.13260870  0.14267478  1
  V  V9  1  0.61725278  0.51438745  0.11730977  1
  V  V10  1  0.61865917  0.87688312  0.25693496  1
  V  V11  1  -0.00212396  0.00857272  0.49806341  1
  V  V12  1  0.87474280  0.24521789  0.11535348  1
  V  V13  1  0.75141861  0.49033266  0.73985578  1
  V  V14  1  0.85502713  0.88685448  0.50870134  1
  V  V15  1  0.76366145  0.62490371  0.37077140  1
  V  V16  1  0.63108335  0.88128811  0.73509352  1
  V  V17  1  0.49273504  0.74734718  0.73469723  1
  V  V18  1  0.92328232  0.75210979  0.65643352  1
  V  V19  1  0.88615021  0.50768980  0.86835642  1
  V  V20  1  0.50898717  0.37244313  0.87989202  1
  V  V21  1  0.88222281  0.10580828  0.74211039  1
  V  V22  1  0.22839720  0.00662533  0.23447782  1
  V  V23  1  0.24590948  0.44074969  0.74941982  1
  V  V24  1  0.24921904  0.12435603  0.36898859  1
  V  V25  1  0.61067966  0.49031074  0.62447754  1
  V  V26  1  0.64114508  0.23519935  0.37815808  1
  V  V27  1  0.00051907  0.86639495  0.37073139  1
  V  V28  1  0.60871778  0.73868241  0.37527986  1
  V  V29  1  0.51555488  0.25784339  0.74140722  1
  V  V30  1  0.74743351  0.74996528  0.51113348  1
  V  V31  1  0.88679077  0.38499334  -0.00724663  1
  V  V32  1  0.37767207  0.50141983  0.38347102  1
  V  V33  1  0.85710500  0.01469643  0.36297874  1
  V  V34  1  0.61226977  0.61851547  0.50976442  1
  V  V35  1  0.12754140  0.52876203  0.65165229  1
  V  V36  1  0.11991302  0.26017293  0.36199983  1
  V  V37  1  0.25747287  0.00489762  0.73965527  1
  V  V38  1  0.50058894  0.26767566  0.26396972  1
  V  V39  1  0.61618494  0.76605432  0.88098765  1
  V  V40  1  0.64370585  0.11363777  0.50383562  1
  V  V41  1  0.74257684  0.37414572  0.11246681  1
  V  V42  1  0.00759179  0.26750424  0.75399947  1
  V  V43  1  -0.00300643  0.60341643  0.11420484  1
  V  V44  1  0.87519491  0.40015846  0.50274615  1
  V  V45  1  0.38560654  0.25760194  0.59858461  1
  V  V46  1  0.24901304  0.13635670  0.88550865  1
  V  V47  1  0.36754207  0.47883222  0.87316866  1
  V  V48  1  0.51282084  0.11075770  0.61698576  1
  V  V49  1  0.38023304  0.12719604  0.74958491  1
  V  V50  1  0.11915344  0.13563013  0.49309171  1
  V  V51  1  0.23472335  0.64812412  0.34517944  1
  V  V52  1  0.16269940  0.57474973  -0.00140832  1
  V  V53  1  0.38252687  0.35755809  0.01456373  1
  V  V54  1  0.76347428  0.09940325  0.86831516  1
  V  V55  1  0.72502713  0.61582045  0.87673144  1
  V  V56  1  0.75399930  0.49139419  0.25587757  1
  V  V57  1  0.87457769  0.74265530  0.14199134  1
  V  V58  1  0.61289797  0.11161496  -0.02324107  1
  V  V59  1  0.20941319  0.75429887  0.51506260  1
  V  V60  1  0.49708120  0.73845354  0.22933553  1
  V  V61  1  -0.00964206  0.39752432  0.36740971  1
  V  V62  1  0.86781210  0.87733981  -0.00190206  1
  V  V63  1  0.87323510  0.25540299  0.61960402  1
  Zn  Zn64  1  0.18071990  0.19648184  0.18927760  1
  Zn  Zn65  1  0.20488916  0.23972548  0.68934364  1
  Zn  Zn66  1  0.19220682  0.55062833  0.17216426  1
  Zn  Zn67  1  0.12711131  0.72616501  0.67786078  1
  Zn  Zn68  1  0.68011547  0.21141520  0.18587907  1
  Zn  Zn69  1  0.70042212  0.18557003  0.68626596  1
  Zn  Zn70  1  0.68533353  0.67594349  0.19266498  1
  Zn  Zn71  1  0.68268681  0.68188097  0.69816159  1
  Zn  Zn72  1  0.31795130  0.31530144  0.31955204  1
  Zn  Zn73  1  0.33133174  0.29926780  0.81088291  1
  Zn  Zn74  1  0.33441417  0.81301676  0.31029742  1
  Zn  Zn75  1  0.30672894  0.81502637  0.67693695  1
  Zn  Zn76  1  0.81746840  0.31600086  0.31136895  1
  Zn  Zn77  1  0.82542847  0.32208586  0.80071063  1
  Zn  Zn78  1  0.80200682  0.81669263  0.32387869  1
  Zn  Zn79  1  0.80303838  0.79435940  0.81703623  1
  Zn  Zn80  1  0.19029613  0.44812342  0.31663915  1
  Zn  Zn81  1  0.19635748  0.38186472  0.94409745  1
  Zn  Zn82  1  0.18747392  0.93771075  0.42770258  1
  Zn  Zn83  1  0.19580632  1.06916023  1.04878394  1
  Zn  Zn84  1  0.69834302  0.44410510  0.44750100  1
  Zn  Zn85  1  0.69131642  0.44011233  0.93619741  1
  Zn  Zn86  1  0.67740023  0.93262550  0.43461585  1
  Zn  Zn87  1  0.69622085  0.93309030  0.93815030  1
  Zn  Zn88  1  0.32774736  0.19628241  0.07109957  1
  Zn  Zn89  1  0.29150152  0.11750823  0.57740306  1
  Zn  Zn90  1  0.37362581  0.57740687  0.02863281  1
  Zn  Zn91  1  0.24623623  0.54951002  0.49395648  1
  Zn  Zn92  1  0.79834404  0.06069903  0.05879169  1
  Zn  Zn93  1  0.82405977  0.06559320  0.56538038  1
  Zn  Zn94  1  0.80470326  0.55639729  0.06425233  1
  Zn  Zn95  1  0.80964309  0.57270268  0.56301325  1
  Zn  Zn96  1  0.44713430  0.43723980  0.19649087  1
  Zn  Zn97  1  0.43404863  0.43323475  0.68188733  1
  Zn  Zn98  1  0.38225195  0.99157594  0.35863930  1
  Zn  Zn99  1  0.45211673  0.93867524  0.69398247  1
  Zn  Zn100  1  0.92985484  0.43358252  0.18822715  1
  Zn  Zn101  1  0.94559472  0.43718140  0.68944994  1
  Zn  Zn102  1  0.90519705  0.91139043  0.20714247  1
  Zn  Zn103  1  0.81251890  0.91884196  0.68715580  1
  Zn  Zn104  1  0.05443944  0.05737812  0.31416699  1
  Zn  Zn105  1  0.09306413  0.11685267  0.77897272  1
  Zn  Zn106  1  0.05341631  0.57171901  0.29739877  1
  Zn  Zn107  1  0.09619489  0.52628294  0.86074348  1
  Zn  Zn108  1  0.55858823  0.06692078  0.32127789  1
  Zn  Zn109  1  0.57347920  0.07003808  0.80264852  1
  Zn  Zn110  1  0.56421744  0.55625938  0.31012261  1
  Zn  Zn111  1  0.55743779  0.55435399  0.79441735  1
  Zn  Zn112  1  0.45192439  0.16388256  0.42309988  1
  Zn  Zn113  1  0.45761341  0.17801163  0.93138701  1
  Zn  Zn114  1  0.40500128  0.64948924  0.46320879  1
  Zn  Zn115  1  0.45546863  0.65590289  0.88038839  1
  Zn  Zn116  1  0.92928286  0.18911637  0.42908190  1
  Zn  Zn117  1  0.93079850  0.19541857  0.92812983  1
  Zn  Zn118  1  0.93167408  0.69471541  0.45224788  1
  Zn  Zn119  1  0.87648259  0.66586064  0.96905091  1
  Zn  Zn120  1  0.06040276  0.31527039  0.05498640  1
  Zn  Zn121  1  0.03442807  0.30315360  0.54907699  1
  Zn  Zn122  1  0.00003751  0.76255088  0.01805073  1
  Zn  Zn123  1  0.05104858  0.83693413  0.56328090  1
  Zn  Zn124  1  0.56537077  0.29529732  0.05771748  1
  Zn  Zn125  1  0.58021622  0.30248496  0.55826160  1
  Zn  Zn126  1  0.55141653  0.67288237  0.04239520  1
  Zn  Zn127  1  0.57225033  0.80834443  0.56812722  1
  O  O128  1  0.11409269  0.13525024  0.10001192  1
  O  O129  1  0.12532052  0.12843482  0.59361705  1
  O  O130  1  0.11345225  0.59756911  0.09237856  1
  O  O131  1  0.11082879  0.61798369  0.69545965  1
  O  O132  1  0.66284984  0.13127180  0.09420109  1
  O  O133  1  0.62261220  0.13006077  0.61956825  1
  O  O134  1  0.62737650  0.61830945  0.11195409  1
  O  O135  1  0.62971255  0.61478195  0.61400636  1
  O  O136  1  0.35509371  0.40348040  0.38488238  1
  O  O137  1  0.39718567  0.35933970  0.88202046  1
  O  O138  1  0.38190066  0.88030985  0.39017105  1
  O  O139  1  0.36862208  0.81120252  0.93519375  1
  O  O140  1  0.88289046  0.38081150  0.38453006  1
  O  O141  1  0.87206678  0.38551040  0.88670196  1
  O  O142  1  0.86905640  0.88823443  0.39289680  1
  O  O143  1  0.84334001  0.85923146  0.90140603  1
  O  O144  1  0.25880173  0.01662463  0.37428237  1
  O  O145  1  0.25641903  0.02691243  0.83944164  1
  O  O146  1  0.24947110  0.52431431  0.37799913  1
  O  O147  1  0.26480086  0.44303843  0.86780123  1
  O  O148  1  0.76004120  -0.00574133  0.38212826  1
  O  O149  1  0.75322093  0.00176445  0.86448901  1
  O  O150  1  0.74189200  0.51061432  0.36464027  1
  O  O151  1  0.75150877  0.50319613  0.86168092  1
  O  O152  1  0.25436586  0.46550335  0.12373577  1
  O  O153  1  0.23535478  0.47714987  0.65547318  1
  O  O154  1  0.22294308  1.00521467  0.13457510  1
  O  O155  1  0.24193811  1.02334310  0.61872699  1
  O  O156  1  0.74123163  0.48801303  0.13246154  1
  O  O157  1  0.75497893  0.50886902  0.63828630  1
  O  O158  1  0.73212268  0.98884841  0.13030761  1
  O  O159  1  0.80256917  0.95256458  0.57844488  1
  O  O160  1  -0.01400240  0.37171644  0.26500615  1
  O  O161  1  0.01245690  0.36589912  0.75419923  1
  O  O162  1  -0.01111095  0.87561232  0.27036435  1
  O  O163  1  -0.00273005  0.92658084  0.82016105  1
  O  O164  1  0.51186546  0.36722808  0.25771267  1
  O  O165  1  0.50286224  0.35840457  0.75161101  1
  O  O166  1  0.51684613  0.84307986  0.25266869  1
  O  O167  1  0.51699691  0.86238241  0.74429076  1
  O  O168  1  0.50599702  0.14058005  0.24706527  1
  O  O169  1  0.50067021  0.13388841  0.73746840  1
  O  O170  1  0.48937799  0.63047777  0.25459580  1
  O  O171  1  0.49046842  0.64226136  0.76733605  1
  O  O172  1  0.99518866  0.13346424  0.24543499  1
  O  O173  1  0.98209672  0.11741045  0.75581611  1
  O  O174  1  1.00940050  0.62986020  0.21053597  1
  O  O175  1  1.07592204  0.74741482  0.83218292  1
  O  O176  1  0.39875785  0.25204824  -0.00111158  1
  O  O177  1  0.40280308  0.24170370  0.50230419  1
  O  O178  1  0.34103111  0.74585278  -0.07859956  1
  O  O179  1  0.38503615  0.75468745  0.50038807  1
  O  O180  1  0.88253191  0.26661076  0.00780682  1
  O  O181  1  0.88621331  0.24497009  0.51740927  1
  O  O182  1  0.86169373  0.76184304  0.02475993  1
  O  O183  1  0.85093522  0.76868275  0.49509667  1
  O  O184  1  0.10290089  0.24016763  0.47523439  1
  O  O185  1  0.06985129  0.17272655  1.03382648  1
  O  O186  1  0.10944513  0.74932683  0.51484057  1
  O  O187  1  0.16791826  0.77288242  1.03284502  1
  O  O188  1  0.63025386  0.23365729  0.48763539  1
  O  O189  1  0.62765231  0.23796178  0.97179171  1
  O  O190  1  0.63076475  0.73601072  0.49243419  1
  O  O191  1  0.61422894  0.74519726  0.97844886  1
  O  O192  1  0.52107902  0.24169047  0.14896424  1
  O  O193  1  0.50692048  0.24872989  0.63164146  1
  O  O194  1  0.50968706  0.73678175  0.13227537  1
  O  O195  1  0.51453509  0.73804788  0.63709331  1
  O  O196  1  0.98467198  0.26055621  0.13528391  1
  O  O197  1  0.98990106  0.25334226  0.63784051  1
  O  O198  1  0.97314126  0.76262399  0.13597135  1
  O  O199  1  1.02491418  0.77888943  0.66230350  1
  O  O200  1  -0.00249636  0.24995964  0.35612718  1
  O  O201  1  -0.00194491  0.24530739  0.85403843  1
  O  O202  1  -0.01529017  0.76791124  0.38848685  1
  O  O203  1  0.05273062  0.79448325  0.88778796  1
  O  O204  1  0.51942628  0.24243869  0.36872741  1
  O  O205  1  0.51523429  0.25693273  0.85750652  1
  O  O206  1  0.51201064  0.73795992  0.38060114  1
  O  O207  1  0.51317438  0.75573078  0.86039614  1
  O  O208  1  0.22976308  0.13133593  0.47865552  1
  O  O209  1  0.27028857  0.12605432  0.98859828  1
  O  O210  1  0.24577792  0.66879476  0.46470671  1
  O  O211  1  0.26001984  0.59298291  1.01205518  1
  O  O212  1  0.74186338  0.12364653  0.51754915  1
  O  O213  1  0.74674410  0.12006814  0.97042444  1
  O  O214  1  0.74312749  0.63365969  0.49110606  1
  O  O215  1  0.75797048  0.61729868  0.97704675  1
  O  O216  1  0.27901679  0.35318672  0.02213540  1
  O  O217  1  0.20102354  0.36850906  0.53569642  1
  O  O218  1  0.31641288  0.95292113  -0.00571974  1
  O  O219  1  0.23622787  0.84336129  0.47716363  1
  O  O220  1  0.75822000  0.37725568  0.00990847  1
  O  O221  1  0.77617331  0.38036351  0.49494377  1
  O  O222  1  0.73748028  0.87129125  0.02355151  1
  O  O223  1  0.73785754  0.85304992  0.49221628  1
  O  O224  1  0.12279905  0.49999666  0.24506330  1
  O  O225  1  0.15176586  0.48597439  0.77038628  1
  O  O226  1  0.13535074  0.98832001  0.26736201  1
  O  O227  1  0.14178525  1.02474874  0.72483214  1
  O  O228  1  0.64076524  0.51189336  0.23368825  1
  O  O229  1  0.63535525  0.49936426  0.73118187  1
  O  O230  1  0.61096289  0.97652557  0.26688269  1
  O  O231  1  0.62005172  0.97971435  0.75789104  1
  O  O232  1  0.34145707  -0.02475437  0.24559443  1
  O  O233  1  0.37222503  0.01931708  0.72917832  1
  O  O234  1  0.37954658  0.50807525  0.26019623  1
  O  O235  1  0.35456042  0.46439782  0.75773638  1
  O  O236  1  0.87053719  0.00032496  0.26311338  1
  O  O237  1  0.87134868  0.00791063  0.73067811  1
  O  O238  1  0.85241001  0.50447459  0.24173283  1
  O  O239  1  0.86686673  0.49115120  0.75961547  1
  O  O240  1  0.10767020  0.36295404  0.37073914  1
  O  O241  1  0.12471169  0.29992483  0.96327505  1
  O  O242  1  0.09914651  0.87755667  0.38670813  1
  O  O243  1  0.16239040  0.88810168  0.90150594  1
  O  O244  1  0.61092020  0.36685249  0.40647388  1
  O  O245  1  0.61937441  0.36545389  0.87549353  1
  O  O246  1  0.62978649  0.84816970  0.36559090  1
  O  O247  1  0.63177288  0.86595235  0.87214415  1
  O  O248  1  0.39622975  0.12053899  0.12532686  1
  O  O249  1  0.40027535  0.13652833  0.62476230  1
  O  O250  1  0.37845249  0.60746072  0.13981534  1
  O  O251  1  0.29720635  0.63488466  0.73243594  1
  O  O252  1  0.86068198  0.14818989  0.10675057  1
  O  O253  1  0.87344020  0.13832503  0.63873198  1
  O  O254  1  0.87605936  0.63498919  0.11913884  1
  O  O255  1  0.88454753  0.65491146  0.61438879  1
  O  O256  1  0.26035831  0.25610202  0.13769714  1
  O  O257  1  0.28203398  0.23245829  0.60750062  1
  O  O258  1  0.21363572  0.82286573  0.05876452  1
  O  O259  1  0.22762741  0.75394084  0.62177900  1
  O  O260  1  0.76510742  0.26956435  0.13513229  1
  O  O261  1  0.77340993  0.25808090  0.63643315  1
  O  O262  1  0.74324600  0.75194620  0.12928488  1
  O  O263  1  0.73974521  0.73900571  0.60984560  1
  O  O264  1  0.22353685  0.24843038  0.35874205  1
  O  O265  1  0.26099999  0.23398820  0.87071143  1
  O  O266  1  0.24535227  0.74714963  0.33076265  1
  O  O267  1  0.22290536  0.85018659  0.89634839  1
  O  O268  1  0.73853325  0.25941347  0.37032339  1
  O  O269  1  0.74496646  0.26744338  0.86448875  1
  O  O270  1  0.74047922  0.73246352  0.38094606  1
  O  O271  1  0.72358038  0.72424174  0.86458465  1
  O  O272  1  0.00984383  0.13125045  0.01005682  1
  O  O273  1  0.00901782  0.11469119  0.47869787  1
  O  O274  1  -0.01018619  0.65078720  0.01382977  1
  O  O275  1  -0.04340887  0.67324640  0.56957221  1
  O  O276  1  0.52711079  0.14707272  0.03448991  1
  O  O277  1  0.51849630  0.12716077  0.51634961  1
  O  O278  1  0.46415314  0.63077590  -0.01198829  1
  O  O279  1  0.51504714  0.62531169  0.50146051  1
  O  O280  1  0.54880466  0.37161762  0.45177099  1
  O  O281  1  0.50582564  0.36566117  0.98354479  1
  O  O282  1  0.50735604  0.86612974  0.49592566  1
  O  O283  1  0.44076967  0.88409027  1.08147369  1
  O  O284  1  0.98882239  0.37681285  0.47885148  1
  O  O285  1  0.98430784  0.38653423  1.00544502  1
  O  O286  1  0.97794184  0.89267691  0.49702561  1
  O  O287  1  0.97106707  0.86815764  1.00015918  1
  O  O288  1  0.47898098  0.51081883  0.37602330  1
  O  O289  1  0.48948720  0.47364529  0.85382171  1
  O  O290  1  0.46757333  1.05381982  0.38656907  1
  O  O291  1  0.53075590  1.08942767  0.90773589  1
  O  O292  1  0.99985478  0.49561255  0.36650355  1
  O  O293  1  0.98481975  0.50642978  0.86504672  1
  O  O294  1  0.98785552  0.99072427  0.38049202  1
  O  O295  1  1.00387713  0.97195333  0.87575947  1
  O  O296  1  0.07034229  -0.03457651  0.03778447  1
  O  O297  1  0.01707905  0.01087155  0.59917196  1
  O  O298  1  -0.02307923  0.50735898  0.11348996  1
  O  O299  1  0.03909546  0.48152327  0.64276354  1
  O  O300  1  0.54874609  0.04072285  0.14272132  1
  O  O301  1  0.50720271  0.01370320  0.62703941  1
  O  O302  1  0.51972224  0.49774039  0.13177684  1
  O  O303  1  0.51166719  0.49965345  0.63476751  1
  O  O304  1  0.24687925  0.37126174  0.24818464  1
  O  O305  1  0.24395908  0.33918943  0.74120125  1
  O  O306  1  0.28677243  0.90956699  0.24945089  1
  O  O307  1  0.26025496  0.90626279  0.73362586  1
  O  O308  1  0.75157866  0.38811318  0.24476368  1
  O  O309  1  0.74911112  0.39156483  0.74833994  1
  O  O310  1  0.72901420  0.86464238  0.24555711  1
  O  O311  1  0.73944683  0.86419006  0.75080292  1
  O  O312  1  0.23436890  0.11436410  0.25529980  1
  O  O313  1  0.27559400  0.13538376  0.73597208  1
  O  O314  1  0.26193404  0.61915767  0.24104031  1
  O  O315  1  0.25833778  0.65415933  0.79035050  1
  O  O316  1  0.68766097  0.10506137  0.23890554  1
  O  O317  1  0.76758018  0.12847660  0.75941349  1
  O  O318  1  0.75173263  0.61977489  0.26718551  1
  O  O319  1  0.74297997  0.60926669  0.76538581  1
  O  O320  1  0.34275702  0.15271390  0.37290980  1
  O  O321  1  0.37829557  0.13001355  0.85265412  1
  O  O322  1  0.35839631  0.62541368  0.35426199  1
  O  O323  1  0.36530223  0.57705337  0.87106609  1
  O  O324  1  0.86672779  0.11443790  0.37368911  1
  O  O325  1  0.86903228  0.12161067  0.86343591  1
  O  O326  1  0.86178786  0.62657133  0.38876734  1
  O  O327  1  0.86656851  0.60860009  0.87115622  1
  O  O328  1  0.13643064  0.35951801  0.12849953  1
  O  O329  1  0.15260610  0.34792104  0.58696311  1
  O  O330  1  0.14177487  0.83394843  0.20178035  1
  O  O331  1  0.13176788  0.90750091  0.61142793  1
  O  O332  1  0.64190680  0.36442264  0.11727024  1
  O  O333  1  0.62440302  0.39261629  0.60832203  1
  O  O334  1  0.62771815  0.86668584  0.14612770  1
  O  O335  1  0.63277738  0.87787427  0.63479043  1
  O  O336  1  0.10177753  0.24772634  0.25503658  1
  O  O337  1  0.10722621  0.22533975  0.73814406  1
  O  O338  1  0.11751100  0.76693980  0.20605156  1
  O  O339  1  0.13716626  0.77420938  0.78881656  1
  O  O340  1  0.62248393  0.25491284  0.27233735  1
  O  O341  1  0.62114284  0.24542414  0.75403695  1
  O  O342  1  0.61246045  0.73090081  0.26485143  1
  O  O343  1  0.61804357  0.75942912  0.75514741  1
  O  O344  1  0.39916523  0.25998594  0.26473893  1
  O  O345  1  0.39837742  0.24009489  0.73643827  1
  O  O346  1  0.39230677  0.73969364  0.24313306  1
  O  O347  1  0.39281738  0.76993186  0.73539008  1
  O  O348  1  0.88083164  0.25077558  0.23723978  1
  O  O349  1  0.89160172  0.25383043  0.73957835  1
  O  O350  1  0.85677300  0.75509967  0.24085491  1
  O  O351  1  0.88672744  0.74731723  0.74936001  1
  O  O352  1  0.36230509  0.54078698  0.48398372  1
  O  O353  1  0.38108092  0.46683381  0.98010275  1
  O  O354  1  0.35946822  0.93075589  0.54778728  1
  O  O355  1  0.38125766  0.97014624  0.96766098  1
  O  O356  1  0.88111122  0.49875046  0.51210376  1
  O  O357  1  0.86759976  0.49253380  0.98400648  1
  O  O358  1  0.89100533  1.01049603  0.48665211  1
  O  O359  1  0.85896288  0.97712266  1.01310778  1
  O  O360  1  0.11475801  -0.00225300  -0.01097962  1
  O  O361  1  0.11917031  0.01371222  0.49299429  1
  O  O362  1  0.13907518  0.47939218  -0.03305518  1
  O  O363  1  0.15388698  0.54840772  0.55562329  1
  O  O364  1  0.63247001  0.01590716  -0.00858840  1
  O  O365  1  0.62871325  0.01505995  0.49322964  1
  O  O366  1  0.63147475  0.49082814  0.01930486  1
  O  O367  1  0.63168518  0.51208825  0.51109443  1
  O  O368  1  0.40168699  0.37197888  0.11151762  1
  O  O369  1  0.38872899  0.35634220  0.61293996  1
  O  O370  1  0.37770104  0.85366197  0.09819492  1
  O  O371  1  0.38584835  0.87793163  0.60903399  1
  O  O372  1  0.86484875  0.37415752  0.11051805  1
  O  O373  1  0.88966728  0.36994407  0.60888458  1
  O  O374  1  0.84800457  0.86285274  0.12586189  1
  O  O375  1  0.88457450  0.83956343  0.62117472  1
  O  O376  1  0.12729242  0.13402285  0.37280163  1
  O  O377  1  0.14943174  0.12429637  0.87962084  1
  O  O378  1  0.13558811  0.63625264  0.34769815  1
  O  O379  1  0.13092147  0.62485922  0.91744951  1
  O  O380  1  0.63534185  0.12911019  0.38878380  1
  O  O381  1  0.65446401  0.13975904  0.86291968  1
  O  O382  1  0.63003485  0.62709924  0.38802068  1
  O  O383  1  0.62451117  0.60373974  0.87981451  1
