# generated using pymatgen
data_VZnO4
_symmetry_space_group_name_H-M   'P 1'
_cell_length_a   16.97694388
_cell_length_b   17.07959974
_cell_length_c   17.01524286
_cell_angle_alpha   89.78704282
_cell_angle_beta   89.97861977
_cell_angle_gamma   89.77587797
_symmetry_Int_Tables_number   1
_chemical_formula_structural   VZnO4
_chemical_formula_sum   'V64 Zn64 O256'
_cell_volume   4933.65757551
_cell_formula_units_Z   64
loop_
 _symmetry_equiv_pos_site_id
 _symmetry_equiv_pos_as_xyz
  1  'x, y, z'
loop_
 _atom_site_type_symbol
 _atom_site_label
 _atom_site_symmetry_multiplicity
 _atom_site_fract_x
 _atom_site_fract_y
 _atom_site_fract_z
 _atom_site_occupancy
  V  V0  1  0.25399880  0.37472235  0.15966374  1
  V  V1  1  0.76025043  0.01430361  0.26213240  1
  V  V2  1  0.87641434  0.61976093  0.75697904  1
  V  V3  1  0.24962403  0.23465777  0.53682391  1
  V  V4  1  0.87223957  0.15039124  0.25159515  1
  V  V5  1  0.63064497  0.38787268  0.25399674  1
  V  V6  1  0.35505314  0.59010309  0.75217353  1
  V  V7  1  0.63001817  0.37608965  0.74613724  1
  V  V8  1  0.63319615  0.61594587  0.47480995  1
  V  V9  1  0.74822401  0.35410572  0.62073852  1
  V  V10  1  0.12895586  0.88628026  0.24906231  1
  V  V11  1  0.73710566  0.75896357  -0.00317037  1
  V  V12  1  0.88431037  0.75462947  0.12461764  1
  V  V13  1  -0.01014767  0.14393518  0.12637628  1
  V  V14  1  0.84585638  0.87341709  0.52698055  1
  V  V15  1  0.36327860  0.49779016  0.35697854  1
  V  V16  1  0.50610892  0.76244150  0.72362396  1
  V  V17  1  0.76360310  0.11244491  0.87046811  1
  V  V18  1  0.49301397  0.88120700  0.36795339  1
  V  V19  1  0.13904314  0.88852746  0.75830108  1
  V  V20  1  0.21723706  0.48874551  0.76329878  1
  V  V21  1  0.12552453  0.00109622  0.60921587  1
  V  V22  1  0.12793260  0.74812700  0.39599063  1
  V  V23  1  0.16257461  0.63344652  -0.01037333  1
  V  V24  1  0.26093332  0.86523504  0.61013061  1
  V  V25  1  0.46029232  0.72902818  0.24364704  1
  V  V26  1  0.28356105  0.13000159  0.86429620  1
  V  V27  1  0.62505493  0.24728375  0.87238199  1
  V  V28  1  0.62333431  0.88488728  0.77359936  1
  V  V29  1  0.13877096  0.75660267  0.87515764  1
  V  V30  1  0.50165898  0.39287616  0.88170816  1
  V  V31  1  -0.00295455  0.00405789  -0.00705635  1
  V  V32  1  0.48981725  0.24150293  0.74096023  1
  V  V33  1  0.12836457  0.00678124  0.12191957  1
  V  V34  1  0.88240217  0.88507594  -0.01287515  1
  V  V35  1  0.26940432  0.37868079  0.63763057  1
  V  V36  1  0.48858637  0.02778106  0.49189867  1
  V  V37  1  0.49618698  0.35276482  0.37507741  1
  V  V38  1  0.48789426  0.57270054  0.07872970  1
  V  V39  1  0.75658012  0.00047015  0.72986134  1
  V  V40  1  0.00229653  0.75609013  0.24804775  1
  V  V41  1  -0.00866619  0.77002902  0.75662911  1
  V  V42  1  0.62708319  0.13064959  -0.00176280  1
  V  V43  1  0.62841092  0.50335997  0.62588226  1
  V  V44  1  0.77107912  0.25698677  0.00203479  1
  V  V45  1  0.11395167  0.61402261  0.52281557  1
  V  V46  1  0.12706531  0.15636282  -0.00087560  1
  V  V47  1  0.49291345  -0.00642807  -0.00840073  1
  V  V48  1  0.63086943  0.01379726  0.12426525  1
  V  V49  1  0.75535608  0.88512138  0.12344638  1
  V  V50  1  0.63955443  0.13500946  0.51182184  1
  V  V51  1  0.25998495  0.87312602  0.11113458  1
  V  V52  1  0.35771891  0.36973599  0.00301483  1
  V  V53  1  -0.01897342  0.51293546  -0.00202620  1
  V  V54  1  0.74376394  0.62282501  0.87904998  1
  V  V55  1  0.00328459  0.24017305  0.74200960  1
  V  V56  1  0.48548175  0.13748970  0.12677139  1
  V  V57  1  -0.00267570  0.89070211  0.38587367  1
  V  V58  1  0.23867232  0.12346365  0.33508271  1
  V  V59  1  0.87416216  0.33433328  0.50678503  1
  V  V60  1  0.62071793  0.87693122  0.24739831  1
  V  V61  1  0.36446815  0.00901831  0.35155277  1
  V  V62  1  0.48373837  0.49705867  0.50948703  1
  V  V63  1  0.11979675  0.25141247  0.36933088  1
  Zn  Zn64  1  0.16381463  0.20738500  0.18192728  1
  Zn  Zn65  1  0.20073358  0.17121484  0.69650442  1
  Zn  Zn66  1  0.18075576  0.70200895  0.17072448  1
  Zn  Zn67  1  0.17563849  0.68991168  0.68872878  1
  Zn  Zn68  1  0.67625958  0.22242214  0.17123428  1
  Zn  Zn69  1  0.67717488  0.17741668  0.69008337  1
  Zn  Zn70  1  0.61350964  0.66938768  0.19684995  1
  Zn  Zn71  1  0.64663240  0.66422465  0.74565642  1
  Zn  Zn72  1  0.28848325  0.33319321  0.37275892  1
  Zn  Zn73  1  0.31227635  0.31551873  0.82149288  1
  Zn  Zn74  1  0.30657796  0.81672398  0.30802907  1
  Zn  Zn75  1  0.30433594  0.78583505  0.76467596  1
  Zn  Zn76  1  0.83722614  0.35442857  0.29266853  1
  Zn  Zn77  1  0.81033824  0.29395172  0.80483028  1
  Zn  Zn78  1  0.83363051  0.85252914  0.29597324  1
  Zn  Zn79  1  0.80511214  0.82180385  0.80918478  1
  Zn  Zn80  1  0.17902670  0.43523591  0.45977121  1
  Zn  Zn81  1  0.23566757  0.47017325  0.97201311  1
  Zn  Zn82  1  0.19199540  0.93721553  0.43533480  1
  Zn  Zn83  1  0.19360442  0.95025930  0.93426978  1
  Zn  Zn84  1  0.67103095  0.41040543  0.45280398  1
  Zn  Zn85  1  0.70493295  0.42873510  0.92115867  1
  Zn  Zn86  1  0.67419340  0.94848913  0.43702036  1
  Zn  Zn87  1  0.68440777  0.94037309  0.93971202  1
  Zn  Zn88  1  0.30472161  0.06942058  0.03661146  1
  Zn  Zn89  1  0.30404171  0.02963178  0.54840892  1
  Zn  Zn90  1  0.31773760  0.55098966  0.16548134  1
  Zn  Zn91  1  0.29958494  0.57149160  0.58448947  1
  Zn  Zn92  1  0.81373322  0.07145561  0.06072838  1
  Zn  Zn93  1  0.80366099  0.03966369  0.52789549  1
  Zn  Zn94  1  0.81987195  0.57976256  0.05494361  1
  Zn  Zn95  1  0.77945595  0.58520298  0.60060763  1
  Zn  Zn96  1  0.44393589  0.41627067  0.19189309  1
  Zn  Zn97  1  0.44761751  0.42601565  0.69038957  1
  Zn  Zn98  1  0.43860627  0.95535493  0.17224426  1
  Zn  Zn99  1  0.47305445  0.88332934  0.61734027  1
  Zn  Zn100  1  1.12019343  0.51778967  0.11529606  1
  Zn  Zn101  1  0.90785501  0.41862836  0.71833250  1
  Zn  Zn102  1  0.94480531  0.94638211  0.18335496  1
  Zn  Zn103  1  0.93790827  0.93738089  0.68316421  1
  Zn  Zn104  1  0.05323553  0.06992060  0.31019183  1
  Zn  Zn105  1  0.07417497  0.06683102  0.82146866  1
  Zn  Zn106  1  0.04570427  0.57936524  0.33144319  1
  Zn  Zn107  1  0.05040138  0.57146155  0.83043828  1
  Zn  Zn108  1  0.55824070  0.06601537  0.30403814  1
  Zn  Zn109  1  0.56251311  0.06127067  0.80887948  1
  Zn  Zn110  1  0.54924280  0.54705300  0.31764304  1
  Zn  Zn111  1  0.52067061  0.61493157  0.86981646  1
  Zn  Zn112  1  0.40324732  0.19239378  0.44033067  1
  Zn  Zn113  1  0.44371471  0.19575600  0.94326729  1
  Zn  Zn114  1  0.30068478  0.68102812  0.44169387  1
  Zn  Zn115  1  0.36286753  0.58167912  0.94618587  1
  Zn  Zn116  1  0.91167869  0.22410337  0.40229501  1
  Zn  Zn117  1  0.94328208  0.18417084  0.93223169  1
  Zn  Zn118  1  0.93378681  0.69964856  0.57526336  1
  Zn  Zn119  1  0.94186393  0.69437441  0.93214257  1
  Zn  Zn120  1  0.06663149  0.33528962  0.07698884  1
  Zn  Zn121  1  0.04170873  0.25936616  0.52846070  1
  Zn  Zn122  1  0.06903550  0.81788221  0.05558311  1
  Zn  Zn123  1  0.06235923  0.82319821  0.57530377  1
  Zn  Zn124  1  0.56622657  0.32071758  0.06580727  1
  Zn  Zn125  1  0.55322281  0.30647482  0.55706907  1
  Zn  Zn126  1  0.53066409  0.79138311  0.05077181  1
  Zn  Zn127  1  0.48755257  0.71423301  0.51288899  1
  O  O128  1  0.10720485  0.12267675  0.11979453  1
  O  O129  1  0.13866329  0.09746953  0.63622874  1
  O  O130  1  0.13434289  0.63387394  0.09333261  1
  O  O131  1  0.12553367  0.61500955  0.62413028  1
  O  O132  1  0.63304896  0.12644427  0.11339479  1
  O  O133  1  0.62405686  0.12051392  0.60984231  1
  O  O134  1  0.57056716  0.62679554  0.10196363  1
  O  O135  1  0.63268660  0.60174627  0.64173603  1
  O  O136  1  0.39626729  0.37668463  0.36040849  1
  O  O137  1  0.39534378  0.37664810  0.88946994  1
  O  O138  1  0.38198626  0.89489029  0.35248564  1
  O  O139  1  0.41712330  0.77231751  0.92909872  1
  O  O140  1  0.86940205  0.33556647  0.39988817  1
  O  O141  1  0.88660390  0.37100436  0.81959889  1
  O  O142  1  0.89559710  0.87163541  0.38298296  1
  O  O143  1  0.87267076  0.88120506  0.89058881  1
  O  O144  1  0.25580817  0.00899037  0.36627050  1
  O  O145  1  0.25635626  0.04384609  0.92353744  1
  O  O146  1  0.27651299  0.45228489  0.39614477  1
  O  O147  1  0.24902578  0.48210701  0.85781217  1
  O  O148  1  0.74594573  0.00672547  0.35939663  1
  O  O149  1  0.74950445  0.01235620  0.87823111  1
  O  O150  1  0.79424986  0.49730434  0.38002285  1
  O  O151  1  0.74923455  0.52448181  0.89445242  1
  O  O152  1  0.22956920  0.47400084  0.13392734  1
  O  O153  1  0.24684299  0.48416010  0.64801128  1
  O  O154  1  0.22918107  1.00765533  0.11517530  1
  O  O155  1  0.24145716  0.97633231  0.62379974  1
  O  O156  1  0.72475256  0.50150434  0.10111432  1
  O  O157  1  0.73236912  0.48157061  0.62600929  1
  O  O158  1  0.74811453  1.00014426  0.12501077  1
  O  O159  1  0.75094761  1.01319902  0.63258670  1
  O  O160  1  0.12029532  0.54103444  0.24073575  1
  O  O161  1  0.00464905  0.34379627  0.73581135  1
  O  O162  1  0.00984172  0.87911662  0.25535053  1
  O  O163  1  0.00955952  0.87154216  0.75395647  1
  O  O164  1  0.51351014  0.36340793  0.26555029  1
  O  O165  1  0.51370427  0.36233506  0.76279425  1
  O  O166  1  0.51971949  0.90361636  0.24056052  1
  O  O167  1  0.52456623  0.87988554  0.72865052  1
  O  O168  1  0.49959688  0.12266042  0.22638257  1
  O  O169  1  0.50773123  0.14279090  0.75402869  1
  O  O170  1  0.51411138  0.64091738  0.25951016  1
  O  O171  1  0.52650323  0.66546160  0.75884315  1
  O  O172  1  0.98469922  0.12541329  0.23494958  1
  O  O173  1  1.00602992  0.13524186  0.75324773  1
  O  O174  1  1.00211688  0.65791950  0.25467150  1
  O  O175  1  0.98052861  0.63763562  0.76345845  1
  O  O176  1  0.39742831  0.27718941  0.00579517  1
  O  O177  1  0.32579916  0.27243965  0.47513314  1
  O  O178  1  0.37202929  0.76659781  -0.01168872  1
  O  O179  1  0.38941441  0.73730372  0.47178706  1
  O  O180  1  0.86983680  0.25031861  -0.01527974  1
  O  O181  1  0.87290215  0.23601279  0.51693678  1
  O  O182  1  0.88358282  0.77343657  0.00914018  1
  O  O183  1  0.88088345  0.77791099  0.51041334  1
  O  O184  1  0.15283134  0.23199537  0.50237210  1
  O  O185  1  0.09510223  0.25088968  1.00245241  1
  O  O186  1  0.12412980  0.75153830  0.49618659  1
  O  O187  1  0.12857824  0.75007168  0.98445484  1
  O  O188  1  0.61909399  0.23421465  0.49954217  1
  O  O189  1  0.63564273  0.24259352  0.98949734  1
  O  O190  1  0.60027631  0.71173485  0.48283793  1
  O  O191  1  0.64102356  0.76733474  1.01657271  1
  O  O192  1  0.50620300  0.23518184  0.11395992  1
  O  O193  1  0.49751629  0.25908606  0.64194943  1
  O  O194  1  0.48757528  0.76763656  0.15412080  1
  O  O195  1  0.49816258  0.76597053  0.62041595  1
  O  O196  1  1.00085173  0.24196713  0.12349935  1
  O  O197  1  1.00897252  0.23194409  0.63870749  1
  O  O198  1  0.99225372  0.76800665  0.13084488  1
  O  O199  1  1.00697437  0.75490615  0.64921196  1
  O  O200  1  0.02534451  0.23233784  0.41451504  1
  O  O201  1  -0.00532073  0.24425643  0.84597537  1
  O  O202  1  0.02264028  0.77173752  0.35692108  1
  O  O203  1  0.01402717  0.75423009  0.86400004  1
  O  O204  1  0.48835453  0.25584307  0.38992525  1
  O  O205  1  0.51764522  0.25899536  0.87267482  1
  O  O206  1  0.49025657  0.78305106  0.33093528  1
  O  O207  1  0.49473458  0.74898355  0.94140456  1
  O  O208  1  0.28122314  0.13907676  0.54137010  1
  O  O209  1  0.22386365  0.15696208  1.02904981  1
  O  O210  1  0.23066149  0.62545876  0.51156343  1
  O  O211  1  0.26194666  0.63385505  0.98389241  1
  O  O212  1  0.73963972  0.12349718  0.49788204  1
  O  O213  1  0.74726753  0.13292533  0.98586843  1
  O  O214  1  0.73056860  0.61923724  0.50582035  1
  O  O215  1  0.75609861  0.65185350  0.99263235  1
  O  O216  1  0.25913580  0.35525913  -0.00806516  1
  O  O217  1  0.22033327  0.36973067  0.54704678  1
  O  O218  1  0.24739526  0.88827959  0.01280823  1
  O  O219  1  0.24427977  0.86328106  0.51088319  1
  O  O220  1  0.75062288  0.35475606  -0.01205553  1
  O  O221  1  0.75620119  0.36635193  0.51316417  1
  O  O222  1  0.76272576  0.87876775  0.00546392  1
  O  O223  1  0.74596163  0.88638588  0.49722458  1
  O  O224  1  0.19406220  0.55713421  0.27159821  1
  O  O225  1  0.11894841  0.49987991  0.76821835  1
  O  O226  1  0.11484390  0.99398075  0.23294236  1
  O  O227  1  0.12197926  0.98763163  0.75929674  1
  O  O228  1  0.61276762  0.48496607  0.24086058  1
  O  O229  1  0.61852575  0.47669158  0.73750088  1
  O  O230  1  0.64262755  1.01098382  0.23797800  1
  O  O231  1  0.63373049  0.99046145  0.75287973  1
  O  O232  1  0.37581351  0.01352746  0.25386075  1
  O  O233  1  0.37066344  -0.01987333  0.77728021  1
  O  O234  1  0.37258513  0.49301325  0.25287253  1
  O  O235  1  0.37793812  0.49295394  0.75113232  1
  O  O236  1  0.86064048  -0.00526279  0.24759320  1
  O  O237  1  0.85541265  -0.00915944  0.74636343  1
  O  O238  1  0.93898688  0.49450206  0.25457945  1
  O  O239  1  0.87327399  0.52174984  0.75116299  1
  O  O240  1  0.14030324  0.34840755  0.38994116  1
  O  O241  1  0.14360092  0.34549098  0.87289308  1
  O  O242  1  0.12739034  0.87573423  0.35775251  1
  O  O243  1  0.13297800  0.87092320  0.87025872  1
  O  O244  1  0.60892827  0.37804243  0.36744983  1
  O  O245  1  0.62849980  0.36821534  0.86030685  1
  O  O246  1  0.61089511  0.89324914  0.35439658  1
  O  O247  1  0.61681752  0.87868099  0.87275990  1
  O  O248  1  0.38849479  0.12246333  0.10592307  1
  O  O249  1  0.39912319  0.01815609  0.72396843  1
  O  O250  1  0.40204031  0.60965855  0.12148070  1
  O  O251  1  0.37494362  0.62665960  0.66040726  1
  O  O252  1  0.88520326  0.12798955  0.12947680  1
  O  O253  1  0.94518069  0.09629063  0.57233316  1
  O  O254  1  0.87078119  0.65722457  0.12300829  1
  O  O255  1  0.86293902  0.64060380  0.64809909  1
  O  O256  1  0.32304205  0.23921893  0.18022120  1
  O  O257  1  0.25032332  0.25964983  0.64077018  1
  O  O258  1  0.25088990  0.77397262  0.12119295  1
  O  O259  1  0.25422524  0.76637429  0.65670208  1
  O  O260  1  0.76227959  0.24138300  0.10115232  1
  O  O261  1  0.74373854  0.25629520  0.63324758  1
  O  O262  1  0.76853856  0.77357139  0.11129680  1
  O  O263  1  0.72529534  0.74933223  0.61824680  1
  O  O264  1  0.23474675  0.22729180  0.35886497  1
  O  O265  1  0.26050956  0.22951393  0.87671970  1
  O  O266  1  0.23051695  0.75476933  0.37190259  1
  O  O267  1  0.23722482  0.75020790  0.85563640  1
  O  O268  1  0.66503590  0.19973855  0.34095814  1
  O  O269  1  0.74288808  0.23513413  0.87329215  1
  O  O270  1  0.75955590  0.65113886  0.27147350  1
  O  O271  1  0.74926305  0.76509717  0.89512946  1
  O  O272  1  0.00083824  0.12070812  0.01065179  1
  O  O273  1  -0.00246380  0.11890658  0.52819355  1
  O  O274  1  -0.00964379  0.61432776  0.00421656  1
  O  O275  1  0.01490322  0.64061984  0.51628959  1
  O  O276  1  0.51635465  0.12150351  0.00531135  1
  O  O277  1  0.47800137  0.12700064  0.50145504  1
  O  O278  1  0.47690516  0.58954241  -0.02456853  1
  O  O279  1  0.51708328  0.59548024  0.50497381  1
  O  O280  1  0.50656268  0.38620688  0.48524853  1
  O  O281  1  0.52677409  0.38323237  0.98014940  1
  O  O282  1  0.50150722  0.87464773  0.46506761  1
  O  O283  1  0.51162015  0.89767801  1.01578613  1
  O  O284  1  0.97246139  0.35423948  0.52066335  1
  O  O285  1  1.08567988  0.37696937  0.90229060  1
  O  O286  1  1.02106572  0.87499403  0.48205764  1
  O  O287  1  0.99154555  0.89238434  1.00355826  1
  O  O288  1  0.47301200  0.49723640  0.38948200  1
  O  O289  1  0.51324202  0.48792734  0.86168763  1
  O  O290  1  0.48511855  1.00265884  0.37110805  1
  O  O291  1  0.50983491  1.00558310  0.89278954  1
  O  O292  1  0.97264606  0.48978570  0.32912186  1
  O  O293  1  0.99525290  0.49692421  0.89966552  1
  O  O294  1  1.00726549  0.98910100  0.37108552  1
  O  O295  1  1.00242922  1.01356430  0.89504660  1
  O  O296  1  0.00717802  0.01362260  0.11548182  1
  O  O297  1  0.02537154  -0.01940209  0.62609256  1
  O  O298  1  0.03906460  0.44687319  0.07057602  1
  O  O299  1  -0.00275334  0.48090301  0.64776761  1
  O  O300  1  0.51682516  0.01936485  0.11349256  1
  O  O301  1  0.49420959  -0.01181424  0.58358303  1
  O  O302  1  0.49742960  0.47621527  0.11029972  1
  O  O303  1  0.51607874  0.47982244  0.61476928  1
  O  O304  1  0.26121951  0.36585597  0.25596743  1
  O  O305  1  0.24382437  0.37824657  0.74600838  1
  O  O306  1  0.23161127  0.87925065  0.23748056  1
  O  O307  1  0.24035481  0.88390909  0.75697249  1
  O  O308  1  0.73036282  0.37907209  0.27339013  1
  O  O309  1  0.73543049  0.36418194  0.74167767  1
  O  O310  1  0.74267745  0.89363044  0.24316305  1
  O  O311  1  0.73376806  0.88951841  0.75114626  1
  O  O312  1  0.23357953  0.12771425  0.23649723  1
  O  O313  1  0.26038636  0.10973102  0.76812041  1
  O  O314  1  0.23729511  0.61444679  0.22975201  1
  O  O315  1  0.24762895  0.59809736  0.75281592  1
  O  O316  1  0.76747988  0.11876086  0.23837881  1
  O  O317  1  0.74165153  0.11015999  0.76167152  1
  O  O318  1  0.71790270  0.61935670  0.20794998  1
  O  O319  1  0.75816846  0.63908459  0.77089137  1
  O  O320  1  0.34903579  0.12011698  0.36640536  1
  O  O321  1  0.38448910  0.12826540  0.87716006  1
  O  O322  1  0.34206796  0.59200477  0.37374588  1
  O  O323  1  0.39264383  0.62683475  0.84236408  1
  O  O324  1  0.88089104  0.13053252  0.35021739  1
  O  O325  1  0.86193258  0.12361988  0.87420077  1
  O  O326  1  0.82204491  0.61493754  0.28848227  1
  O  O327  1  0.86047239  0.64045082  0.86811945  1
  O  O328  1  0.17366979  0.31342146  0.13263417  1
  O  O329  1  0.05687429  0.44676582  0.62437621  1
  O  O330  1  0.12790701  0.89273784  0.12706258  1
  O  O331  1  0.13872407  0.88025077  0.64247600  1
  O  O332  1  0.62923299  0.33524574  0.16040774  1
  O  O333  1  0.63119450  0.36991652  0.63234059  1
  O  O334  1  0.64067965  0.89847309  0.13339147  1
  O  O335  1  0.67621121  0.78824016  0.58340106  1
  O  O336  1  0.09980779  0.24870621  0.27163914  1
  O  O337  1  0.10759319  0.23875488  0.74528746  1
  O  O338  1  0.11313465  0.77347056  0.23250983  1
  O  O339  1  0.11747910  0.76381871  0.76177681  1
  O  O340  1  0.62724380  0.23025653  0.27791694  1
  O  O341  1  0.61952250  0.25450655  0.75722665  1
  O  O342  1  0.63062150  0.77917493  0.23805778  1
  O  O343  1  0.62088269  0.77884965  0.74432321  1
  O  O344  1  0.37119388  0.23989813  0.23428934  1
  O  O345  1  0.39321610  0.25976586  0.76099594  1
  O  O346  1  0.36070521  0.73001668  0.25454764  1
  O  O347  1  0.41520784  0.77744094  0.76511675  1
  O  O348  1  0.86551267  0.24909772  0.24857231  1
  O  O349  1  0.89794829  0.23590667  0.73457329  1
  O  O350  1  0.88949388  0.77200465  0.23526103  1
  O  O351  1  0.88880058  0.76323819  0.76048231  1
  O  O352  1  0.38661045  0.50862109  0.52492364  1
  O  O353  1  0.35024137  0.48056058  1.00029222  1
  O  O354  1  0.38259887  1.00275825  0.47232159  1
  O  O355  1  0.39507073  1.00364769  1.00547012  1
  O  O356  1  0.84881944  0.52259578  0.42016931  1
  O  O357  1  0.88324216  0.49554127  1.01997911  1
  O  O358  1  0.88392694  0.96936263  0.50461130  1
  O  O359  1  0.88575842  0.99516944  1.00559220  1
  O  O360  1  0.10989473  0.00501250  0.01115992  1
  O  O361  1  0.13455778  0.00126335  0.50856739  1
  O  O362  1  0.14211398  0.53072131  -0.01370839  1
  O  O363  1  0.11056265  0.51841230  0.48713614  1
  O  O364  1  0.63056906  0.01545911  0.00965597  1
  O  O365  1  0.60015880  0.03287681  0.47241028  1
  O  O366  1  0.66800319  0.48493785  0.05735033  1
  O  O367  1  0.62408895  0.49907417  0.51341482  1
  O  O368  1  0.35542086  0.37521627  0.12020005  1
  O  O369  1  0.36725805  0.37476359  0.62524956  1
  O  O370  1  0.35611644  0.89281534  0.13281741  1
  O  O371  1  0.35943352  0.87908710  0.62274398  1
  O  O372  1  0.90750514  0.42897418  0.22820973  1
  O  O373  1  0.85312327  0.37410343  0.62389081  1
  O  O374  1  0.86870508  0.88041410  0.11899830  1
  O  O375  1  0.85735432  0.87644785  0.62783640  1
  O  O376  1  0.13802066  0.12158300  0.36697160  1
  O  O377  1  0.12390107  0.13186310  0.89970765  1
  O  O378  1  0.11554874  0.64651949  0.38790353  1
  O  O379  1  0.12462698  0.64483500  0.88456145  1
  O  O380  1  0.62656305  0.13681601  0.37249974  1
  O  O381  1  0.63094160  0.13284435  0.88338476  1
  O  O382  1  0.63653148  0.59255009  0.37759237  1
  O  O383  1  0.64090317  0.63653343  0.86975389  1
