# generated using pymatgen
data_VZnO4
_symmetry_space_group_name_H-M   'P 1'
_cell_length_a   17.04643298
_cell_length_b   16.95165951
_cell_length_c   16.93869268
_cell_angle_alpha   90.19787939
_cell_angle_beta   89.94846587
_cell_angle_gamma   90.35502554
_symmetry_Int_Tables_number   1
_chemical_formula_structural   VZnO4
_chemical_formula_sum   'V64 Zn64 O256'
_cell_volume   4894.56984123
_cell_formula_units_Z   64
loop_
 _symmetry_equiv_pos_site_id
 _symmetry_equiv_pos_as_xyz
  1  'x, y, z'
loop_
 _atom_site_type_symbol
 _atom_site_label
 _atom_site_symmetry_multiplicity
 _atom_site_fract_x
 _atom_site_fract_y
 _atom_site_fract_z
 _atom_site_occupancy
  V  V0  1  0.38451989  -0.00914730  0.39861350  1
  V  V1  1  0.86961999  0.36661085  0.00006821  1
  V  V2  1  0.11922174  0.00005373  0.12090190  1
  V  V3  1  0.11935194  0.87402144  0.25454781  1
  V  V4  1  0.10858133  0.25676052  0.32642210  1
  V  V5  1  0.24446621  0.37651140  0.61141539  1
  V  V6  1  0.62747774  0.61089388  -0.01125227  1
  V  V7  1  0.63388147  0.38287816  0.22642004  1
  V  V8  1  0.87732687  0.89429795  0.50189508  1
  V  V9  1  0.88700022  0.49739643  0.38347966  1
  V  V10  1  0.50507504  0.87205332  0.41396202  1
  V  V11  1  0.60240176  0.75276078  0.87986230  1
  V  V12  1  0.87518791  0.11961278  0.75175124  1
  V  V13  1  0.62344724  0.74789155  0.36213364  1
  V  V14  1  0.75668471  0.87408960  0.63507414  1
  V  V15  1  0.12895236  0.62750968  0.01179314  1
  V  V16  1  0.51378683  0.25545481  0.75327021  1
  V  V17  1  0.87001912  0.25520838  0.61327868  1
  V  V18  1  0.74587042  0.11047662  0.38032721  1
  V  V19  1  0.76582368  0.53065564  0.74040295  1
  V  V20  1  0.37309840  0.24356352  0.61787680  1
  V  V21  1  0.48150077  0.62840771  0.64287292  1
  V  V22  1  0.37206962  0.13070881  0.77246808  1
  V  V23  1  0.50972506  0.61351398  0.11808787  1
  V  V24  1  0.61485898  -0.00350356  0.62098072  1
  V  V25  1  0.25021349  0.88396912  0.62437489  1
  V  V26  1  0.50478380  0.12223410  0.61352030  1
  V  V27  1  0.60117302  0.87653763  0.76274497  1
  V  V28  1  0.26045297  0.74399147  -0.00994452  1
  V  V29  1  0.37822851  0.26547954  0.12848626  1
  V  V30  1  0.00402538  0.73720186  0.77789759  1
  V  V31  1  0.52512579  0.51007176  0.51615017  1
  V  V32  1  0.00092923  0.49601113  0.01550620  1
  V  V33  1  0.27219098  0.14067919  0.38228414  1
  V  V34  1  0.28356416  0.74389147  0.50961334  1
  V  V35  1  0.27885372  -0.01638093  0.24670092  1
  V  V36  1  0.37418335  0.75942321  0.12712136  1
  V  V37  1  0.09766611  0.51950539  0.61007126  1
  V  V38  1  0.38140104  0.50879012  0.38431680  1
  V  V39  1  0.73486911  0.13956578  0.87249937  1
  V  V40  1  0.39517312  0.63019593  0.25278776  1
  V  V41  1  -0.02873551  -0.01069640  -0.02554671  1
  V  V42  1  0.38313110  0.38009841  0.50358114  1
  V  V43  1  0.00984801  0.74002772  0.22645914  1
  V  V44  1  0.23667072  0.63371510  0.37827231  1
  V  V45  1  0.12321796  0.87949180  0.76183902  1
  V  V46  1  0.90361638  0.72887820  0.62046158  1
  V  V47  1  0.86940985  0.51544908  0.87849046  1
  V  V48  1  0.72080503  0.25198055  0.49750656  1
  V  V49  1  0.75033840  0.52852082  0.25799185  1
  V  V50  1  0.37175166  0.47344866  0.89530036  1
  V  V51  1  0.00090439  0.24827115  0.75155981  1
  V  V52  1  0.74800749  0.76621142  -0.00590813  1
  V  V53  1  0.73445529  0.74497041  0.50677754  1
  V  V54  1  0.37548307  -0.01905003  0.87928352  1
  V  V55  1  0.12785930  0.37436362  0.74602752  1
  V  V56  1  0.49174177  -0.00700372  0.01087547  1
  V  V57  1  0.61566898  0.12700889  0.01805163  1
  V  V58  1  0.24269477  0.49605106  0.25484664  1
  V  V59  1  0.52000607  0.37493857  0.37834666  1
  V  V60  1  0.74789381  0.25185013  0.01488003  1
  V  V61  1  0.76207271  0.87896195  0.13744833  1
  V  V62  1  0.74529866  -0.00430875  0.76676857  1
  V  V63  1  0.65298728  0.37531582  0.74346567  1
  Zn  Zn64  1  0.18366098  0.20154547  0.12893044  1
  Zn  Zn65  1  0.19553422  0.19256105  0.69752485  1
  Zn  Zn66  1  0.19378461  0.68423414  0.18851724  1
  Zn  Zn67  1  0.13967326  0.72616932  0.64890876  1
  Zn  Zn68  1  0.61018036  0.17229724  0.22836755  1
  Zn  Zn69  1  0.68904246  0.18596355  0.68077584  1
  Zn  Zn70  1  0.68768237  0.69474980  0.17974335  1
  Zn  Zn71  1  0.67692172  0.69637560  0.68862272  1
  Zn  Zn72  1  0.25846313  0.34746199  0.38114131  1
  Zn  Zn73  1  0.30634566  0.30071238  0.80159722  1
  Zn  Zn74  1  0.32465557  0.81135293  0.31792640  1
  Zn  Zn75  1  0.29901979  0.81839919  0.81339345  1
  Zn  Zn76  1  0.77582147  0.32940504  0.33482524  1
  Zn  Zn77  1  0.81985402  0.31106550  0.81535486  1
  Zn  Zn78  1  0.80881536  0.82967289  0.32152342  1
  Zn  Zn79  1  0.81665880  0.71415515  0.82216060  1
  Zn  Zn80  1  0.07212456  0.42391017  0.43663445  1
  Zn  Zn81  1  0.16059809  0.46849031  0.91939360  1
  Zn  Zn82  1  0.20451066  0.90757311  0.42755377  1
  Zn  Zn83  1  0.19849140  0.93504101  0.93829258  1
  Zn  Zn84  1  0.70597343  0.44662166  0.44783210  1
  Zn  Zn85  1  0.69197223  0.42951005  0.91946395  1
  Zn  Zn86  1  0.68769721  0.92909395  0.44359433  1
  Zn  Zn87  1  0.66928550  0.94040358  0.94622695  1
  Zn  Zn88  1  0.28545486  0.04453929  0.03976300  1
  Zn  Zn89  1  0.30793687  0.06127494  0.56136012  1
  Zn  Zn90  1  0.30322013  0.56697834  0.07775735  1
  Zn  Zn91  1  0.30411391  0.56085305  0.56320773  1
  Zn  Zn92  1  0.79798123  0.04974261  0.05706490  1
  Zn  Zn93  1  0.79591175  0.07144012  0.56705829  1
  Zn  Zn94  1  0.80604380  0.57603754  0.06048930  1
  Zn  Zn95  1  0.82121420  0.56034553  0.54664869  1
  Zn  Zn96  1  0.44345536  0.44472282  0.20162710  1
  Zn  Zn97  1  0.44053547  0.43816676  0.69089829  1
  Zn  Zn98  1  0.43907473  1.07146307  0.19960405  1
  Zn  Zn99  1  0.42585017  0.94446612  0.69117159  1
  Zn  Zn100  1  0.88049582  0.46192898  0.17122628  1
  Zn  Zn101  1  0.93139399  0.43962603  0.68403409  1
  Zn  Zn102  1  0.97167561  0.88124285  0.11930172  1
  Zn  Zn103  1  0.91808647  0.90287815  0.80302647  1
  Zn  Zn104  1  0.13834858  0.09969387  0.26932469  1
  Zn  Zn105  1  0.04642287  0.04312962  0.80688637  1
  Zn  Zn106  1  0.05195038  0.55833119  0.30513303  1
  Zn  Zn107  1  0.04956170  0.58195847  0.84606966  1
  Zn  Zn108  1  0.57036881  0.04295175  0.32411615  1
  Zn  Zn109  1  0.55003574  0.06643348  0.81730386  1
  Zn  Zn110  1  0.57138586  0.56059863  0.32122633  1
  Zn  Zn111  1  0.59284084  0.57830519  0.77759254  1
  Zn  Zn112  1  0.44733397  0.18780063  0.42867117  1
  Zn  Zn113  1  0.45330425  0.21908621  0.94457491  1
  Zn  Zn114  1  0.45768253  0.68452584  0.44541248  1
  Zn  Zn115  1  0.43666534  0.67744203  0.94290107  1
  Zn  Zn116  1  0.93528838  0.30415551  0.42196815  1
  Zn  Zn117  1  0.93281714  0.17685442  0.93314329  1
  Zn  Zn118  1  0.91155237  0.70413710  0.43128135  1
  Zn  Zn119  1  0.93596711  0.68717360  0.97141303  1
  Zn  Zn120  1  -0.00385015  0.37358755  -0.12553352  1
  Zn  Zn121  1  0.05691673  0.28478725  0.57091911  1
  Zn  Zn122  1  0.10629941  0.83182627  0.03840578  1
  Zn  Zn123  1  0.02634639  0.86767981  0.61986937  1
  Zn  Zn124  1  0.57151495  0.31746078  0.05759657  1
  Zn  Zn125  1  0.56335785  0.32161406  0.57497998  1
  Zn  Zn126  1  0.54810988  0.80540827  0.06730415  1
  Zn  Zn127  1  0.55488307  0.80277258  0.58733630  1
  O  O128  1  0.12937336  0.10355508  0.15401153  1
  O  O129  1  0.13965149  0.13261086  0.60507947  1
  O  O130  1  0.13210860  0.61815733  0.11242030  1
  O  O131  1  0.12208454  0.61629525  0.62216086  1
  O  O132  1  0.62608121  0.13168172  0.11725514  1
  O  O133  1  0.61236199  0.10909615  0.63380510  1
  O  O134  1  0.61349681  0.62859059  0.11354856  1
  O  O135  1  0.59949496  0.62018441  0.66511834  1
  O  O136  1  0.38928931  0.39380148  0.39029305  1
  O  O137  1  0.35336368  0.36886090  0.89115178  1
  O  O138  1  0.40043272  0.87628074  0.37928949  1
  O  O139  1  0.37898880  0.88202204  0.86391609  1
  O  O140  1  0.87316646  0.37735604  0.36380007  1
  O  O141  1  0.87523454  0.38445756  0.88123051  1
  O  O142  1  0.86840611  0.87848254  0.40243602  1
  O  O143  1  0.84770340  0.82581818  0.83780588  1
  O  O144  1  0.28113347  -0.02247718  0.37857372  1
  O  O145  1  0.27516435  0.00209536  0.88729935  1
  O  O146  1  0.27104142  0.52580961  0.37847303  1
  O  O147  1  0.26738235  0.48355317  0.88173852  1
  O  O148  1  0.74489224  0.00833062  0.39318675  1
  O  O149  1  0.73730362  0.00191330  0.86793767  1
  O  O150  1  0.76052480  0.50465856  0.36707543  1
  O  O151  1  0.76648866  0.50308841  0.86568763  1
  O  O152  1  0.25767793  0.50002574  0.15411112  1
  O  O153  1  0.24411695  0.47733902  0.61782809  1
  O  O154  1  0.27626361  1.00175474  0.14846419  1
  O  O155  1  0.24003450  0.98260219  0.61040183  1
  O  O156  1  0.77436661  0.51523592  0.15150570  1
  O  O157  1  0.77575868  0.51600413  0.64250888  1
  O  O158  1  0.73791359  0.97739396  0.11726313  1
  O  O159  1  0.72975547  0.99338615  0.63912490  1
  O  O160  1  0.02470872  0.34103635  0.15895737  1
  O  O161  1  0.00617692  0.35805200  0.74248345  1
  O  O162  1  0.01862299  0.87243919  0.23975763  1
  O  O163  1  0.00753989  0.85880769  0.74002436  1
  O  O164  1  0.52102914  0.40017188  0.27195558  1
  O  O165  1  0.49458395  0.35486560  0.74497393  1
  O  O166  1  0.57892416  0.90969019  0.20110441  1
  O  O167  1  0.50442741  0.88053042  0.74812180  1
  O  O168  1  0.51298445  0.12196966  0.26467152  1
  O  O169  1  0.48880382  0.13427262  0.73937539  1
  O  O170  1  0.49757486  0.62305873  0.24368169  1
  O  O171  1  0.48724790  0.59761073  0.74618800  1
  O  O172  1  0.96116393  0.12746308  0.20715622  1
  O  O173  1  0.98100642  0.12511885  0.76054932  1
  O  O174  1  1.01527137  0.64067146  0.23680673  1
  O  O175  1  1.00933216  0.63711126  0.75980424  1
  O  O176  1  0.37125366  0.24379871  0.02413777  1
  O  O177  1  0.39409580  0.26245482  0.51491756  1
  O  O178  1  0.36730105  0.73981625  0.01107047  1
  O  O179  1  0.38125905  0.74531211  0.50983499  1
  O  O180  1  0.86431490  0.25749118  -0.01334056  1
  O  O181  1  0.88490488  0.24321489  0.51446844  1
  O  O182  1  0.84703676  0.76030342  -0.01367186  1
  O  O183  1  0.86335240  0.76597498  0.51762958  1
  O  O184  1  0.11370933  0.17493386  0.54809285  1
  O  O185  1  0.13646734  0.15738691  0.91349001  1
  O  O186  1  0.08053443  0.74439181  0.46723496  1
  O  O187  1  0.13098691  0.72869383  0.99413647  1
  O  O188  1  0.62263886  0.24550666  0.51515167  1
  O  O189  1  0.64041890  0.24147652  1.00337300  1
  O  O190  1  0.63477423  0.75258945  0.51803507  1
  O  O191  1  0.61477364  0.75074356  0.98769286  1
  O  O192  1  0.48327525  0.25900761  0.11550757  1
  O  O193  1  0.49485884  0.23599756  0.63121237  1
  O  O194  1  0.48226601  0.72844223  0.11952794  1
  O  O195  1  0.48915637  0.72963839  0.63899736  1
  O  O196  1  1.01661947  0.28222501  0.11781350  1
  O  O197  1  0.98162437  0.23456563  0.64279652  1
  O  O198  1  0.99774856  0.76301050  0.12872650  1
  O  O199  1  1.00227303  0.74658240  0.61412373  1
  O  O200  1  0.00940888  0.25411804  0.33582132  1
  O  O201  1  -0.00977712  0.25026908  0.85685098  1
  O  O202  1  -0.03800254  0.75881703  0.33576957  1
  O  O203  1  -0.01120653  0.74342692  0.87662156  1
  O  O204  1  0.49999607  0.27646706  0.38277425  1
  O  O205  1  0.51318194  0.23711702  0.85074067  1
  O  O206  1  0.51215250  0.76541206  0.38420335  1
  O  O207  1  0.50287118  0.74294377  0.87664238  1
  O  O208  1  0.25304413  0.11660223  0.47877247  1
  O  O209  1  0.25010749  0.15108765  1.04909763  1
  O  O210  1  0.25734766  0.63584391  0.48913464  1
  O  O211  1  0.24355754  0.63157010  1.00707312  1
  O  O212  1  0.74586470  0.13597678  0.49001545  1
  O  O213  1  0.74349587  0.13293849  0.98810490  1
  O  O214  1  0.75316436  0.64754791  0.51145731  1
  O  O215  1  0.72606620  0.64384537  1.00753286  1
  O  O216  1  0.17292883  0.34427640  0.02846696  1
  O  O217  1  0.27168951  0.36731354  0.50403255  1
  O  O218  1  0.22812322  0.84267882  0.00265557  1
  O  O219  1  0.24962973  0.85105110  0.51302587  1
  O  O220  1  0.75425791  0.35891675  -0.01254462  1
  O  O221  1  0.74240098  0.35171810  0.49949772  1
  O  O222  1  0.73427557  0.86966926  0.00352152  1
  O  O223  1  0.75151399  0.87010624  0.52291748  1
  O  O224  1  0.14371031  0.50372209  0.26698237  1
  O  O225  1  0.11832809  0.47006232  0.71339507  1
  O  O226  1  0.14278872  0.98420503  0.24108364  1
  O  O227  1  0.10961637  0.97831765  0.73953896  1
  O  O228  1  0.64267353  0.50124972  0.25652827  1
  O  O229  1  0.66626627  0.49385055  0.75391241  1
  O  O230  1  0.61931035  0.96661935  0.23204395  1
  O  O231  1  0.62398006  0.99023875  0.75412334  1
  O  O232  1  0.38033383  -0.00545715  0.26469169  1
  O  O233  1  0.38586624  0.02056791  0.77246744  1
  O  O234  1  0.37742838  0.51497812  0.26645459  1
  O  O235  1  0.38401416  0.47394031  0.79142422  1
  O  O236  1  0.90171215  0.09239406  0.17979708  1
  O  O237  1  0.85206041  0.00621109  0.75424230  1
  O  O238  1  0.86400179  0.50738635  0.27166611  1
  O  O239  1  0.87072071  0.50026706  0.76391133  1
  O  O240  1  0.14208471  0.34133950  0.37904846  1
  O  O241  1  0.11844984  0.38722353  0.84905716  1
  O  O242  1  0.12611743  0.87411986  0.35588292  1
  O  O243  1  0.13141718  0.88127496  0.86224530  1
  O  O244  1  0.61822760  0.38471348  0.38905766  1
  O  O245  1  0.62544744  0.37878112  0.84391009  1
  O  O246  1  0.61009661  0.86760307  0.38696930  1
  O  O247  1  0.61162862  0.86957502  0.87028073  1
  O  O248  1  0.37285095  0.16379572  0.15164885  1
  O  O249  1  0.38323864  0.13270176  0.62120063  1
  O  O250  1  0.38485119  0.61993515  0.14292968  1
  O  O251  1  0.38312910  0.60927564  0.62816217  1
  O  O252  1  0.86948196  0.12612316  0.11280757  1
  O  O253  1  0.85992206  0.12586881  0.64787291  1
  O  O254  1  0.89025175  0.64917119  0.06994542  1
  O  O255  1  0.89460002  0.63296708  0.60090936  1
  O  O256  1  0.27697024  0.28204178  0.12684697  1
  O  O257  1  0.27068043  0.24985867  0.62225521  1
  O  O258  1  0.26925381  0.73999949  0.12134614  1
  O  O259  1  0.25004028  0.73829492  0.60716144  1
  O  O260  1  0.75621613  0.24917324  0.10959941  1
  O  O261  1  0.76090789  0.23687713  0.60854210  1
  O  O262  1  0.73323799  0.76886982  0.10763765  1
  O  O263  1  0.74678473  0.76477108  0.62858133  1
  O  O264  1  0.29414135  0.23764314  0.37532315  1
  O  O265  1  0.23191901  0.26384018  0.87084948  1
  O  O266  1  0.26207694  0.74142472  0.39183990  1
  O  O267  1  0.26810818  0.74044728  0.88995817  1
  O  O268  1  0.73323350  0.24000481  0.39135557  1
  O  O269  1  0.74210328  0.23934915  0.86972527  1
  O  O270  1  0.73213949  0.76559461  0.39711360  1
  O  O271  1  0.72230311  0.74811146  0.89003830  1
  O  O272  1  -0.00400318  0.09081259  -0.02685907  1
  O  O273  1  -0.00318688  0.08074822  0.54558775  1
  O  O274  1  0.01940146  0.60698340  -0.00776475  1
  O  O275  1  0.03676630  0.68521841  0.46899003  1
  O  O276  1  0.51767583  0.14081098  -0.00123587  1
  O  O277  1  0.50112124  0.12688656  0.51477345  1
  O  O278  1  0.51209094  0.61774021  0.00858230  1
  O  O279  1  0.50607426  0.61429097  0.52207260  1
  O  O280  1  0.49914007  0.39081366  0.50074768  1
  O  O281  1  0.49362767  0.32379143  0.97965719  1
  O  O282  1  0.50002263  0.87099249  0.51246851  1
  O  O283  1  0.50379104  0.89426415  1.01083025  1
  O  O284  1  1.01442420  0.34396166  0.49088017  1
  O  O285  1  0.97852019  0.38570154  0.99376135  1
  O  O286  1  0.97649609  0.88911517  0.52308615  1
  O  O287  1  1.01313138  0.89246267  1.00439722  1
  O  O288  1  0.50026329  0.50174055  0.39808641  1
  O  O289  1  0.46903869  0.45490944  0.91394380  1
  O  O290  1  0.49989040  0.98059791  0.38623477  1
  O  O291  1  0.48339739  1.01241289  0.89391047  1
  O  O292  1  0.99597922  0.48521700  0.37243032  1
  O  O293  1  0.98300150  0.49659137  0.88683637  1
  O  O294  1  1.08023419  1.03230772  0.44204540  1
  O  O295  1  0.97812580  0.97562348  0.86878536  1
  O  O296  1  0.01965183  -0.00064639  0.10522083  1
  O  O297  1  0.02399892  0.04395890  0.60116415  1
  O  O298  1  -0.02629967  0.50103456  0.11117497  1
  O  O299  1  -0.00103175  0.50335727  0.61898312  1
  O  O300  1  0.48070818  0.02151425  0.10704256  1
  O  O301  1  0.50427614  0.01069957  0.63309118  1
  O  O302  1  0.49674591  0.51442739  0.12863385  1
  O  O303  1  0.49840571  0.50057433  0.61692808  1
  O  O304  1  0.26429659  0.40072631  0.28030672  1
  O  O305  1  0.23547535  0.36117423  0.72990652  1
  O  O306  1  0.25392731  0.87992728  0.25785736  1
  O  O307  1  0.23208304  0.86813359  0.73929601  1
  O  O308  1  0.73681721  0.38929515  0.24603079  1
  O  O309  1  0.75236795  0.36334934  0.74003141  1
  O  O310  1  0.74892607  0.86624867  0.23833751  1
  O  O311  1  0.73633952  0.88916592  0.74495298  1
  O  O312  1  0.25589812  0.09016586  0.28464906  1
  O  O313  1  0.27320733  0.13211741  0.74925075  1
  O  O314  1  0.26352099  0.62442563  0.26799688  1
  O  O315  1  0.30864836  0.66110333  0.74890064  1
  O  O316  1  0.83468870  0.23868872  0.24474959  1
  O  O317  1  0.74251818  0.11313998  0.75896774  1
  O  O318  1  0.74284196  0.62866539  0.25686225  1
  O  O319  1  0.75675546  0.63401465  0.75276961  1
  O  O320  1  0.37958875  0.10483406  0.38350631  1
  O  O321  1  0.37888034  0.15365271  0.86955867  1
  O  O322  1  0.39444517  0.62328178  0.36737111  1
  O  O323  1  0.38717381  0.57657046  0.89529800  1
  O  O324  1  0.82935065  0.12549576  0.33334875  1
  O  O325  1  0.85041990  0.12715201  0.85960415  1
  O  O326  1  0.89327176  0.60120342  0.39523649  1
  O  O327  1  0.87395137  0.61852849  0.88209489  1
  O  O328  1  0.14441696  0.27640217  0.03296954  1
  O  O329  1  0.14330706  0.34988738  0.61625403  1
  O  O330  1  0.13435812  0.89122296  0.13511892  1
  O  O331  1  0.13795169  0.85067992  0.63437610  1
  O  O332  1  0.61668871  0.39151817  0.12697053  1
  O  O333  1  0.61605903  0.38847570  0.64758084  1
  O  O334  1  0.61693031  0.87077277  0.14108508  1
  O  O335  1  0.62231680  0.88341889  0.64385150  1
  O  O336  1  0.14163620  0.25133286  0.22900818  1
  O  O337  1  0.10813140  0.25114596  0.74083852  1
  O  O338  1  0.12035692  0.76151241  0.23709190  1
  O  O339  1  0.10825221  0.75637610  0.75920299  1
  O  O340  1  0.62317218  0.28342911  0.24110237  1
  O  O341  1  0.62011351  0.25961079  0.73466687  1
  O  O342  1  0.62816489  0.75286672  0.26391736  1
  O  O343  1  0.62320071  0.76908616  0.76576603  1
  O  O344  1  0.38853834  0.27641465  0.23140218  1
  O  O345  1  0.38555497  0.24468585  0.73683030  1
  O  O346  1  0.37650688  0.73536108  0.24467702  1
  O  O347  1  0.35396423  0.71846390  0.75248812  1
  O  O348  1  0.89610805  0.25992264  0.21432911  1
  O  O349  1  0.87853054  0.23584411  0.74520836  1
  O  O350  1  0.90443669  0.75809538  0.27335784  1
  O  O351  1  0.89736118  0.73732578  0.72699913  1
  O  O352  1  0.38093832  0.49537088  0.49913111  1
  O  O353  1  0.34918910  0.47986239  0.99877253  1
  O  O354  1  0.38108833  0.99401597  0.49766187  1
  O  O355  1  0.38042436  1.00229497  0.99078797  1
  O  O356  1  0.86024252  0.47829290  0.48220921  1
  O  O357  1  0.86673273  0.49212667  0.98862132  1
  O  O358  1  0.85799412  0.99102522  0.51863290  1
  O  O359  1  0.87502296  0.98746316  0.99548706  1
  O  O360  1  0.16700579  0.00535345  0.02742813  1
  O  O361  1  0.12455869  -0.00510980  0.48616249  1
  O  O362  1  0.10170795  0.48071346  0.01819922  1
  O  O363  1  0.12076105  0.49338239  0.51461905  1
  O  O364  1  0.60543685  0.01839708  -0.00061109  1
  O  O365  1  0.62215174  -0.01027354  0.52401211  1
  O  O366  1  0.63924941  0.51318275  -0.01641502  1
  O  O367  1  0.62286911  0.50261569  0.50870940  1
  O  O368  1  0.39238518  0.37037488  0.12146392  1
  O  O369  1  0.36798508  0.36774121  0.62247415  1
  O  O370  1  0.38475416  0.85412994  0.13265106  1
  O  O371  1  0.34961761  0.87639949  0.64385776  1
  O  O372  1  0.86706833  0.37429488  0.09991464  1
  O  O373  1  0.87567046  0.35304669  0.63146626  1
  O  O374  1  0.86068460  0.87674806  0.12815373  1
  O  O375  1  0.85609565  0.87532874  0.63358050  1
  O  O376  1  0.14838257  0.16494299  0.36527603  1
  O  O377  1  0.14364077  0.10386060  0.86337836  1
  O  O378  1  0.14041127  0.62689888  0.37172143  1
  O  O379  1  0.14304810  0.58165459  0.90542472  1
  O  O380  1  0.66112152  0.11299528  0.31500814  1
  O  O381  1  0.63427207  0.12224250  0.87893972  1
  O  O382  1  0.61270256  0.64953477  0.38177891  1
  O  O383  1  0.61471771  0.63530968  0.88141317  1
