# generated using pymatgen
data_VZnO4
_symmetry_space_group_name_H-M   'P 1'
_cell_length_a   16.92630761
_cell_length_b   17.36751108
_cell_length_c   17.12877358
_cell_angle_alpha   89.14023103
_cell_angle_beta   89.47895323
_cell_angle_gamma   89.88226056
_symmetry_Int_Tables_number   1
_chemical_formula_structural   VZnO4
_chemical_formula_sum   'V64 Zn64 O256'
_cell_volume   5034.52413273
_cell_formula_units_Z   64
loop_
 _symmetry_equiv_pos_site_id
 _symmetry_equiv_pos_as_xyz
  1  'x, y, z'
loop_
 _atom_site_type_symbol
 _atom_site_label
 _atom_site_symmetry_multiplicity
 _atom_site_fract_x
 _atom_site_fract_y
 _atom_site_fract_z
 _atom_site_occupancy
  V  V0  1  0.87010610  0.37594526  0.00518776  1
  V  V1  1  0.73748175  -0.01380729  0.75300977  1
  V  V2  1  0.45580937  0.14234376  0.14359818  1
  V  V3  1  0.73280193  0.64476183  0.88444665  1
  V  V4  1  0.40655482  0.90804158  0.50332864  1
  V  V5  1  0.00928414  0.77078038  0.24144984  1
  V  V6  1  0.44956137  0.00626960  0.04124042  1
  V  V7  1  0.72554074  0.74707294  0.50173986  1
  V  V8  1  0.87672557  0.74105891  0.12069659  1
  V  V9  1  0.87264615  0.39178317  0.52238776  1
  V  V10  1  0.63195673  0.25697652  0.35817217  1
  V  V11  1  0.87010549  0.00779099  0.86245342  1
  V  V12  1  0.02326853  0.14564559  0.63599020  1
  V  V13  1  0.86645438  0.50352540  0.87924013  1
  V  V14  1  0.85722917  0.74645780  0.61787030  1
  V  V15  1  0.64360750  0.10692323  0.00485232  1
  V  V16  1  0.62061749  0.63628171  0.01202624  1
  V  V17  1  -0.00391336  0.86437364  0.86525297  1
  V  V18  1  0.11760536  0.62252744  0.00347643  1
  V  V19  1  0.11995990  0.26010938  0.37927827  1
  V  V20  1  0.77132127  0.63156161  0.37722621  1
  V  V21  1  0.12437622  0.74465623  0.86622386  1
  V  V22  1  0.48726006  0.50407880  -0.00384906  1
  V  V23  1  0.25643189  -0.00976838  0.80074467  1
  V  V24  1  0.10865253  0.04236155  0.13985338  1
  V  V25  1  -0.02334284  0.38989220  0.36372696  1
  V  V26  1  0.87124630  0.87354292  -0.00433337  1
  V  V27  1  0.53885648  0.74499594  0.26375541  1
  V  V28  1  0.33051172  0.39268105  0.50480960  1
  V  V29  1  0.47472807  0.28254154  0.23795716  1
  V  V30  1  0.24916740  0.61914549  0.86213827  1
  V  V31  1  -0.01165087  0.61738720  0.61020837  1
  V  V32  1  0.37417438  0.36375681  -0.01160053  1
  V  V33  1  0.75732374  0.89117909  0.13791582  1
  V  V34  1  -0.00972685  0.74230440  0.74820625  1
  V  V35  1  0.54451141  0.93874273  0.37409395  1
  V  V36  1  0.14507537  0.60915418  0.49325429  1
  V  V37  1  0.28087004  0.84399746  0.61718526  1
  V  V38  1  0.63695187  0.48301936  0.10168397  1
  V  V39  1  0.49853557  0.58023299  0.59093748  1
  V  V40  1  -0.00061337  0.50351026  0.00630930  1
  V  V41  1  0.73043236  0.49672177  0.74565693  1
  V  V42  1  0.10711129  0.38646783  0.22521702  1
  V  V43  1  0.34948134  0.26597263  0.62768713  1
  V  V44  1  0.25473448  0.50379019  0.23815077  1
  V  V45  1  0.74375599  0.25199783  -0.01317437  1
  V  V46  1  0.02242520  0.00758683  -0.02359819  1
  V  V47  1  0.11703945  -0.07274987  0.61768382  1
  V  V48  1  0.25130758  0.37875496  0.11526021  1
  V  V49  1  -0.00239009  0.23817928  0.23705174  1
  V  V50  1  0.86762579  0.87556315  0.49400902  1
  V  V51  1  0.66967580  0.37675225  0.22912420  1
  V  V52  1  0.00085516  0.37064290  0.86204506  1
  V  V53  1  0.49831334  0.17357482  0.55874267  1
  V  V54  1  0.87983321  0.22729269  0.11233068  1
  V  V55  1  0.51134179  0.37129358  0.86369053  1
  V  V56  1  0.49588950  0.73321563  0.74550732  1
  V  V57  1  0.85964006  0.62670579  0.75480839  1
  V  V58  1  0.29470724  0.14747510  0.87148513  1
  V  V59  1  0.11465897  0.48797194  0.63683148  1
  V  V60  1  0.78187816  0.21151635  0.47658982  1
  V  V61  1  0.24980658  0.48738842  0.75066933  1
  V  V62  1  0.49879795  0.85407926  0.89493063  1
  V  V63  1  0.22965126  0.25070912  -0.00831362  1
  Zn  Zn64  1  0.18731153  0.20503601  0.18314552  1
  Zn  Zn65  1  0.19897428  0.16498829  0.69024163  1
  Zn  Zn66  1  0.11792564  0.63128240  0.21967957  1
  Zn  Zn67  1  0.17805523  0.68132655  0.68168914  1
  Zn  Zn68  1  0.68092276  0.19652820  0.16528278  1
  Zn  Zn69  1  0.68147192  0.12288096  0.59610850  1
  Zn  Zn70  1  0.73146890  0.75889240  0.24138088  1
  Zn  Zn71  1  0.66386557  0.67724139  0.68612189  1
  Zn  Zn72  1  0.29688951  0.34678471  0.32460236  1
  Zn  Zn73  1  0.32082382  0.32174418  0.80816186  1
  Zn  Zn74  1  0.40009022  0.82296260  0.36610819  1
  Zn  Zn75  1  0.32702002  0.80748807  0.85606875  1
  Zn  Zn76  1  0.82024520  0.28719088  0.29788747  1
  Zn  Zn77  1  0.80213322  0.32899631  0.82079822  1
  Zn  Zn78  1  0.86910866  0.78041121  0.34904994  1
  Zn  Zn79  1  0.80302671  0.81620345  0.80603381  1
  Zn  Zn80  1  0.16568226  0.45394452  0.41214945  1
  Zn  Zn81  1  0.18097691  0.43857461  0.92875671  1
  Zn  Zn82  1  0.24684243  0.97362611  0.49071374  1
  Zn  Zn83  1  0.23994704  1.03075275  1.00287811  1
  Zn  Zn84  1  0.76171918  0.40692050  0.39249310  1
  Zn  Zn85  1  0.68474143  0.43745106  0.93037453  1
  Zn  Zn86  1  0.74932344  0.92432311  0.34145202  1
  Zn  Zn87  1  0.68412217  0.92672753  0.94236623  1
  Zn  Zn88  1  0.28862464  0.05337444  0.18093061  1
  Zn  Zn89  1  0.37018330  0.05283771  0.63519679  1
  Zn  Zn90  1  0.29497895  0.55879049  0.05154032  1
  Zn  Zn91  1  0.31175894  0.56336411  0.58204786  1
  Zn  Zn92  1  0.81777541  0.05760219  0.04747616  1
  Zn  Zn93  1  0.82236779  0.05385223  0.57377666  1
  Zn  Zn94  1  0.82388503  0.54934429  0.09675481  1
  Zn  Zn95  1  0.79627499  0.56764000  0.56278961  1
  Zn  Zn96  1  0.43590226  0.45036329  0.17184328  1
  Zn  Zn97  1  0.42860484  0.42959956  0.68155952  1
  Zn  Zn98  1  0.46745368  0.93233870  0.20159912  1
  Zn  Zn99  1  0.41679016  0.90558928  0.73203077  1
  Zn  Zn100  1  0.91912748  0.44104766  0.18921890  1
  Zn  Zn101  1  0.92416811  0.44552886  0.69411763  1
  Zn  Zn102  1  0.95166315  0.94484454  0.16915070  1
  Zn  Zn103  1  0.92664998  0.92506760  0.68259663  1
  Zn  Zn104  1  0.15326024  0.08429308  0.31845717  1
  Zn  Zn105  1  0.05003502  0.02909767  0.76895612  1
  Zn  Zn106  1  -0.09131717  0.60755043  0.25123016  1
  Zn  Zn107  1  0.05492693  0.56152609  0.81423211  1
  Zn  Zn108  1  0.50948384  0.13292816  0.35244507  1
  Zn  Zn109  1  0.54961341  0.02426735  0.85235987  1
  Zn  Zn110  1  0.64839058  0.58549582  0.25206115  1
  Zn  Zn111  1  0.55135322  0.56116333  0.82026460  1
  Zn  Zn112  1  0.44555083  0.28296885  0.42851376  1
  Zn  Zn113  1  0.48239592  0.17788276  0.93711362  1
  Zn  Zn114  1  0.50096841  0.63781310  0.38399437  1
  Zn  Zn115  1  0.44713448  0.67469369  0.91558184  1
  Zn  Zn116  1  0.97974945  0.16050420  0.42017178  1
  Zn  Zn117  1  0.93584111  0.18664521  0.92276100  1
  Zn  Zn118  1  1.01216744  0.65562147  0.38277509  1
  Zn  Zn119  1  0.92817763  0.68287214  0.93782754  1
  Zn  Zn120  1  0.05388083  0.31496057  0.04943074  1
  Zn  Zn121  1  0.04745324  0.32253567  0.55684601  1
  Zn  Zn122  1  0.03920486  0.79710510  0.03859284  1
  Zn  Zn123  1  0.04061063  0.77527657  0.52012071  1
  Zn  Zn124  1  0.55562343  0.31211701  0.06006425  1
  Zn  Zn125  1  0.64234838  0.30171343  0.56463775  1
  Zn  Zn126  1  0.56524821  0.83322393  0.07256617  1
  Zn  Zn127  1  0.50975603  0.73702680  0.53581442  1
  O  O128  1  0.11344329  0.13719158  0.11852480  1
  O  O129  1  0.12281449  0.11956251  0.62791560  1
  O  O130  1  0.11927173  0.62734759  0.10047320  1
  O  O131  1  0.09697578  0.63240585  0.61449198  1
  O  O132  1  0.61445768  0.13663030  0.09772924  1
  O  O133  1  0.57074293  0.10717921  0.57924834  1
  O  O134  1  0.62668850  0.59816623  0.10849961  1
  O  O135  1  0.58225543  0.61596752  0.63556366  1
  O  O136  1  0.37342513  0.36931387  0.40818808  1
  O  O137  1  0.37562323  0.38209192  0.88801465  1
  O  O138  1  0.35778863  0.91607745  0.41490171  1
  O  O139  1  0.40407932  0.84962181  0.93367466  1
  O  O140  1  0.87121374  0.37825805  0.34657860  1
  O  O141  1  0.87706379  0.39047975  0.88359566  1
  O  O142  1  0.84514130  0.88418868  0.39088152  1
  O  O143  1  0.87940459  0.86964841  0.88106007  1
  O  O144  1  0.23337049  0.03511947  0.39384686  1
  O  O145  1  0.27486800  0.03945966  0.89217977  1
  O  O146  1  0.25298795  0.45865465  0.33154113  1
  O  O147  1  0.23812712  0.51329199  0.86177122  1
  O  O148  1  0.75608816  0.04179718  0.32652594  1
  O  O149  1  0.76391882  -0.01366010  0.86681355  1
  O  O150  1  0.75245856  0.52131478  0.37920860  1
  O  O151  1  0.75537265  0.50956239  0.87379013  1
  O  O152  1  0.23814814  0.48372820  0.12029544  1
  O  O153  1  0.22543458  0.50520534  0.64276926  1
  O  O154  1  0.20399448  1.00720924  0.11052469  1
  O  O155  1  0.21331681  0.91114061  0.66390343  1
  O  O156  1  0.73476720  0.48750930  0.08125916  1
  O  O157  1  0.74144348  0.51844837  0.64867463  1
  O  O158  1  0.77833367  0.98795610  0.12788581  1
  O  O159  1  0.74485511  1.04572613  0.66069839  1
  O  O160  1  -0.00268095  0.38029947  0.24383400  1
  O  O161  1  -0.01462929  0.38591043  0.76503981  1
  O  O162  1  0.00431120  0.86845701  0.23298680  1
  O  O163  1  -0.02104922  0.84876354  0.75656418  1
  O  O164  1  0.50470626  0.37686297  0.22247131  1
  O  O165  1  0.48956846  0.38646685  0.76718704  1
  O  O166  1  0.49763664  0.87960535  0.30067310  1
  O  O167  1  0.50367794  0.91708679  0.81211966  1
  O  O168  1  0.48506257  0.16746846  0.24513937  1
  O  O169  1  0.49824159  0.07462388  0.74644093  1
  O  O170  1  0.55155722  0.63866560  0.28034748  1
  O  O171  1  0.48007372  0.63920307  0.78207985  1
  O  O172  1  1.00521322  0.14599243  0.24099436  1
  O  O173  1  1.00050538  0.12249414  0.73346790  1
  O  O174  1  1.01693795  0.63010571  0.27273567  1
  O  O175  1  0.97543681  0.63252674  0.75690812  1
  O  O176  1  0.36557591  0.26876751  -0.00078563  1
  O  O177  1  0.37918851  0.28290372  0.52394876  1
  O  O178  1  0.38834465  0.72297884  0.02151412  1
  O  O179  1  0.43205848  0.80797921  0.48996983  1
  O  O180  1  0.88033812  0.26245771  0.00180990  1
  O  O181  1  0.88150796  0.20941897  0.47160106  1
  O  O182  1  0.89286799  0.76937999  0.00466807  1
  O  O183  1  0.86519214  0.74386670  0.51835492  1
  O  O184  1  0.10897233  0.27513322  0.47584308  1
  O  O185  1  0.13103519  0.25957045  0.98457555  1
  O  O186  1  0.08834220  0.69433042  0.46192366  1
  O  O187  1  0.10766960  0.73129283  0.97857835  1
  O  O188  1  0.62244648  0.28068995  0.45282063  1
  O  O189  1  0.64386956  0.25930024  0.99864336  1
  O  O190  1  0.62583631  0.75006096  0.50343720  1
  O  O191  1  0.60225216  0.72857107  1.02700640  1
  O  O192  1  0.48809646  0.25109486  0.13068177  1
  O  O193  1  0.53476819  0.25958807  0.58811589  1
  O  O194  1  0.52043341  0.77156794  0.17019933  1
  O  O195  1  0.48333793  0.74295543  0.64623116  1
  O  O196  1  0.98743679  0.25733965  0.12329381  1
  O  O197  1  1.01358149  0.24284044  0.62736784  1
  O  O198  1  0.98854324  0.75528558  0.12831342  1
  O  O199  1  0.97466606  0.72857911  0.63144382  1
  O  O200  1  -0.00813945  0.26206260  0.34496042  1
  O  O201  1  -0.01712969  0.27319214  0.87352510  1
  O  O202  1  -0.01906745  0.76241393  0.34621350  1
  O  O203  1  -0.00583930  0.74791563  0.86510742  1
  O  O204  1  0.52009041  0.27833622  0.33968571  1
  O  O205  1  0.49591893  0.27480862  0.88500263  1
  O  O206  1  0.45920512  0.73587354  0.33761104  1
  O  O207  1  0.51409211  0.75685308  0.87292599  1
  O  O208  1  0.30429312  0.09237232  0.39656427  1
  O  O209  1  0.24990189  0.14969179  0.98191551  1
  O  O210  1  0.23601178  0.63123987  0.52767852  1
  O  O211  1  0.22284329  0.61189627  0.98024749  1
  O  O212  1  0.76042468  0.11237464  0.49282669  1
  O  O213  1  0.74674861  0.13703220  0.99390185  1
  O  O214  1  0.74929721  0.63664332  0.48688779  1
  O  O215  1  0.73144583  0.63326743  0.98909316  1
  O  O216  1  0.25135040  0.37352303  -0.00380251  1
  O  O217  1  0.23166432  0.39260162  0.48848624  1
  O  O218  1  0.27227427  0.79354569  0.12161967  1
  O  O219  1  0.26103766  0.85473759  0.52062606  1
  O  O220  1  0.76410770  0.36359390  -0.01218711  1
  O  O221  1  0.78823785  0.34292052  0.48690830  1
  O  O222  1  0.76963454  0.87588427  0.00139857  1
  O  O223  1  0.75535851  0.84257603  0.50866850  1
  O  O224  1  0.12691406  0.48047697  0.23765064  1
  O  O225  1  0.12133486  0.50780700  0.74117471  1
  O  O226  1  0.10057876  1.02156082  0.23710518  1
  O  O227  1  0.16162173  1.01294266  0.77558884  1
  O  O228  1  0.64369419  0.48226268  0.21409547  1
  O  O229  1  0.63270657  0.50836624  0.76482871  1
  O  O230  1  0.72357076  1.06408812  0.25997441  1
  O  O231  1  0.64450037  1.00878416  0.78334834  1
  O  O232  1  0.34952571  -0.03891029  0.22047672  1
  O  O233  1  0.33884342  -0.00309452  0.73120143  1
  O  O234  1  0.35526411  0.50715593  0.22214435  1
  O  O235  1  0.34854696  0.49590088  0.73814888  1
  O  O236  1  0.89916672  0.01439438  0.25086018  1
  O  O237  1  0.86380864  -0.01038961  0.75757386  1
  O  O238  1  0.85419682  0.52692887  0.20425282  1
  O  O239  1  0.85962127  0.51505052  0.76202702  1
  O  O240  1  0.09601039  0.37310186  0.35500639  1
  O  O241  1  0.10012364  0.38371337  0.87607779  1
  O  O242  1  0.16781767  0.86648698  0.33739350  1
  O  O243  1  0.10421219  0.84626349  0.86870303  1
  O  O244  1  0.66689053  0.37408221  0.33526175  1
  O  O245  1  0.61261374  0.37602915  0.87368428  1
  O  O246  1  0.64219376  0.92063272  0.37970228  1
  O  O247  1  0.58412894  0.87205632  0.95395866  1
  O  O248  1  0.35711525  0.14408523  0.14802862  1
  O  O249  1  0.40640418  0.15863487  0.61463604  1
  O  O250  1  0.39915306  0.68819711  0.08956127  1
  O  O251  1  0.40630096  0.60903245  0.62337410  1
  O  O252  1  0.88804570  0.13239191  0.09810954  1
  O  O253  1  0.92753212  0.10659997  0.58843926  1
  O  O254  1  0.86900787  0.64918389  0.09179861  1
  O  O255  1  0.87159278  0.62621386  0.63918924  1
  O  O256  1  0.23703958  0.26835693  0.09901162  1
  O  O257  1  0.25357978  0.23916870  0.62503570  1
  O  O258  1  0.34088207  0.64338516  0.11751460  1
  O  O259  1  0.25880981  0.75422768  0.65137539  1
  O  O260  1  0.77183856  0.24224817  0.10151157  1
  O  O261  1  0.72792601  0.22828513  0.57304099  1
  O  O262  1  0.77599434  0.77340420  0.12943057  1
  O  O263  1  0.74829373  0.72529436  0.61559243  1
  O  O264  1  0.21790644  0.26687268  0.35848505  1
  O  O265  1  0.26300300  0.25045126  0.88224074  1
  O  O266  1  0.20115393  0.80645544  0.35626499  1
  O  O267  1  0.22909978  0.73856855  0.86520251  1
  O  O268  1  0.75190803  0.23960213  0.37647586  1
  O  O269  1  0.76484911  0.24783957  0.88820793  1
  O  O270  1  0.76166356  0.74065891  0.39231297  1
  O  O271  1  0.74500797  0.74093596  0.87072633  1
  O  O272  1  0.00091731  0.10261915  -0.03346763  1
  O  O273  1  -0.00737300  0.10027275  0.53451022  1
  O  O274  1  0.00114567  0.60980477  -0.01060233  1
  O  O275  1  -0.02904959  0.61189850  0.51627064  1
  O  O276  1  0.46712884  0.11869185  0.03551850  1
  O  O277  1  0.47846173  0.17203588  0.45649622  1
  O  O278  1  0.50994696  0.60759479  -0.01303232  1
  O  O279  1  0.50343865  0.62648585  0.49178936  1
  O  O280  1  0.63855411  0.41468820  0.56460003  1
  O  O281  1  0.48364495  0.38164321  0.99696351  1
  O  O282  1  0.50239541  0.94270115  0.47465631  1
  O  O283  1  0.48414379  0.91585108  1.08827640  1
  O  O284  1  0.96854504  0.36707457  0.47573308  1
  O  O285  1  0.98672223  0.38894610  0.98687907  1
  O  O286  1  0.96545361  0.85216714  0.48840598  1
  O  O287  1  0.99639401  0.88574386  0.98056523  1
  O  O288  1  0.55064581  0.43141069  0.46372711  1
  O  O289  1  0.49884716  0.48538087  0.89163011  1
  O  O290  1  0.52736474  1.02545668  0.33456781  1
  O  O291  1  0.48217721  0.99586729  0.94695313  1
  O  O292  1  0.98561155  0.48289163  0.36763711  1
  O  O293  1  0.97910300  0.49988059  0.87952300  1
  O  O294  1  0.94562677  1.02722877  0.31338923  1
  O  O295  1  0.98967510  0.98201738  0.86307678  1
  O  O296  1  0.02207834  -0.00266372  0.09032425  1
  O  O297  1  0.03329652  -0.03137399  0.66748764  1
  O  O298  1  -0.00744709  0.49583836  0.10293802  1
  O  O299  1  0.00000172  0.51789006  0.64309901  1
  O  O300  1  0.47540718  0.04058731  0.15519295  1
  O  O301  1  0.48956662  0.02591544  0.69174626  1
  O  O302  1  0.51244687  0.49376661  0.09990745  1
  O  O303  1  0.49706588  0.48241957  0.60640209  1
  O  O304  1  0.23104275  0.36941253  0.21861755  1
  O  O305  1  0.23807158  0.39134083  0.76702072  1
  O  O306  1  0.29855332  0.90403673  0.25336252  1
  O  O307  1  0.26254321  0.89778851  0.83065927  1
  O  O308  1  0.76669767  0.36764242  0.21772210  1
  O  O309  1  0.74948473  0.39863636  0.75393015  1
  O  O310  1  0.76684814  0.87250916  0.24144719  1
  O  O311  1  0.74132262  0.88891742  0.74167996  1
  O  O312  1  0.23052181  0.12441530  0.24507873  1
  O  O313  1  0.26485778  0.13510828  0.77540570  1
  O  O314  1  0.22539317  0.59736177  0.24152265  1
  O  O315  1  0.23940569  0.61930976  0.76009057  1
  O  O316  1  0.75530100  0.12886042  0.23016946  1
  O  O317  1  0.82609920  0.19153584  0.72096975  1
  O  O318  1  0.74187152  0.65080058  0.27325801  1
  O  O319  1  0.74575866  0.62217700  0.76603653  1
  O  O320  1  0.35722960  0.07949404  0.34755140  1
  O  O321  1  0.39308070  0.14545916  0.87123620  1
  O  O322  1  0.34011063  0.61838510  0.37856277  1
  O  O323  1  0.34525843  0.63670158  0.88222807  1
  O  O324  1  0.91260505  0.07282990  0.36576909  1
  O  O325  1  0.87487908  0.10400354  0.86837317  1
  O  O326  1  0.87194253  0.62616149  0.36675505  1
  O  O327  1  0.85513744  0.62181721  0.87429838  1
  O  O328  1  0.11845403  0.37578030  0.12279252  1
  O  O329  1  0.10097929  0.39316964  0.62749634  1
  O  O330  1  0.21632955  0.83777064  0.13013684  1
  O  O331  1  0.09295789  0.83541643  0.59697549  1
  O  O332  1  0.62882859  0.37862749  0.11782642  1
  O  O333  1  0.63329733  0.27248775  0.73314806  1
  O  O334  1  0.66016362  0.87996189  0.12063865  1
  O  O335  1  0.59469374  0.88669921  0.63958778  1
  O  O336  1  0.10659911  0.26915003  0.24231820  1
  O  O337  1  0.12631381  0.24369352  0.76913979  1
  O  O338  1  0.10676222  0.74865915  0.23249029  1
  O  O339  1  0.10225885  0.73415847  0.75882935  1
  O  O340  1  0.63799463  0.27281971  0.23636865  1
  O  O341  1  0.61402312  0.20960798  0.76122758  1
  O  O342  1  0.62810242  0.77919092  0.28916653  1
  O  O343  1  0.59827219  0.74876454  0.74566078  1
  O  O344  1  0.37810755  0.29047465  0.25962336  1
  O  O345  1  0.37670815  0.27035791  0.72498688  1
  O  O346  1  0.30128509  0.67829871  0.37657832  1
  O  O347  1  0.40739747  0.79786150  0.77148847  1
  O  O348  1  0.88307193  0.24132275  0.21991428  1
  O  O349  1  0.86510703  0.24853982  0.74070858  1
  O  O350  1  0.88872971  0.73235783  0.22912355  1
  O  O351  1  0.86626173  0.73837412  0.74353943  1
  O  O352  1  0.35573851  0.48770017  0.50862533  1
  O  O353  1  0.38365358  0.50152288  1.00514939  1
  O  O354  1  0.35159998  0.99819230  0.53957056  1
  O  O355  1  0.34962338  1.00139879  1.04293000  1
  O  O356  1  0.85404786  0.48679784  0.50772357  1
  O  O357  1  0.87807838  0.49134390  0.99537982  1
  O  O358  1  0.86624143  0.96678968  0.52616262  1
  O  O359  1  0.88380810  0.98698992  0.97710288  1
  O  O360  1  0.12046687  0.00233682  -0.03443674  1
  O  O361  1  0.13855884  -0.02480292  0.53299200  1
  O  O362  1  0.10578961  0.50911025  -0.01127057  1
  O  O363  1  0.11507427  0.51288957  0.53108784  1
  O  O364  1  0.65711677  0.01103899  0.01098037  1
  O  O365  1  0.62640069  -0.07129527  0.59023414  1
  O  O366  1  0.61182797  0.49671893  -0.00345692  1
  O  O367  1  0.61804071  0.44585010  0.49124899  1
  O  O368  1  0.35484107  0.38106648  0.10693415  1
  O  O369  1  0.34470810  0.37550789  0.61863448  1
  O  O370  1  0.33379890  0.83716272  0.26234227  1
  O  O371  1  0.38281492  0.87545302  0.62040898  1
  O  O372  1  0.87652101  0.37485639  0.10348806  1
  O  O373  1  0.88388197  0.37453836  0.61934627  1
  O  O374  1  0.88105403  0.87865440  0.10407624  1
  O  O375  1  0.86643444  0.84731453  0.62517885  1
  O  O376  1  0.09338965  0.15603826  0.38198096  1
  O  O377  1  0.10962575  0.20517395  0.82831194  1
  O  O378  1  0.15468454  0.56947522  0.40267764  1
  O  O379  1  0.12280624  0.63253036  0.87556756  1
  O  O380  1  0.62436361  0.16052899  0.35351691  1
  O  O381  1  0.58453329  0.11886332  0.91899718  1
  O  O382  1  0.67713436  0.55989822  0.37358407  1
  O  O383  1  0.62973778  0.62567016  0.88848779  1
