# generated using pymatgen
data_VZnO4
_symmetry_space_group_name_H-M   'P 1'
_cell_length_a   16.85290074
_cell_length_b   16.95958123
_cell_length_c   16.93921279
_cell_angle_alpha   89.76487886
_cell_angle_beta   89.74917375
_cell_angle_gamma   90.07168703
_symmetry_Int_Tables_number   1
_chemical_formula_structural   VZnO4
_chemical_formula_sum   'V64 Zn64 O256'
_cell_volume   4841.44321946
_cell_formula_units_Z   64
loop_
 _symmetry_equiv_pos_site_id
 _symmetry_equiv_pos_as_xyz
  1  'x, y, z'
loop_
 _atom_site_type_symbol
 _atom_site_label
 _atom_site_symmetry_multiplicity
 _atom_site_fract_x
 _atom_site_fract_y
 _atom_site_fract_z
 _atom_site_occupancy
  V  V0  1  0.00154508  -0.00155083  0.01044218  1
  V  V1  1  0.37504221  0.76203660  0.64300647  1
  V  V2  1  0.74999081  0.74301221  -0.00423965  1
  V  V3  1  0.86979659  0.24137114  0.64571011  1
  V  V4  1  0.12987496  0.76233615  0.37101597  1
  V  V5  1  0.87028252  0.49903418  0.87285395  1
  V  V6  1  0.38897584  0.38502211  0.00238727  1
  V  V7  1  0.00191861  0.49722765  0.00210690  1
  V  V8  1  0.11286340  0.38513045  0.25461200  1
  V  V9  1  0.75498620  0.75665573  0.49772056  1
  V  V10  1  -0.01929983  0.12967770  0.12653567  1
  V  V11  1  0.61310635  0.75684318  0.86446155  1
  V  V12  1  0.87903841  0.48731805  0.37374651  1
  V  V13  1  0.49593902  0.26392409  0.77665310  1
  V  V14  1  0.51633949  0.25003978  0.25948582  1
  V  V15  1  0.00419229  0.13325825  0.65514460  1
  V  V16  1  0.50189084  0.60756847  0.13772479  1
  V  V17  1  0.37730822  0.14151681  0.73715966  1
  V  V18  1  0.73646141  0.26279465  0.00325145  1
  V  V19  1  0.86789421  0.87938422  -0.00282052  1
  V  V20  1  0.62368561  0.38096310  0.76172965  1
  V  V21  1  0.61019963  0.86469311  0.25921451  1
  V  V22  1  0.63310383  0.61991565  0.49491978  1
  V  V23  1  0.86971104  0.27716079  0.11537500  1
  V  V24  1  0.23478350  0.62043460  0.40547831  1
  V  V25  1  0.25404783  0.62525165  0.86592845  1
  V  V26  1  0.88216533  0.77069124  0.62349711  1
  V  V27  1  0.89136605  0.63332511  0.74328668  1
  V  V28  1  0.00280395  0.62582825  0.13213884  1
  V  V29  1  0.74975421  -0.01662377  0.21705260  1
  V  V30  1  0.75801741  0.11844858  0.89299534  1
  V  V31  1  0.34290489  0.61546211  0.24403673  1
  V  V32  1  0.12289695  0.12636347  0.01061625  1
  V  V33  1  0.37630870  0.75851032  0.12635098  1
  V  V34  1  0.24786326  0.39483248  0.13032090  1
  V  V35  1  0.86147218  0.62537966  0.25644135  1
  V  V36  1  0.00638931  0.88225644  0.37753831  1
  V  V37  1  0.65333800  0.24139233  0.38308036  1
  V  V38  1  0.76193159  0.08719659  0.37576271  1
  V  V39  1  -0.01220908  0.24978851  0.26767077  1
  V  V40  1  0.61191202  0.61343228  0.00082742  1
  V  V41  1  0.00306600  0.37678001  0.86308388  1
  V  V42  1  0.51974798  0.38473235  0.38471724  1
  V  V43  1  0.38668935  0.50182444  0.87274362  1
  V  V44  1  0.11848434  0.25724190  0.87109820  1
  V  V45  1  0.75033375  0.62331172  0.86663829  1
  V  V46  1  0.12370091  0.00169042  0.60555065  1
  V  V47  1  0.23813310  0.48463266  0.74497374  1
  V  V48  1  0.73924302  -0.02339856  0.71341502  1
  V  V49  1  0.25018490  0.77650854  0.51635513  1
  V  V50  1  0.12622282  0.62575243  -0.00052549  1
  V  V51  1  0.23555677  -0.00299613  0.75373904  1
  V  V52  1  -0.00159083  0.88224389  0.86607609  1
  V  V53  1  0.48552537  0.61567593  0.63879416  1
  V  V54  1  0.25157058  0.25462338  0.01176681  1
  V  V55  1  0.12199581  0.76183379  0.86527390  1
  V  V56  1  0.25006038  0.13096755  0.87793374  1
  V  V57  1  0.36681756  0.49464775  0.38202607  1
  V  V58  1  0.00598557  0.51191164  0.51351794  1
  V  V59  1  0.25381463  0.76593663  0.00385216  1
  V  V60  1  0.87072245  0.37060798  0.52471557  1
  V  V61  1  0.65382693  0.50312144  0.63308622  1
  V  V62  1  0.40035775  0.00629216  0.87463040  1
  V  V63  1  0.87285987  0.75079395  0.12334549  1
  Zn  Zn64  1  0.15923217  0.22887764  0.17429090  1
  Zn  Zn65  1  0.18029957  0.18621739  0.69198432  1
  Zn  Zn66  1  0.18090607  0.69846185  0.18203515  1
  Zn  Zn67  1  0.18235373  0.69118625  0.68296714  1
  Zn  Zn68  1  0.69535800  0.17988470  0.19792253  1
  Zn  Zn69  1  0.70042687  0.22005985  0.73260754  1
  Zn  Zn70  1  0.68809229  0.68269570  0.18579742  1
  Zn  Zn71  1  0.69222253  0.69262653  0.68221234  1
  Zn  Zn72  1  0.34147414  0.32365633  0.29415312  1
  Zn  Zn73  1  0.31122131  0.32020631  0.81983776  1
  Zn  Zn74  1  0.33277390  0.78283235  0.33334552  1
  Zn  Zn75  1  0.31523596  0.82015026  0.82011610  1
  Zn  Zn76  1  0.80215994  0.33140666  0.28405287  1
  Zn  Zn77  1  0.81125405  0.31567945  0.82618659  1
  Zn  Zn78  1  0.81408387  0.81677844  0.30843752  1
  Zn  Zn79  1  0.80913231  0.81285579  0.80782273  1
  Zn  Zn80  1  0.17475767  0.43767560  0.42874249  1
  Zn  Zn81  1  0.18726888  0.43972307  0.93845210  1
  Zn  Zn82  1  0.20149943  0.94365866  0.42614186  1
  Zn  Zn83  1  0.18616269  0.94603508  0.93969211  1
  Zn  Zn84  1  0.70503014  0.45723765  0.44133141  1
  Zn  Zn85  1  0.68394378  0.43384285  0.94883555  1
  Zn  Zn86  1  0.69131251  0.90486316  0.42614502  1
  Zn  Zn87  1  0.67141630  0.93319663  0.94732516  1
  Zn  Zn88  1  0.37455002  0.03405265  0.07884065  1
  Zn  Zn89  1  0.32539357  0.04778681  0.58479597  1
  Zn  Zn90  1  0.31089544  0.56477132  0.05703762  1
  Zn  Zn91  1  0.30896723  0.55869840  0.57493552  1
  Zn  Zn92  1  0.80014547  0.06291786  0.05901136  1
  Zn  Zn93  1  0.78660196  0.10058356  0.58376804  1
  Zn  Zn94  1  0.81400371  0.55870583  0.06221563  1
  Zn  Zn95  1  0.82286510  0.56928295  0.55717353  1
  Zn  Zn96  1  0.43783708  0.42992983  0.19269621  1
  Zn  Zn97  1  0.42559838  0.43478280  0.68829762  1
  Zn  Zn98  1  0.42131405  0.92807214  0.22107327  1
  Zn  Zn99  1  0.41623908  0.92679845  0.72062051  1
  Zn  Zn100  1  0.94061904  0.44389695  0.19120638  1
  Zn  Zn101  1  0.93359432  0.44118809  0.69148117  1
  Zn  Zn102  1  0.95597896  0.95071513  0.22140337  1
  Zn  Zn103  1  0.93927871  0.95232606  0.67666064  1
  Zn  Zn104  1  0.07899330  0.06419020  0.27893200  1
  Zn  Zn105  1  0.05795731  0.06455440  0.82692933  1
  Zn  Zn106  1  0.05879283  0.56584332  0.32118398  1
  Zn  Zn107  1  0.06611160  0.56614894  0.81142675  1
  Zn  Zn108  1  0.56138316  0.05535258  0.19287017  1
  Zn  Zn109  1  0.58158078  0.08277513  0.79459905  1
  Zn  Zn110  1  0.56245914  0.55066790  0.31553057  1
  Zn  Zn111  1  0.56760788  0.56941476  0.80734976  1
  Zn  Zn112  1  0.40839728  0.13828492  0.20796111  1
  Zn  Zn113  1  0.43006286  0.19369334  0.94032539  1
  Zn  Zn114  1  0.41537518  0.64995542  0.46682508  1
  Zn  Zn115  1  0.43661125  0.68824711  0.93929648  1
  Zn  Zn116  1  0.85357638  0.21304828  0.42002846  1
  Zn  Zn117  1  0.92990127  0.19037964  0.93857218  1
  Zn  Zn118  1  0.94352694  0.69356056  0.44251147  1
  Zn  Zn119  1  0.93976703  0.68755682  0.93258360  1
  Zn  Zn120  1  0.06083064  0.31528471  0.06315516  1
  Zn  Zn121  1  0.04274145  0.31556833  0.56131719  1
  Zn  Zn122  1  0.05630029  0.80546497  0.05175400  1
  Zn  Zn123  1  0.05889475  0.82024939  0.55491010  1
  Zn  Zn124  1  0.56252143  0.20928577  0.08054722  1
  Zn  Zn125  1  0.58848771  0.34398006  0.54590248  1
  Zn  Zn126  1  0.57684618  0.78592287  0.09185609  1
  Zn  Zn127  1  0.53311972  0.76419579  0.52518684  1
  O  O128  1  0.10830360  0.14221080  0.11386724  1
  O  O129  1  0.11013224  0.12735036  0.62596811  1
  O  O130  1  0.11077135  0.63669858  0.11343574  1
  O  O131  1  0.11184140  0.62203022  0.63599494  1
  O  O132  1  0.62215429  0.12629913  0.12910138  1
  O  O133  1  0.59255745  0.10472459  0.56843424  1
  O  O134  1  0.61130738  0.62825767  0.11318724  1
  O  O135  1  0.62247733  0.60925566  0.63093228  1
  O  O136  1  0.34475016  0.39688007  0.38768192  1
  O  O137  1  0.37051903  0.39237021  0.89008247  1
  O  O138  1  0.43556156  0.81064261  0.38663557  1
  O  O139  1  0.39351495  0.90627532  0.83753607  1
  O  O140  1  0.87367847  0.38812687  0.36097667  1
  O  O141  1  0.88731224  0.39069257  0.87295435  1
  O  O142  1  0.91570921  0.86213840  0.33581503  1
  O  O143  1  0.88879016  0.86346343  0.88840655  1
  O  O144  1  0.21933350  0.04781823  0.35791061  1
  O  O145  1  0.24871570  0.01695716  0.86851682  1
  O  O146  1  0.24822850  0.51705599  0.38288674  1
  O  O147  1  0.24544109  0.51693558  0.87263520  1
  O  O148  1  0.75779238  -0.01328050  0.38667871  1
  O  O149  1  0.73092806  0.02024470  0.90768365  1
  O  O150  1  0.78132099  0.51758975  0.38123239  1
  O  O151  1  0.76630741  0.50504290  0.88427118  1
  O  O152  1  0.23876834  0.49240778  0.12002964  1
  O  O153  1  0.26010750  0.48963832  0.64549162  1
  O  O154  1  0.26445962  0.99760696  0.12201293  1
  O  O155  1  0.23319480  1.01519696  0.64240336  1
  O  O156  1  0.74308876  0.48049883  0.09414898  1
  O  O157  1  0.75250042  0.50387256  0.63437888  1
  O  O158  1  0.73608512  0.98967652  0.11661815  1
  O  O159  1  0.75249880  0.99714093  0.61414395  1
  O  O160  1  0.00521852  0.36319047  0.24662729  1
  O  O161  1  0.00284618  0.37853102  0.76508377  1
  O  O162  1  0.02816737  0.85527418  0.20203864  1
  O  O163  1  -0.00948853  0.89519143  0.76894342  1
  O  O164  1  0.46956721  0.36488358  0.28154584  1
  O  O165  1  0.49946354  0.36899529  0.75836676  1
  O  O166  1  0.50805609  0.86366713  0.24767154  1
  O  O167  1  0.53516931  0.88076183  0.73791914  1
  O  O168  1  0.51936972  0.14653576  0.26163033  1
  O  O169  1  0.48585346  0.14926782  0.74358846  1
  O  O170  1  0.50670879  0.61988217  0.23847448  1
  O  O171  1  0.50244859  0.62994161  0.73679145  1
  O  O172  1  0.99780813  0.13629710  0.23354869  1
  O  O173  1  0.99806055  0.12808934  0.75430146  1
  O  O174  1  1.00351861  0.62651143  0.23278124  1
  O  O175  1  0.99024266  0.63342605  0.76219864  1
  O  O176  1  0.35430164  0.27398207  -0.01415068  1
  O  O177  1  0.29776131  0.20949338  0.48639879  1
  O  O178  1  0.36144163  0.74545753  0.00958980  1
  O  O179  1  0.35263867  0.74051464  0.51294555  1
  O  O180  1  0.87347194  0.25712696  0.01378435  1
  O  O181  1  0.87539112  0.26462557  0.51957111  1
  O  O182  1  0.86885500  0.75132325  0.00052563  1
  O  O183  1  0.86814500  0.74593100  0.51320660  1
  O  O184  1  0.14069812  0.28317815  0.48871940  1
  O  O185  1  0.13278181  0.24708599  0.99743122  1
  O  O186  1  0.14287767  0.76389303  0.49722718  1
  O  O187  1  0.13708376  0.74696391  0.99334051  1
  O  O188  1  0.64338242  0.27205181  0.48073891  1
  O  O189  1  0.63574202  0.26117098  1.00933817  1
  O  O190  1  0.64189934  0.73068158  0.50935177  1
  O  O191  1  0.63594785  0.73683716  0.99649949  1
  O  O192  1  0.51979351  0.27986067  0.16266948  1
  O  O193  1  0.53410354  0.14225113  0.54697493  1
  O  O194  1  0.47779655  0.72957395  0.11577180  1
  O  O195  1  0.48045171  0.74370893  0.62523628  1
  O  O196  1  0.98554324  0.24353483  0.12040948  1
  O  O197  1  0.99371356  0.23949227  0.63061545  1
  O  O198  1  0.98365632  0.73131723  0.10815490  1
  O  O199  1  0.98371428  0.75705567  0.61380628  1
  O  O200  1  -0.03309760  0.24187692  0.36307130  1
  O  O201  1  0.00648557  0.26691364  0.89012184  1
  O  O202  1  0.02374610  0.76237396  0.38585250  1
  O  O203  1  0.01410951  0.76391349  0.88006329  1
  O  O204  1  0.53929858  0.27515240  0.37045781  1
  O  O205  1  0.50738982  0.24863394  0.87432626  1
  O  O206  1  0.47904987  0.75065768  0.41116083  1
  O  O207  1  0.51267086  0.74559392  0.87994267  1
  O  O208  1  0.32330906  0.03650707  0.46688953  1
  O  O209  1  0.24121548  0.14144349  0.99159546  1
  O  O210  1  0.23539755  0.62238065  0.50476877  1
  O  O211  1  0.23977659  0.63289657  0.99309056  1
  O  O212  1  0.78254042  0.12329264  0.47426042  1
  O  O213  1  0.74528447  0.14167725  0.99781054  1
  O  O214  1  0.74052818  0.62754720  0.50259014  1
  O  O215  1  0.74676243  0.62856567  0.98819470  1
  O  O216  1  0.23734951  0.36701100  0.01575816  1
  O  O217  1  0.19949321  0.33069991  0.49283095  1
  O  O218  1  0.24878892  0.86480729  -0.00753300  1
  O  O219  1  0.26073292  0.87517568  0.50161064  1
  O  O220  1  0.75551189  0.36270943  -0.00525486  1
  O  O221  1  0.77367960  0.38583110  0.49846803  1
  O  O222  1  0.76424797  0.86252936  -0.00878708  1
  O  O223  1  0.74006715  0.85472521  0.51495285  1
  O  O224  1  0.10565345  0.48481145  0.25069871  1
  O  O225  1  0.13880114  0.50913612  0.75029459  1
  O  O226  1  0.16069951  1.00651424  0.20558286  1
  O  O227  1  0.13423470  1.01206994  0.75715521  1
  O  O228  1  0.63669637  0.50127178  0.23144539  1
  O  O229  1  0.62824723  0.49166919  0.74439270  1
  O  O230  1  0.62281759  0.96649238  0.23010301  1
  O  O231  1  0.64508830  1.00930166  0.73633236  1
  O  O232  1  0.33230409  -0.04685739  0.29566482  1
  O  O233  1  0.35995743  0.02922590  0.75216238  1
  O  O234  1  0.36866277  0.51340579  0.26448223  1
  O  O235  1  0.35852633  0.49612143  0.77146168  1
  O  O236  1  0.85101090  -0.01396715  0.22439761  1
  O  O237  1  0.85022613  -0.00629000  0.75559721  1
  O  O238  1  0.88684317  0.51772970  0.26118667  1
  O  O239  1  0.88261138  0.51311968  0.76774775  1
  O  O240  1  0.14182736  0.36722208  0.34876602  1
  O  O241  1  0.11449036  0.36736569  0.88188093  1
  O  O242  1  0.12662841  0.86965255  0.37394156  1
  O  O243  1  0.11435327  0.87009211  0.88203556  1
  O  O244  1  0.61669197  0.41561700  0.37847266  1
  O  O245  1  0.62011294  0.39176855  0.86081693  1
  O  O246  1  0.61925652  0.85036415  0.35953089  1
  O  O247  1  0.62987979  0.85539452  0.87726336  1
  O  O248  1  0.39034451  0.15377240  0.08708716  1
  O  O249  1  0.35786153  0.14476052  0.63926067  1
  O  O250  1  0.37847204  0.61810087  0.13682489  1
  O  O251  1  0.38067895  0.63330576  0.62694787  1
  O  O252  1  0.88042913  0.13011397  0.11772796  1
  O  O253  1  0.89692381  0.13406634  0.62457817  1
  O  O254  1  0.88368493  0.62550123  0.13236863  1
  O  O255  1  0.88047536  0.61725191  0.64464969  1
  O  O256  1  0.25478322  0.24508919  0.11350567  1
  O  O257  1  0.19906097  0.29575879  0.63814313  1
  O  O258  1  0.25562459  0.75039014  0.11056454  1
  O  O259  1  0.25448096  0.75737491  0.62272801  1
  O  O260  1  0.76326061  0.25104583  0.12030150  1
  O  O261  1  0.76707945  0.20873834  0.63868640  1
  O  O262  1  0.76529209  0.73284394  0.10631570  1
  O  O263  1  0.77039628  0.73987033  0.61630262  1
  O  O264  1  0.28941762  0.21070650  0.41422062  1
  O  O265  1  0.23531961  0.25049744  0.88516103  1
  O  O266  1  0.24424941  0.74088072  0.39693741  1
  O  O267  1  0.24698372  0.74657366  0.88578971  1
  O  O268  1  0.75631640  0.26556527  0.36585624  1
  O  O269  1  0.75970068  0.24334137  0.89803702  1
  O  O270  1  0.76630374  0.75865347  0.39572776  1
  O  O271  1  0.74689458  0.73998503  0.88145264  1
  O  O272  1  0.00153159  0.11884798  0.00707087  1
  O  O273  1  0.00841703  0.09800058  0.45166735  1
  O  O274  1  0.01047954  0.62017088  -0.00138317  1
  O  O275  1  -0.00764106  0.61254567  0.50574877  1
  O  O276  1  0.46556412  0.15077493  0.04076857  1
  O  O277  1  0.54179421  0.01854419  0.41332512  1
  O  O278  1  0.50817466  0.62175380  0.00585475  1
  O  O279  1  0.51929820  0.63532090  0.52225326  1
  O  O280  1  0.49647494  0.37378724  0.48235183  1
  O  O281  1  0.48341932  0.37321986  1.00794148  1
  O  O282  1  0.52967467  0.88709828  0.51187370  1
  O  O283  1  0.55222330  0.96073063  1.05268738  1
  O  O284  1  0.97845430  0.38379731  0.49982302  1
  O  O285  1  1.00720696  0.39478365  0.99963019  1
  O  O286  1  0.99881215  0.89490133  0.47560789  1
  O  O287  1  0.99186075  0.88306779  0.99725284  1
  O  O288  1  0.47682702  0.49057698  0.36950232  1
  O  O289  1  0.48500005  0.51261959  0.86819218  1
  O  O290  1  0.48962863  0.97098313  0.39675668  1
  O  O291  1  0.49697108  1.03060344  0.85829011  1
  O  O292  1  0.98570386  0.51092212  0.38838886  1
  O  O293  1  1.00002620  0.49080424  0.88111018  1
  O  O294  1  1.02233352  0.97315808  0.31816593  1
  O  O295  1  1.00314879  0.98862928  0.89398458  1
  O  O296  1  -0.00451103  0.01760523  0.12102598  1
  O  O297  1  0.01037439  0.02464077  0.62429145  1
  O  O298  1  -0.00514376  0.51486562  0.10976341  1
  O  O299  1  -0.00444763  0.49170894  0.61384200  1
  O  O300  1  0.44045123  0.03060443  0.17645286  1
  O  O301  1  0.48562205  -0.00285345  0.63293754  1
  O  O302  1  0.49312773  0.50844515  0.12951172  1
  O  O303  1  0.48484107  0.51366356  0.63064829  1
  O  O304  1  0.25300247  0.37023636  0.23283951  1
  O  O305  1  0.23766881  0.38697392  0.76828630  1
  O  O306  1  0.29331314  0.89836060  0.33764494  1
  O  O307  1  0.24882709  0.89939769  0.76034535  1
  O  O308  1  0.74504142  0.42363964  0.23053979  1
  O  O309  1  0.72201583  0.34226482  0.75492480  1
  O  O310  1  0.73743008  0.88089199  0.25242086  1
  O  O311  1  0.74480814  0.87866858  0.74389058  1
  O  O312  1  0.22704952  0.04183995  0.17839831  1
  O  O313  1  0.25598986  0.13739844  0.76380998  1
  O  O314  1  0.24421857  0.61367678  0.23490295  1
  O  O315  1  0.24929311  0.62870725  0.76611051  1
  O  O316  1  0.72731586  0.08217227  0.26051507  1
  O  O317  1  0.80112481  0.06071640  0.75487589  1
  O  O318  1  0.76098627  0.62527606  0.24948820  1
  O  O319  1  0.75928859  0.62663281  0.76450815  1
  O  O320  1  0.37654922  0.06888479  0.42428350  1
  O  O321  1  0.36548935  0.12314368  0.87181230  1
  O  O322  1  0.34557155  0.63088287  0.35871101  1
  O  O323  1  0.36020422  0.61653043  0.88622342  1
  O  O324  1  0.85125695  0.12225540  0.34232841  1
  O  O325  1  0.86065060  0.12104085  0.88273363  1
  O  O326  1  0.88785781  0.64519468  0.35126344  1
  O  O327  1  0.87069575  0.62062208  0.86713326  1
  O  O328  1  0.13732157  0.35737930  0.14229168  1
  O  O329  1  0.13906401  0.34188925  0.64026713  1
  O  O330  1  0.08845567  0.86007339  0.15251799  1
  O  O331  1  0.10884181  0.90390609  0.62037127  1
  O  O332  1  0.66556904  0.42778845  0.23591285  1
  O  O333  1  0.61968296  0.39891551  0.63593625  1
  O  O334  1  0.59771301  0.88970078  0.04192954  1
  O  O335  1  0.57696932  0.87145875  0.67825696  1
  O  O336  1  0.09697713  0.24954784  0.26309402  1
  O  O337  1  0.11959274  0.24543716  0.77397326  1
  O  O338  1  0.14387662  0.75323134  0.27200824  1
  O  O339  1  0.13537498  0.75789562  0.76808962  1
  O  O340  1  0.63543199  0.25370267  0.26941218  1
  O  O341  1  0.59303879  0.26560890  0.73065525  1
  O  O342  1  0.62955360  0.77951895  0.19522184  1
  O  O343  1  0.63022446  0.73948154  0.76642517  1
  O  O344  1  0.39765220  0.23024886  0.27067806  1
  O  O345  1  0.38276870  0.24985232  0.76387937  1
  O  O346  1  0.35831467  0.73073512  0.23379388  1
  O  O347  1  0.36446495  0.75125957  0.74298032  1
  O  O348  1  0.88269176  0.26233367  0.22997285  1
  O  O349  1  0.87335350  0.25523060  0.74426081  1
  O  O350  1  0.86753383  0.74102402  0.22778128  1
  O  O351  1  0.87300297  0.74117656  0.73797302  1
  O  O352  1  0.37382145  0.53429850  0.47856890  1
  O  O353  1  0.37075562  0.49380900  0.98967206  1
  O  O354  1  0.44322071  1.01191879  0.57216082  1
  O  O355  1  0.38599594  0.99621278  0.97371844  1
  O  O356  1  0.88410731  0.49127191  0.49498478  1
  O  O357  1  0.89474256  0.51521790  0.98268174  1
  O  O358  1  0.95087324  1.05437923  0.46063124  1
  O  O359  1  0.87990217  0.98310025  1.00820069  1
  O  O360  1  0.11580789  0.01362879  0.00168201  1
  O  O361  1  0.14431663  0.00902485  0.50816648  1
  O  O362  1  0.11393078  0.51440562  -0.00873206  1
  O  O363  1  0.10576070  0.49100008  0.49634927  1
  O  O364  1  0.57552719  0.01307658  0.00149467  1
  O  O365  1  0.59252762  -0.07300903  0.52051207  1
  O  O366  1  0.62459469  0.51545104  -0.00235086  1
  O  O367  1  0.63624261  0.50912757  0.52253043  1
  O  O368  1  0.35911746  0.38654678  0.11299304  1
  O  O369  1  0.36484921  0.35291856  0.64665913  1
  O  O370  1  0.38082273  0.85632395  0.13420465  1
  O  O371  1  0.37968955  0.86384362  0.63402881  1
  O  O372  1  0.87781955  0.37677446  0.12193445  1
  O  O373  1  0.87148449  0.36054352  0.63139392  1
  O  O374  1  0.87998392  0.85357496  0.10759662  1
  O  O375  1  0.87737660  0.87046666  0.62950927  1
  O  O376  1  0.16338870  0.10082647  0.35512489  1
  O  O377  1  0.12600035  0.13944022  0.89010974  1
  O  O378  1  0.13484920  0.63638546  0.37548428  1
  O  O379  1  0.13346459  0.64245085  0.88128548  1
  O  O380  1  0.65803267  0.14047230  0.38764139  1
  O  O381  1  0.68041888  0.14461048  0.81785989  1
  O  O382  1  0.61716633  0.60722308  0.39689607  1
  O  O383  1  0.63099566  0.62986510  0.88621067  1
