# generated using pymatgen
data_VZnO4
_symmetry_space_group_name_H-M   'P 1'
_cell_length_a   16.90702250
_cell_length_b   17.19105199
_cell_length_c   17.00273188
_cell_angle_alpha   90.67776662
_cell_angle_beta   89.28142978
_cell_angle_gamma   89.84100814
_symmetry_Int_Tables_number   1
_chemical_formula_structural   VZnO4
_chemical_formula_sum   'V64 Zn64 O256'
_cell_volume   4941.08008237
_cell_formula_units_Z   64
loop_
 _symmetry_equiv_pos_site_id
 _symmetry_equiv_pos_as_xyz
  1  'x, y, z'
loop_
 _atom_site_type_symbol
 _atom_site_label
 _atom_site_symmetry_multiplicity
 _atom_site_fract_x
 _atom_site_fract_y
 _atom_site_fract_z
 _atom_site_occupancy
  V  V0  1  0.38676766  0.24753459  0.14118214  1
  V  V1  1  0.38881569  -0.00190395  0.87850372  1
  V  V2  1  0.48922455  0.49406327  -0.01685361  1
  V  V3  1  0.85669853  0.90549599  0.00688045  1
  V  V4  1  0.86998606  0.60737124  0.21404829  1
  V  V5  1  0.15376528  0.74034634  0.35605426  1
  V  V6  1  0.11504542  0.63092169  0.50227838  1
  V  V7  1  0.86650715  0.37386868  0.00911999  1
  V  V8  1  0.64039376  0.37876739  0.27171678  1
  V  V9  1  0.86307871  0.49812960  0.87014023  1
  V  V10  1  0.37582805  0.24822341  0.62290331  1
  V  V11  1  0.14386919  0.24675555  0.86310662  1
  V  V12  1  0.90229590  0.11148908  0.22302922  1
  V  V13  1  0.59421353  0.25990170  0.81624213  1
  V  V14  1  0.60798411  0.61794302  0.52551190  1
  V  V15  1  0.24235617  0.88850090  0.61377889  1
  V  V16  1  0.37188682  0.86082493  0.00265419  1
  V  V17  1  0.00417416  0.22252486  0.74788629  1
  V  V18  1  0.50095274  0.73308022  0.24750609  1
  V  V19  1  0.62768536  0.01523033  0.12398722  1
  V  V20  1  0.23546843  0.23901584  0.49484861  1
  V  V21  1  0.89426551  -0.00886287  0.37492499  1
  V  V22  1  0.64471201  -0.00490855  0.61549441  1
  V  V23  1  0.26026309  0.25666457  0.00403569  1
  V  V24  1  0.49520386  0.49225197  0.51157768  1
  V  V25  1  0.86284454  0.02065216  0.85767130  1
  V  V26  1  0.81865117  0.71739627  0.65969071  1
  V  V27  1  0.38193542  0.35684962  0.47300537  1
  V  V28  1  0.38383611  0.00257496  0.36975640  1
  V  V29  1  0.87271020  0.25038721  0.12104542  1
  V  V30  1  0.49752408  0.78348675  0.73297395  1
  V  V31  1  0.01099102  0.26541389  0.25146372  1
  V  V32  1  0.26321110  0.48480488  0.24972950  1
  V  V33  1  0.88418310  0.26924448  0.62285711  1
  V  V34  1  0.75930821  0.12125720  0.35701640  1
  V  V35  1  0.49518819  0.11224332  0.60479138  1
  V  V36  1  0.76271147  0.63335030  0.41819203  1
  V  V37  1  0.38254226  0.88559866  0.49585041  1
  V  V38  1  0.12534057  0.12596753  0.00488782  1
  V  V39  1  0.38162806  0.51908398  0.37034282  1
  V  V40  1  0.62199158  0.89762170  0.77010248  1
  V  V41  1  0.37558566  0.12439169  0.75363820  1
  V  V42  1  0.14478102  0.72690955  0.87086667  1
  V  V43  1  0.61476129  0.74592111  0.39416835  1
  V  V44  1  0.23443287  0.12159908  0.36191786  1
  V  V45  1  0.04711951  0.05222955  0.55006462  1
  V  V46  1  0.64917836  0.12948386  0.49870463  1
  V  V47  1  0.03311096  0.62123376  0.11497559  1
  V  V48  1  0.61676672  0.17050608  0.01631320  1
  V  V49  1  -0.00631294  0.89724584  0.86924108  1
  V  V50  1  0.88017018  0.47947053  0.41048409  1
  V  V51  1  0.61681259  0.65600913  -0.01557695  1
  V  V52  1  0.01345049  0.48939524  0.00182550  1
  V  V53  1  0.00869731  0.37558736  0.86076549  1
  V  V54  1  0.85315885  0.86040255  0.53454845  1
  V  V55  1  0.84255663  0.75169986  0.10879650  1
  V  V56  1  0.24567143  -0.02021913  0.23688412  1
  V  V57  1  0.74476431  0.14448577  0.86024255  1
  V  V58  1  -0.01554018  0.75033612  0.75667725  1
  V  V59  1  0.12701234  0.46919309  0.13936371  1
  V  V60  1  0.63177262  0.87443951  0.25451137  1
  V  V61  1  0.27740598  0.72161330  0.53221110  1
  V  V62  1  0.00197004  0.75610494  0.23692313  1
  V  V63  1  0.24147828  -0.00208840  0.75421252  1
  Zn  Zn64  1  0.19068455  0.19238386  0.18489696  1
  Zn  Zn65  1  0.18524571  0.17165078  0.67457993  1
  Zn  Zn66  1  0.19902920  0.66755465  0.20572704  1
  Zn  Zn67  1  0.13809363  0.74797627  0.66759807  1
  Zn  Zn68  1  0.68884406  0.19759297  0.18249680  1
  Zn  Zn69  1  0.69655625  0.18655218  0.67135032  1
  Zn  Zn70  1  0.72275663  0.72016985  0.23823402  1
  Zn  Zn71  1  0.68002974  0.70513108  0.80767701  1
  Zn  Zn72  1  0.30490557  0.29888453  0.30318415  1
  Zn  Zn73  1  0.41462240  0.32598358  0.88979604  1
  Zn  Zn74  1  0.32418851  0.82040279  0.30559938  1
  Zn  Zn75  1  0.31579620  0.82422961  0.80892734  1
  Zn  Zn76  1  0.83727668  0.29694335  0.32234432  1
  Zn  Zn77  1  0.84026134  0.30016603  0.82245441  1
  Zn  Zn78  1  0.78681042  0.83140608  0.36296432  1
  Zn  Zn79  1  0.80564237  0.84041461  0.81200212  1
  Zn  Zn80  1  0.20822579  0.40324631  0.40288424  1
  Zn  Zn81  1  0.18489733  0.42650501  0.93667181  1
  Zn  Zn82  1  0.18206075  0.93405786  0.42610386  1
  Zn  Zn83  1  0.19442768  0.93703309  0.93977770  1
  Zn  Zn84  1  0.69384039  0.45700914  0.44091263  1
  Zn  Zn85  1  0.68069036  0.41165694  0.93388507  1
  Zn  Zn86  1  0.68604542  0.95098201  0.42764199  1
  Zn  Zn87  1  0.68628521  0.95972164  0.94500073  1
  Zn  Zn88  1  0.29655990  0.07607102  0.06429023  1
  Zn  Zn89  1  0.30029568  0.06019443  0.55320668  1
  Zn  Zn90  1  0.32613816  0.42714037  0.06388006  1
  Zn  Zn91  1  0.26987438  0.52678800  0.51029867  1
  Zn  Zn92  1  0.78892882  0.08615823  0.05693752  1
  Zn  Zn93  1  0.83475688  0.05566650  0.55925380  1
  Zn  Zn94  1  0.81673312  0.58177066  0.01175337  1
  Zn  Zn95  1  0.91706479  0.59110913  0.54777764  1
  Zn  Zn96  1  0.45090786  0.42392997  0.19092541  1
  Zn  Zn97  1  0.41576307  0.42697328  0.69086416  1
  Zn  Zn98  1  0.46079096  0.94645146  0.20943792  1
  Zn  Zn99  1  0.42893059  0.94816281  0.67488908  1
  Zn  Zn100  1  0.94403150  0.43153005  0.18641494  1
  Zn  Zn101  1  0.93299309  0.44310829  0.68497714  1
  Zn  Zn102  1  0.89227867  0.90423997  0.21245631  1
  Zn  Zn103  1  0.94130674  0.98103081  0.68350717  1
  Zn  Zn104  1  0.06896886  0.05910314  0.29918587  1
  Zn  Zn105  1  0.06641010  0.06141482  0.83543930  1
  Zn  Zn106  1  0.05114837  0.56677438  0.31231884  1
  Zn  Zn107  1  0.04959631  0.57259915  0.81608690  1
  Zn  Zn108  1  0.57548227  0.05484385  0.31172089  1
  Zn  Zn109  1  0.56217547  0.07706426  0.79813206  1
  Zn  Zn110  1  0.56302927  0.56964987  0.32875065  1
  Zn  Zn111  1  0.58289395  0.54038157  0.85319905  1
  Zn  Zn112  1  0.43060264  0.16665900  0.43796211  1
  Zn  Zn113  1  0.41748614  0.15052725  0.97840086  1
  Zn  Zn114  1  0.43748456  0.68582557  0.44851092  1
  Zn  Zn115  1  0.44986642  0.68455982  1.06407654  1
  Zn  Zn116  1  0.92173609  0.18576246  0.42463833  1
  Zn  Zn117  1  0.94211232  0.18879772  0.93846012  1
  Zn  Zn118  1  0.95553374  0.72429192  0.44203405  1
  Zn  Zn119  1  0.86537383  0.71103499  0.89796949  1
  Zn  Zn120  1  0.05806918  0.29875601  0.05662588  1
  Zn  Zn121  1  0.04018436  0.21148630  0.54272294  1
  Zn  Zn122  1  0.00221817  0.77328986  0.00981922  1
  Zn  Zn123  1  0.02935872  0.85634499  0.58479213  1
  Zn  Zn124  1  0.52919804  0.33648157  0.05162072  1
  Zn  Zn125  1  0.55383258  0.29694515  0.55023538  1
  Zn  Zn126  1  0.57022097  0.82654360  0.08294217  1
  Zn  Zn127  1  0.56322702  0.81782869  0.56439430  1
  O  O128  1  0.13974891  0.13185134  0.10467417  1
  O  O129  1  0.10637258  0.11741944  0.60493918  1
  O  O130  1  0.13261335  0.60471979  0.12619937  1
  O  O131  1  0.13524706  0.65625916  0.59798366  1
  O  O132  1  0.62002238  0.13547021  0.11644407  1
  O  O133  1  0.61766401  0.11521736  0.61421474  1
  O  O134  1  0.64910401  0.58169490  0.16465494  1
  O  O135  1  0.60877077  0.61349478  0.61994150  1
  O  O136  1  0.38616901  0.35332925  0.37472301  1
  O  O137  1  0.36469826  0.39681136  0.80260387  1
  O  O138  1  0.36543321  0.88957244  0.38691212  1
  O  O139  1  0.38708050  0.89219411  0.89599337  1
  O  O140  1  0.86559585  0.38393692  0.38704068  1
  O  O141  1  0.89127090  0.38090787  0.88481458  1
  O  O142  1  0.87051722  0.89967020  0.32719594  1
  O  O143  1  0.86445220  0.91296927  0.88245989  1
  O  O144  1  0.25011655  0.00667508  0.36073579  1
  O  O145  1  0.26686523  -0.01220665  0.85679055  1
  O  O146  1  0.27595031  0.49622039  0.38803197  1
  O  O147  1  0.26078213  0.46925087  0.85225809  1
  O  O148  1  0.77531836  0.01954158  0.37969296  1
  O  O149  1  0.75494470  0.02716006  0.87904770  1
  O  O150  1  0.77865798  0.52319553  0.39627125  1
  O  O151  1  0.76650756  0.47581226  0.87771976  1
  O  O152  1  0.24171026  0.47517869  0.14529133  1
  O  O153  1  0.26439905  0.48833406  0.63380756  1
  O  O154  1  0.26655303  1.00484440  0.14084967  1
  O  O155  1  0.24085788  0.99213684  0.62767920  1
  O  O156  1  0.69833362  0.53951838  0.13140043  1
  O  O157  1  0.71996423  0.54221531  0.71928983  1
  O  O158  1  0.72594607  1.02746522  0.13797997  1
  O  O159  1  0.74241075  1.01120749  0.62120212  1
  O  O160  1  -0.00808163  0.36429535  0.25792811  1
  O  O161  1  0.00143234  0.38161456  0.76275429  1
  O  O162  1  -0.00109370  0.85124305  0.21812156  1
  O  O163  1  -0.01582894  0.89545779  0.76736671  1
  O  O164  1  0.53608023  0.38110264  0.27357214  1
  O  O165  1  0.51301053  0.41907405  0.76043634  1
  O  O166  1  0.52436387  0.85942862  0.25623875  1
  O  O167  1  0.50611042  0.88711948  0.73175463  1
  O  O168  1  0.52221929  0.16781677  0.28647898  1
  O  O169  1  0.48060988  0.12106380  0.72522569  1
  O  O170  1  0.51060508  0.63301869  0.25301769  1
  O  O171  1  0.45362774  0.60300322  0.71281407  1
  O  O172  1  1.00196234  0.12245637  0.22637600  1
  O  O173  1  1.00220018  0.12629923  0.75786706  1
  O  O174  1  0.98441365  0.62095786  0.21968658  1
  O  O175  1  0.98170548  0.65243538  0.76956215  1
  O  O176  1  0.36273612  0.25429450  -0.03129549  1
  O  O177  1  0.37900995  0.25154066  0.49786428  1
  O  O178  1  0.38683230  0.76349786  0.00638781  1
  O  O179  1  0.36066184  0.76662584  0.48552394  1
  O  O180  1  0.88672460  0.26477395  0.00894723  1
  O  O181  1  0.92104761  0.24627841  0.52669583  1
  O  O182  1  0.88313607  0.73801523  0.01223086  1
  O  O183  1  0.81180829  0.77056874  0.57003867  1
  O  O184  1  0.13798036  0.25723685  0.50221827  1
  O  O185  1  0.14163926  0.25466082  0.98531181  1
  O  O186  1  0.18978356  0.71335252  0.47047433  1
  O  O187  1  0.10110573  0.75359839  0.95836971  1
  O  O188  1  0.63248820  0.22806820  0.50776791  1
  O  O189  1  0.61852296  0.26969928  1.01929945  1
  O  O190  1  0.60239977  0.72592091  0.50326792  1
  O  O191  1  0.60977378  0.75280416  1.00724463  1
  O  O192  1  0.48663759  0.25888553  0.12438767  1
  O  O193  1  0.48299001  0.23443796  0.61601672  1
  O  O194  1  0.51007623  0.74628628  0.14244523  1
  O  O195  1  0.49755529  0.75571751  0.63673141  1
  O  O196  1  0.98727112  0.25806848  0.13608831  1
  O  O197  1  1.00505420  0.25014112  0.64720276  1
  O  O198  1  1.02399833  0.72423733  0.11673681  1
  O  O199  1  1.01229789  0.76779849  0.65734670  1
  O  O200  1  -0.01152824  0.23760948  0.34735826  1
  O  O201  1  -0.00032593  0.26142226  0.85873357  1
  O  O202  1  -0.02595241  0.74642886  0.33309396  1
  O  O203  1  -0.03795566  0.78212396  0.86100464  1
  O  O204  1  0.49991108  0.21111924  0.34348961  1
  O  O205  1  0.49376029  0.26640419  0.83054071  1
  O  O206  1  0.51197071  0.73569777  0.37527375  1
  O  O207  1  0.50372574  0.63719510  0.75287041  1
  O  O208  1  0.24537383  0.13303112  0.48551765  1
  O  O209  1  0.24439580  0.15172173  0.99001569  1
  O  O210  1  0.30897410  0.62936147  0.54487537  1
  O  O211  1  0.30431398  0.60629994  0.94771675  1
  O  O212  1  0.75020827  0.12011549  0.50738473  1
  O  O213  1  0.71310397  0.13332111  0.98247877  1
  O  O214  1  0.72257805  0.61762947  0.51090375  1
  O  O215  1  0.70887549  0.61744092  1.00396109  1
  O  O216  1  0.25956442  0.36626434  -0.00592270  1
  O  O217  1  0.26799314  0.35207404  0.48609880  1
  O  O218  1  0.27300857  0.88358771  0.00492166  1
  O  O219  1  0.25358608  0.88129630  0.50841262  1
  O  O220  1  0.76829692  0.37618012  -0.00072769  1
  O  O221  1  0.71959734  0.38453494  0.53628488  1
  O  O222  1  0.75948751  0.88276708  -0.01074969  1
  O  O223  1  0.77546057  0.88191163  0.46959297  1
  O  O224  1  0.11293354  0.49199721  0.23918529  1
  O  O225  1  0.11983168  0.50982375  0.73755463  1
  O  O226  1  0.14519366  0.99418808  0.24591270  1
  O  O227  1  0.14280473  1.00840691  0.76511688  1
  O  O228  1  0.64167749  0.48031607  0.29811464  1
  O  O229  1  0.56645173  0.47227543  0.75271611  1
  O  O230  1  0.64355599  0.95917240  0.30971171  1
  O  O231  1  0.61501405  0.99941187  0.72746782  1
  O  O232  1  0.36751832  -0.01228192  0.26497403  1
  O  O233  1  0.37053110  0.00978562  0.75605549  1
  O  O234  1  0.37281050  0.48647197  0.26139130  1
  O  O235  1  0.32579218  0.50748624  0.67304348  1
  O  O236  1  0.88647353  0.01597793  0.20324801  1
  O  O237  1  0.86464036  0.01787458  0.76020357  1
  O  O238  1  0.86763597  0.51022739  0.21833401  1
  O  O239  1  0.88346658  0.50062683  0.77213635  1
  O  O240  1  0.08644552  0.39276800  0.39990787  1
  O  O241  1  0.11395914  0.36076096  0.87207397  1
  O  O242  1  0.13484019  0.83338064  0.38645491  1
  O  O243  1  0.09244905  0.89961081  0.88858380  1
  O  O244  1  0.64848560  0.36395542  0.37724426  1
  O  O245  1  0.63822168  0.33807509  0.85900801  1
  O  O246  1  0.63087104  0.84384507  0.40649597  1
  O  O247  1  0.61400572  0.92006564  0.86625441  1
  O  O248  1  0.37874131  0.15299333  0.09275560  1
  O  O249  1  0.38550497  0.12306187  0.60677365  1
  O  O250  1  0.34600496  0.65055095  0.12872711  1
  O  O251  1  0.29916846  0.62576832  0.73213830  1
  O  O252  1  0.87268164  0.14130611  0.11853134  1
  O  O253  1  0.93571037  0.07053465  0.60624662  1
  O  O254  1  0.85283897  0.62637777  0.11344732  1
  O  O255  1  0.86273730  0.62977616  0.63849403  1
  O  O256  1  0.26325952  0.25551215  0.10714129  1
  O  O257  1  0.26182136  0.23178077  0.60165326  1
  O  O258  1  0.29166906  0.70339761  0.13585339  1
  O  O259  1  0.26050474  0.76377787  0.62449457  1
  O  O260  1  0.77135377  0.25557702  0.12931941  1
  O  O261  1  0.79119706  0.23123349  0.62512904  1
  O  O262  1  0.74503515  0.74088823  0.12288244  1
  O  O263  1  0.72777747  0.70608248  0.69681324  1
  O  O264  1  0.25283367  0.23162019  0.38277721  1
  O  O265  1  0.24028168  0.25923245  0.86416698  1
  O  O266  1  0.24780995  0.73238996  0.32086010  1
  O  O267  1  0.24012927  0.76179831  0.86472968  1
  O  O268  1  0.80152964  0.21098978  0.39086073  1
  O  O269  1  0.76354056  0.24208224  0.87578729  1
  O  O270  1  0.73611857  0.73279965  0.38883000  1
  O  O271  1  0.76723697  0.74978410  0.86411776  1
  O  O272  1  0.02425573  0.14365948  -0.00264557  1
  O  O273  1  0.00366939  0.11798916  0.47995933  1
  O  O274  1  0.00476485  0.60177913  0.01753545  1
  O  O275  1  0.00949600  0.64375449  0.50494460  1
  O  O276  1  0.52978033  0.13970842  -0.02251563  1
  O  O277  1  0.51488499  0.12580073  0.50242464  1
  O  O278  1  0.52848372  0.60929967  0.02556297  1
  O  O279  1  0.49578637  0.60339774  0.50610779  1
  O  O280  1  0.49017570  0.37539105  0.49655687  1
  O  O281  1  0.47201225  0.38905668  0.96644940  1
  O  O282  1  0.48037192  0.87087818  0.50212494  1
  O  O283  1  0.47579527  0.89820807  1.04120259  1
  O  O284  1  1.04394535  0.39165706  0.46070731  1
  O  O285  1  0.99811293  0.37908551  0.99098307  1
  O  O286  1  0.94944877  0.82421563  0.50180953  1
  O  O287  1  0.96164312  0.87668574  0.98329282  1
  O  O288  1  0.48535776  0.50068529  0.38249077  1
  O  O289  1  0.46498976  0.53010221  0.89443502  1
  O  O290  1  0.48362937  1.01109957  0.36803708  1
  O  O291  1  0.48549351  1.01596996  0.86184253  1
  O  O292  1  0.95708606  0.52312618  0.36105168  1
  O  O293  1  1.00518957  0.48754501  0.88356023  1
  O  O294  1  0.99152353  0.99400919  0.34864290  1
  O  O295  1  0.97488664  1.00728436  0.88014405  1
  O  O296  1  0.06414078  -0.03610321  0.11066027  1
  O  O297  1  0.02830070  -0.03563683  0.61234313  1
  O  O298  1  0.01555307  0.49824281  0.11989168  1
  O  O299  1  0.01885350  0.51393850  0.64952795  1
  O  O300  1  0.54784838  0.02443864  0.19781467  1
  O  O301  1  0.50249981  0.01267910  0.61173245  1
  O  O302  1  0.52845475  0.43767816  0.10902434  1
  O  O303  1  0.48358002  0.48315885  0.60938305  1
  O  O304  1  0.23479250  0.38947933  0.28872955  1
  O  O305  1  0.28119534  0.41062737  0.80448323  1
  O  O306  1  0.25462523  0.88056990  0.24025089  1
  O  O307  1  0.26138819  0.89157981  0.73083520  1
  O  O308  1  0.74541258  0.36847923  0.26931237  1
  O  O309  1  0.71542728  0.46917645  0.71236397  1
  O  O310  1  0.73326181  0.83863838  0.26020265  1
  O  O311  1  0.71978358  0.88177152  0.75170899  1
  O  O312  1  0.24784692  0.12612310  0.26009152  1
  O  O313  1  0.26407854  0.10536994  0.73061096  1
  O  O314  1  0.23723367  0.57888382  0.26535473  1
  O  O315  1  0.22705260  0.62283221  0.73006490  1
  O  O316  1  0.74594707  0.13441123  0.25831582  1
  O  O317  1  0.74894858  0.13383240  0.76170004  1
  O  O318  1  0.79154660  0.63666003  0.27637361  1
  O  O319  1  0.68395796  0.57569231  0.78507724  1
  O  O320  1  0.35886481  0.10512267  0.37868953  1
  O  O321  1  0.37567243  0.12790871  0.85246162  1
  O  O322  1  0.37645797  0.61575020  0.37751790  1
  O  O323  1  0.33249665  0.61924051  0.88261284  1
  O  O324  1  0.88227049  0.09932548  0.33487996  1
  O  O325  1  0.86159679  0.12493722  0.88745285  1
  O  O326  1  0.85961784  0.65373855  0.44289576  1
  O  O327  1  0.86760928  0.59744996  0.90400604  1
  O  O328  1  0.11750387  0.37363992  0.12943995  1
  O  O329  1  0.09305970  0.48493461  0.66938869  1
  O  O330  1  0.10863165  0.90853266  0.10112788  1
  O  O331  1  0.14350779  0.85594246  0.61883048  1
  O  O332  1  0.64800623  0.41032568  0.17512357  1
  O  O333  1  0.66269220  0.37154652  0.58374965  1
  O  O334  1  0.63189533  0.89951796  0.15012405  1
  O  O335  1  0.63082831  0.89485636  0.61013659  1
  O  O336  1  0.11167312  0.25248936  0.24088344  1
  O  O337  1  0.11916151  0.23690894  0.75481532  1
  O  O338  1  0.11096566  0.73256982  0.25153519  1
  O  O339  1  0.09897474  0.75938789  0.77969827  1
  O  O340  1  0.63361512  0.27954239  0.24937612  1
  O  O341  1  0.61917388  0.25884584  0.71736396  1
  O  O342  1  0.61700454  0.75305005  0.27467199  1
  O  O343  1  0.59510915  0.78402021  0.77762556  1
  O  O344  1  0.37031186  0.23294378  0.23917466  1
  O  O345  1  0.36028920  0.22718191  0.72358163  1
  O  O346  1  0.40358346  0.75374373  0.26263600  1
  O  O347  1  0.40818862  0.76644896  0.77820711  1
  O  O348  1  0.88492673  0.23496731  0.23471581  1
  O  O349  1  0.89666634  0.24969457  0.73931332  1
  O  O350  1  0.89061246  0.73959170  0.20180653  1
  O  O351  1  0.87416280  0.77146387  0.73259606  1
  O  O352  1  0.38149859  0.47560173  0.48436511  1
  O  O353  1  0.40336838  0.50821288  1.04477378  1
  O  O354  1  0.37008775  0.99194079  0.48695267  1
  O  O355  1  0.37088790  1.03439009  0.97324013  1
  O  O356  1  0.89542466  0.48836468  0.50999184  1
  O  O357  1  0.88860210  0.48255995  0.99828540  1
  O  O358  1  0.89380941  0.98087465  0.47542938  1
  O  O359  1  0.85996271  1.00333922  1.01753514  1
  O  O360  1  0.14160816  0.02957100  -0.01890006  1
  O  O361  1  0.10749477  -0.00283582  0.48843327  1
  O  O362  1  0.12174405  0.48332216  0.01558790  1
  O  O363  1  0.15304637  0.53828403  0.49617284  1
  O  O364  1  0.61157681  -0.00270087  0.02685492  1
  O  O365  1  0.63115424  0.01407235  0.50722985  1
  O  O366  1  0.60018585  0.48753177  -0.04268312  1
  O  O367  1  0.60409729  0.50446833  0.49666767  1
  O  O368  1  0.37152475  0.35808986  0.14177464  1
  O  O369  1  0.37341027  0.34898979  0.61814322  1
  O  O370  1  0.41233689  0.90064420  0.10125721  1
  O  O371  1  0.36127225  0.88658672  0.60503969  1
  O  O372  1  0.87798051  0.36955069  0.11370259  1
  O  O373  1  0.87372505  0.36810121  0.62985173  1
  O  O374  1  0.86052649  0.86005995  0.10946440  1
  O  O375  1  0.86406786  0.91083795  0.61793201  1
  O  O376  1  0.13479893  0.12029351  0.37014693  1
  O  O377  1  0.12775333  0.14657204  0.88024945  1
  O  O378  1  0.10291105  0.64601045  0.38072624  1
  O  O379  1  0.13850074  0.62619384  0.86450594  1
  O  O380  1  0.65033164  0.11731839  0.38588975  1
  O  O381  1  0.62712407  0.16074744  0.85145985  1
  O  O382  1  0.63836609  0.62979662  0.38906201  1
  O  O383  1  0.60409013  0.65058130  0.88135293  1
