# generated using pymatgen
data_VZnO4
_symmetry_space_group_name_H-M   'P 1'
_cell_length_a   17.07996676
_cell_length_b   17.01039399
_cell_length_c   17.02116198
_cell_angle_alpha   90.15288641
_cell_angle_beta   90.11915236
_cell_angle_gamma   89.83914656
_symmetry_Int_Tables_number   1
_chemical_formula_structural   VZnO4
_chemical_formula_sum   'V64 Zn64 O256'
_cell_volume   4945.22901169
_cell_formula_units_Z   64
loop_
 _symmetry_equiv_pos_site_id
 _symmetry_equiv_pos_as_xyz
  1  'x, y, z'
loop_
 _atom_site_type_symbol
 _atom_site_label
 _atom_site_symmetry_multiplicity
 _atom_site_fract_x
 _atom_site_fract_y
 _atom_site_fract_z
 _atom_site_occupancy
  V  V0  1  0.78512745  0.73282240  0.50146993  1
  V  V1  1  0.75401327  0.87745546  0.14639217  1
  V  V2  1  0.71205409  0.36840650  0.10722083  1
  V  V3  1  0.74591433  0.52279482  0.76260811  1
  V  V4  1  0.25967911  0.63491450  0.87139894  1
  V  V5  1  0.37662423  -0.02206245  0.89887123  1
  V  V6  1  0.25591510  0.89591637  0.62933342  1
  V  V7  1  0.62801161  0.24461883  0.34707706  1
  V  V8  1  0.86445949  0.00676424  0.36399797  1
  V  V9  1  0.00680099  0.49850211  0.47854623  1
  V  V10  1  0.61123516  0.10469602  -0.01253403  1
  V  V11  1  0.26718437  0.36768463  0.13053169  1
  V  V12  1  0.87294655  0.12808294  0.22323637  1
  V  V13  1  0.01343907  0.88193027  0.36783166  1
  V  V14  1  0.53656309  -0.00270559  0.46949689  1
  V  V15  1  0.50433910  0.77700599  0.25401677  1
  V  V16  1  0.50963310  0.51595703  0.51412546  1
  V  V17  1  0.51342742  0.62143958  0.12539883  1
  V  V18  1  0.51124709  0.73160704  0.74881219  1
  V  V19  1  0.26013600  0.75705009  0.00887267  1
  V  V20  1  0.62108293  0.37657187  0.76111961  1
  V  V21  1  0.26335493  0.49616871  0.25397567  1
  V  V22  1  0.12704983  0.49994567  0.14692892  1
  V  V23  1  0.38417847  0.72433592  0.62579422  1
  V  V24  1  0.24379934  0.75098248  0.50590830  1
  V  V25  1  0.61777370  -0.00308696  0.13451188  1
  V  V26  1  0.25086405  0.23079774  -0.01676157  1
  V  V27  1  0.73539403  0.87660515  0.62917912  1
  V  V28  1  0.23849127  0.87261402  0.14815237  1
  V  V29  1  0.40096585  0.50858814  0.37772750  1
  V  V30  1  0.12936055  0.02081753  0.57841978  1
  V  V31  1  0.75103817  0.73679895  -0.00689487  1
  V  V32  1  0.76249639  0.37207819  0.62482335  1
  V  V33  1  0.87075742  0.73518175  0.15234881  1
  V  V34  1  0.88692062  0.86383719  -0.00014590  1
  V  V35  1  0.40215343  0.10012942  0.76391667  1
  V  V36  1  0.37606388  0.39122363  -0.00756012  1
  V  V37  1  0.38773068  0.63337041  0.24969121  1
  V  V38  1  0.01854312  0.73810205  0.25742504  1
  V  V39  1  0.50318643  0.24145059  0.21721744  1
  V  V40  1  0.01768774  0.48500555  -0.01152071  1
  V  V41  1  0.00100118  0.74763257  0.74250143  1
  V  V42  1  0.89970483  0.49546772  0.86024475  1
  V  V43  1  0.12564496  0.62690475  0.00206016  1
  V  V44  1  0.62171168  0.76295048  0.39119789  1
  V  V45  1  0.63568757  0.12943659  0.52376088  1
  V  V46  1  0.13274947  0.50903112  0.61242440  1
  V  V47  1  0.52562841  0.85071310  0.88414022  1
  V  V48  1  0.88942653  0.89259591  0.50594332  1
  V  V49  1  0.38968181  0.25842485  0.66247589  1
  V  V50  1  0.24114531  0.62825518  0.38236568  1
  V  V51  1  0.37723227  0.11850299  0.22068541  1
  V  V52  1  0.39221641  0.36509166  0.49243502  1
  V  V53  1  0.11918395  0.02012363  0.14158397  1
  V  V54  1  -0.02605323  0.28715171  0.77089296  1
  V  V55  1  0.87599249  0.36295428  0.47021207  1
  V  V56  1  0.25168779  0.36113174  0.61576668  1
  V  V57  1  0.63813033  0.51495210  0.61923206  1
  V  V58  1  0.74924173  0.22953911  -0.01319595  1
  V  V59  1  0.00005320  0.01630342  0.00183282  1
  V  V60  1  0.88961392  0.27382987  0.11331862  1
  V  V61  1  0.85739084  0.09787303  0.74906891  1
  V  V62  1  0.23288120  0.10811585  0.86558200  1
  V  V63  1  0.25985896  0.50288792  0.75199512  1
  Zn  Zn64  1  0.20593495  0.18124774  0.20751252  1
  Zn  Zn65  1  0.08068050  0.11846611  0.73399560  1
  Zn  Zn66  1  0.19719919  0.68156571  0.18756078  1
  Zn  Zn67  1  0.19476830  0.67845605  0.68035079  1
  Zn  Zn68  1  0.69599471  0.17776599  0.17227095  1
  Zn  Zn69  1  0.69072738  0.19743920  0.69514541  1
  Zn  Zn70  1  0.67503548  0.70816557  0.21539095  1
  Zn  Zn71  1  0.69395522  0.69701772  0.67737594  1
  Zn  Zn72  1  0.38751127  0.34176410  0.28222037  1
  Zn  Zn73  1  0.27717549  0.32903945  0.82193700  1
  Zn  Zn74  1  0.30680742  0.80526826  0.31302952  1
  Zn  Zn75  1  0.23714959  0.84421934  0.82956388  1
  Zn  Zn76  1  0.80154410  0.31804124  0.28380647  1
  Zn  Zn77  1  0.79740564  0.33406868  0.82502941  1
  Zn  Zn78  1  0.81585622  0.81331977  0.32861369  1
  Zn  Zn79  1  0.80836740  0.81571639  0.81802789  1
  Zn  Zn80  1  0.20394335  0.43613538  0.43891099  1
  Zn  Zn81  1  0.19563127  0.43756411  0.94666409  1
  Zn  Zn82  1  0.19616607  0.93012583  0.44228985  1
  Zn  Zn83  1  0.16998193  0.94209380  0.95759592  1
  Zn  Zn84  1  0.68152507  0.41608206  0.44819163  1
  Zn  Zn85  1  0.74858030  0.44754599  0.95555534  1
  Zn  Zn86  1  0.70771044  0.93070991  0.44415791  1
  Zn  Zn87  1  0.67554857  0.90226307  0.97660597  1
  Zn  Zn88  1  0.29551661  0.04705095  0.06098410  1
  Zn  Zn89  1  0.25937527  0.12010133  0.65820988  1
  Zn  Zn90  1  0.31825416  0.57009159  0.06613825  1
  Zn  Zn91  1  0.31521568  0.55984979  0.55757360  1
  Zn  Zn92  1  0.81310135  0.04913744  0.05691725  1
  Zn  Zn93  1  0.80775418  0.05956094  0.56760175  1
  Zn  Zn94  1  0.69766274  0.57814252  0.08177051  1
  Zn  Zn95  1  0.83236059  0.55007399  0.55921226  1
  Zn  Zn96  1  0.50015918  0.40786921  0.13256845  1
  Zn  Zn97  1  0.43750308  0.43664956  0.68028951  1
  Zn  Zn98  1  0.42669010  0.94304714  0.17070267  1
  Zn  Zn99  1  0.39934256  0.88111114  0.73921824  1
  Zn  Zn100  1  0.90231007  0.48014856  0.13783902  1
  Zn  Zn101  1  0.93692135  0.46547348  0.67630382  1
  Zn  Zn102  1  0.94187589  0.93113991  0.18602446  1
  Zn  Zn103  1  0.96121491  1.00074067  0.64679140  1
  Zn  Zn104  1  0.02675100  0.05607213  0.29016448  1
  Zn  Zn105  1  0.05632392  -0.05388690  0.81388960  1
  Zn  Zn106  1  -0.00417778  0.52966056  0.28279294  1
  Zn  Zn107  1  0.09547772  0.41926611  0.79527696  1
  Zn  Zn108  1  0.56811886  0.07389701  0.30625322  1
  Zn  Zn109  1  0.56627370  0.20441887  0.83398098  1
  Zn  Zn110  1  0.57851322  0.58526570  0.32412121  1
  Zn  Zn111  1  0.53098582  0.53144853  0.78662916  1
  Zn  Zn112  1  0.49458390  0.19897447  0.44973504  1
  Zn  Zn113  1  0.42927550  0.17650760  0.95521391  1
  Zn  Zn114  1  0.44173494  0.69792171  0.44154772  1
  Zn  Zn115  1  0.43792673  0.69229913  0.94220612  1
  Zn  Zn116  1  0.79857917  0.18922582  0.42548234  1
  Zn  Zn117  1  0.94642048  0.20575246  0.94107786  1
  Zn  Zn118  1  0.97417344  0.70039038  0.44924544  1
  Zn  Zn119  1  0.89438567  0.62859286  1.00999553  1
  Zn  Zn120  1  0.08411121  0.31351194  0.07598668  1
  Zn  Zn121  1  0.03839927  0.34496305  0.58633090  1
  Zn  Zn122  1  0.06216688  0.80182827  0.07903143  1
  Zn  Zn123  1  0.07207598  0.83082948  0.55751525  1
  Zn  Zn124  1  0.55127517  0.28788590  0.01219817  1
  Zn  Zn125  1  0.56652138  0.32064219  0.57552552  1
  Zn  Zn126  1  0.56772751  0.80029559  0.07387488  1
  Zn  Zn127  1  0.55004280  0.81875630  0.56515274  1
  O  O128  1  0.13376779  0.12082384  0.14366019  1
  O  O129  1  0.14951256  0.11027134  0.63842400  1
  O  O130  1  0.14379012  0.60395115  0.11910024  1
  O  O131  1  0.12921241  0.60738317  0.61310193  1
  O  O132  1  0.63635069  0.10073788  0.11113789  1
  O  O133  1  0.63571253  0.12366603  0.62205282  1
  O  O134  1  0.62061284  0.63208363  0.14171652  1
  O  O135  1  0.63693922  0.61255108  0.61617895  1
  O  O136  1  0.38381082  0.39757060  0.38451102  1
  O  O137  1  0.35947937  0.37181859  0.89594639  1
  O  O138  1  0.34698733  0.91274267  0.36493034  1
  O  O139  1  0.33989588  0.89489519  0.84326676  1
  O  O140  1  0.85711416  0.37264253  0.37219683  1
  O  O141  1  0.84936380  0.41503338  0.89977288  1
  O  O142  1  0.88547040  0.88495885  0.38470650  1
  O  O143  1  0.86887455  0.86462299  0.90136127  1
  O  O144  1  0.29135409  -0.03710841  0.36670826  1
  O  O145  1  0.25062035  0.00929209  0.88869343  1
  O  O146  1  0.26458602  0.51238288  0.37090920  1
  O  O147  1  0.25624815  0.50307104  0.85354153  1
  O  O148  1  0.76795408  -0.01634566  0.36390290  1
  O  O149  1  0.70793877  -0.00554077  0.82293948  1
  O  O150  1  0.68332867  0.50536701  0.36887953  1
  O  O151  1  0.73160516  0.51434091  0.86087129  1
  O  O152  1  0.26085524  0.49968981  0.14590813  1
  O  O153  1  0.24244349  0.48993539  0.61162952  1
  O  O154  1  0.22365766  0.98749471  0.12611862  1
  O  O155  1  0.25348571  0.99749761  0.63607066  1
  O  O156  1  0.73241846  0.47301198  0.06905047  1
  O  O157  1  0.74505446  0.49979959  0.62965294  1
  O  O158  1  0.75437138  0.97913140  0.12776914  1
  O  O159  1  0.75275097  0.97571124  0.62349991  1
  O  O160  1  -0.11536567  0.49840441  0.24885814  1
  O  O161  1  -0.00649916  0.39164565  0.75338184  1
  O  O162  1  -0.00141593  0.86411809  0.26393812  1
  O  O163  1  0.00977620  0.84549403  0.77756632  1
  O  O164  1  0.49169639  0.35102869  0.23162991  1
  O  O165  1  0.52085578  0.41475657  0.75375158  1
  O  O166  1  0.46650998  0.86718138  0.24982834  1
  O  O167  1  0.50268156  0.84826439  0.77240553  1
  O  O168  1  0.49194865  0.13258059  0.24174739  1
  O  O169  1  0.49080632  0.14221297  0.76982371  1
  O  O170  1  0.49423707  0.62938975  0.25010102  1
  O  O171  1  0.49426231  0.63171694  0.75663122  1
  O  O172  1  0.96960527  0.14510690  0.26451451  1
  O  O173  1  0.95986994  0.15776818  0.77205150  1
  O  O174  1  0.99863279  0.64073516  0.26914678  1
  O  O175  1  0.97240037  0.65704318  0.70180006  1
  O  O176  1  0.35016578  0.24949060  0.00582913  1
  O  O177  1  0.40374707  0.26700074  0.48149411  1
  O  O178  1  0.35763906  0.75387132  -0.00083025  1
  O  O179  1  0.37539295  0.74805252  0.51783854  1
  O  O180  1  0.86435326  0.24299651  0.01132823  1
  O  O181  1  0.86059898  0.26563377  0.48703045  1
  O  O182  1  0.86806663  0.74890096  0.02489697  1
  O  O183  1  0.88560507  0.75708168  0.49884838  1
  O  O184  1  0.00378466  0.28359376  0.32207931  1
  O  O185  1  0.15978219  0.25405666  1.01942872  1
  O  O186  1  0.14383900  0.75039162  0.51203955  1
  O  O187  1  0.12858438  0.72886707  1.01366141  1
  O  O188  1  0.59971000  0.22845194  0.51088896  1
  O  O189  1  0.64146114  0.21567224  1.00364138  1
  O  O190  1  0.60558267  0.74276307  0.48769094  1
  O  O191  1  0.65332504  0.74713448  1.01408717  1
  O  O192  1  0.50953992  0.23679706  0.11916692  1
  O  O193  1  0.48585286  0.26406162  0.63613187  1
  O  O194  1  0.50513305  0.74205552  0.15113788  1
  O  O195  1  0.49217042  0.74781114  0.63265754  1
  O  O196  1  0.98925326  0.26449759  0.11183491  1
  O  O197  1  1.01145943  0.25598874  0.66054898  1
  O  O198  1  0.98331825  0.75459299  0.15254039  1
  O  O199  1  1.00735732  0.78633863  0.64308812  1
  O  O200  1  0.00523674  0.34176421  0.28071024  1
  O  O201  1  -0.00403806  0.27703162  0.86936982  1
  O  O202  1  0.00409380  0.76401399  0.36450365  1
  O  O203  1  0.02021999  0.70696133  0.83401666  1
  O  O204  1  0.51752716  0.24612240  0.34936830  1
  O  O205  1  0.50367752  0.25104009  0.91395769  1
  O  O206  1  0.51155512  0.74917301  0.36504850  1
  O  O207  1  0.50004971  0.74287818  0.86280397  1
  O  O208  1  0.27882960  0.16132293  0.47580279  1
  O  O209  1  0.24862330  0.12505783  0.98289238  1
  O  O210  1  0.25591653  0.62992702  0.48803817  1
  O  O211  1  0.25073172  0.63825040  1.00185503  1
  O  O212  1  0.74044185  0.13247436  0.50812740  1
  O  O213  1  0.75938603  0.12577454  0.99448652  1
  O  O214  1  0.78331885  0.63298622  0.50114361  1
  O  O215  1  0.76740334  0.63417093  1.01341938  1
  O  O216  1  0.26154941  0.37277194  0.01954333  1
  O  O217  1  0.28064877  0.37890335  0.50546637  1
  O  O218  1  0.23484424  0.85371157  -0.00689071  1
  O  O219  1  0.25529668  0.85802908  0.51347385  1
  O  O220  1  0.73277988  0.34355340  0.00024272  1
  O  O221  1  0.76965677  0.39198901  0.51483397  1
  O  O222  1  0.76782836  0.85329878  0.02025309  1
  O  O223  1  0.78036307  0.86956665  0.51638629  1
  O  O224  1  0.15644894  0.50562730  0.25070113  1
  O  O225  1  0.14428397  0.49399809  0.72170977  1
  O  O226  1  0.11223540  1.00257954  0.24184862  1
  O  O227  1  0.04211621  1.00965402  0.72534991  1
  O  O228  1  0.68663534  0.47481221  0.29419863  1
  O  O229  1  0.63640475  0.50588519  0.73445670  1
  O  O230  1  0.62642229  1.00599505  0.23351030  1
  O  O231  1  0.65876945  0.98826931  0.77212132  1
  O  O232  1  0.39164460  0.02152578  0.24502347  1
  O  O233  1  0.41095475  0.00561772  0.73973248  1
  O  O234  1  0.37715390  0.51431736  0.26913665  1
  O  O235  1  0.35711669  0.50342763  0.72888595  1
  O  O236  1  0.88642771  0.01295009  0.25564881  1
  O  O237  1  0.85438351  0.00524173  0.77647667  1
  O  O238  1  0.82411555  0.56719981  0.26610419  1
  O  O239  1  0.85933712  0.50056341  0.76437404  1
  O  O240  1  0.14822337  0.35514786  0.37085885  1
  O  O241  1  0.16977767  0.37121423  0.86087282  1
  O  O242  1  0.11240490  0.88680279  0.38161056  1
  O  O243  1  0.14048046  0.89222499  0.86151567  1
  O  O244  1  0.62744777  0.33824206  0.39134379  1
  O  O245  1  0.63575308  0.38896782  0.85585833  1
  O  O246  1  0.63334282  0.86297819  0.39138409  1
  O  O247  1  0.62438655  0.86564371  0.88199831  1
  O  O248  1  0.35913373  0.11812620  0.12100750  1
  O  O249  1  0.37297354  0.14933577  0.66462856  1
  O  O250  1  0.38500034  0.62358152  0.14712332  1
  O  O251  1  0.38042057  0.62482715  0.62517923  1
  O  O252  1  0.88073906  0.11868889  0.12436382  1
  O  O253  1  0.88583169  0.08906796  0.64520598  1
  O  O254  1  0.87716638  0.63672381  0.13213652  1
  O  O255  1  0.91106127  0.56999160  0.63705826  1
  O  O256  1  0.25070452  0.27207412  0.15010996  1
  O  O257  1  0.27929890  0.26058081  0.62343949  1
  O  O258  1  0.24732750  0.75950065  0.11773989  1
  O  O259  1  0.26452949  0.73507177  0.61200080  1
  O  O260  1  0.75173080  0.25739415  0.10693186  1
  O  O261  1  0.74741578  0.27421769  0.62957574  1
  O  O262  1  0.75850707  0.75140349  0.14371394  1
  O  O263  1  0.74899495  0.75549302  0.59861058  1
  O  O264  1  0.19091210  0.29532952  0.34076681  1
  O  O265  1  0.24900986  0.22816234  0.87886664  1
  O  O266  1  0.26177462  0.73927379  0.39385112  1
  O  O267  1  0.24324291  0.73693241  0.88234195  1
  O  O268  1  0.73893866  0.24629436  0.34754307  1
  O  O269  1  0.75926893  0.24809227  0.88800313  1
  O  O270  1  0.74514929  0.75912624  0.40630033  1
  O  O271  1  0.76078241  0.74497659  0.89395356  1
  O  O272  1  -0.01468225  0.11426554  -0.00452721  1
  O  O273  1  0.04219913  0.18319434  0.45412497  1
  O  O274  1  0.02396952  0.60977734  -0.00033176  1
  O  O275  1  0.00025678  0.59907463  0.48390090  1
  O  O276  1  0.51296957  0.10818655  0.00164354  1
  O  O277  1  0.51755529  0.09774192  0.50344433  1
  O  O278  1  0.49443410  0.64323753  0.02982066  1
  O  O279  1  0.50558368  0.61283688  0.49696712  1
  O  O280  1  0.49273504  0.39382965  0.50921131  1
  O  O281  1  0.47584918  0.37549936  1.02021290  1
  O  O282  1  0.50669596  0.91416523  0.51679269  1
  O  O283  1  0.50665098  0.83298679  0.98312266  1
  O  O284  1  0.98320777  0.36276648  0.48916892  1
  O  O285  1  1.02614227  0.38901568  1.00832215  1
  O  O286  1  0.99387035  0.86461243  0.48191529  1
  O  O287  1  0.98650000  0.85071445  1.00949331  1
  O  O288  1  0.50285846  0.51064695  0.38080408  1
  O  O289  1  0.51311883  0.50524493  0.90111843  1
  O  O290  1  0.51728071  0.99395917  0.37245414  1
  O  O291  1  0.47531139  0.94996089  0.88911045  1
  O  O292  1  1.01816586  0.48041128  0.38022529  1
  O  O293  1  1.00634125  0.48590443  0.88233274  1
  O  O294  1  0.98798951  0.98628089  0.37111450  1
  O  O295  1  1.00418230  0.98414689  0.90737487  1
  O  O296  1  0.01167669  -0.00352553  0.12194169  1
  O  O297  1  0.03338317  0.02989094  0.55869556  1
  O  O298  1  0.02784352  0.49558630  0.16795650  1
  O  O299  1  0.03135277  0.46634153  0.60749593  1
  O  O300  1  0.52062715  -0.02104579  0.11939548  1
  O  O301  1  0.37741622  0.03415601  0.55725822  1
  O  O302  1  0.50908289  0.52195356  0.12972176  1
  O  O303  1  0.51453063  0.50775680  0.61809980  1
  O  O304  1  0.27926016  0.39383022  0.25100618  1
  O  O305  1  0.25629103  0.38891810  0.72137648  1
  O  O306  1  0.23523037  0.85971433  0.24748354  1
  O  O307  1  0.22615413  0.85390154  0.71548966  1
  O  O308  1  0.74202090  0.37536514  0.20408016  1
  O  O309  1  0.73821585  0.39441344  0.74210519  1
  O  O310  1  0.75398498  0.86909176  0.24523493  1
  O  O311  1  0.75991613  0.84864451  0.72479891  1
  O  O312  1  0.28601629  0.13194444  0.26703354  1
  O  O313  1  0.28375123  0.11720944  0.77438351  1
  O  O314  1  0.26982480  0.62281019  0.26353520  1
  O  O315  1  0.24376226  0.61745092  0.76255294  1
  O  O316  1  0.77289888  0.12708106  0.24229324  1
  O  O317  1  0.76388594  0.13520033  0.75190118  1
  O  O318  1  0.63401277  0.50746330  0.24680367  1
  O  O319  1  0.75006708  0.61992475  0.74294010  1
  O  O320  1  0.31382069  0.12657203  0.42325053  1
  O  O321  1  0.38661605  0.08836981  0.87719631  1
  O  O322  1  0.38189473  0.61683745  0.37351559  1
  O  O323  1  0.35723183  0.62601586  0.88630099  1
  O  O324  1  0.86541219  0.10627594  0.38146594  1
  O  O325  1  0.91702249  0.13489544  0.84033927  1
  O  O326  1  0.81975265  0.58445782  0.33676940  1
  O  O327  1  0.87893428  0.58250604  0.90077745  1
  O  O328  1  0.15122914  0.39566094  0.13196553  1
  O  O329  1  0.15354233  0.35391382  0.59977120  1
  O  O330  1  0.13455280  0.87481557  0.12289813  1
  O  O331  1  0.13759605  0.91405419  0.59568392  1
  O  O332  1  0.61243396  0.36259401  0.10431311  1
  O  O333  1  0.63844010  0.38989767  0.63098147  1
  O  O334  1  0.64546020  0.88208337  0.11488094  1
  O  O335  1  0.63733431  0.86882645  0.61873568  1
  O  O336  1  0.14843738  0.24867072  0.29455141  1
  O  O337  1  0.07118107  0.24287790  0.72066702  1
  O  O338  1  0.11618304  0.74023284  0.24257640  1
  O  O339  1  0.10391308  0.73393694  0.72644953  1
  O  O340  1  0.61807788  0.23710607  0.24028284  1
  O  O341  1  0.61919975  0.27020579  0.75253524  1
  O  O342  1  0.60467165  0.79290332  0.25693202  1
  O  O343  1  0.60998685  0.73662777  0.74013202  1
  O  O344  1  0.39561561  0.23546835  0.23959846  1
  O  O345  1  0.37820756  0.28391120  0.75653395  1
  O  O346  1  0.38497671  0.73582530  0.26769182  1
  O  O347  1  0.38186803  0.75163173  0.72641619  1
  O  O348  1  0.86744476  0.24621638  0.21571529  1
  O  O349  1  0.87546925  0.28278542  0.76013991  1
  O  O350  1  0.87082583  0.74263379  0.25449911  1
  O  O351  1  0.89971584  0.76372829  0.75779992  1
  O  O352  1  0.39452153  0.50239480  0.49079133  1
  O  O353  1  0.36499874  0.49101754  1.00092674  1
  O  O354  1  0.37231256  1.00603890  0.49114369  1
  O  O355  1  0.35951527  0.97508838  0.99567828  1
  O  O356  1  0.90049365  0.48025412  0.49637669  1
  O  O357  1  0.92581343  0.50675404  1.03114807  1
  O  O358  1  0.87325858  0.99424774  0.48512261  1
  O  O359  1  0.89340495  0.97415289  1.01939681  1
  O  O360  1  0.10816971  0.00958626  0.02027097  1
  O  O361  1  0.17564582  0.03186142  0.48896374  1
  O  O362  1  0.12481493  0.50180242  0.01900352  1
  O  O363  1  0.12165858  0.48604555  0.50112450  1
  O  O364  1  0.63920906  0.00310628  0.00524720  1
  O  O365  1  0.63920928  0.01371466  0.48942807  1
  O  O366  1  0.57113572  0.53552858  -0.05351856  1
  O  O367  1  0.61717548  0.49349062  0.51115115  1
  O  O368  1  0.36656893  0.38051821  0.12257018  1
  O  O369  1  0.37644554  0.36782772  0.61105941  1
  O  O370  1  0.33758144  0.88910324  0.12866903  1
  O  O371  1  0.35643802  0.87732404  0.63161951  1
  O  O372  1  0.87251424  0.37207367  0.11461197  1
  O  O373  1  0.86150525  0.38533290  0.63541765  1
  O  O374  1  0.86565799  0.86017719  0.13124469  1
  O  O375  1  0.90898732  0.90567731  0.60439216  1
  O  O376  1  0.11247871  0.19676669  0.45800005  1
  O  O377  1  0.13812110  0.11105996  0.83848194  1
  O  O378  1  0.14753793  0.62615604  0.37192154  1
  O  O379  1  0.15218856  0.60667425  0.90377278  1
  O  O380  1  0.62681528  0.14405885  0.38287944  1
  O  O381  1  0.62154300  0.11586670  0.88746345  1
  O  O382  1  0.65138863  0.67115381  0.32730478  1
  O  O383  1  0.60645894  0.59605456  0.91843756  1
