# generated using pymatgen
data_VZnO4
_symmetry_space_group_name_H-M   'P 1'
_cell_length_a   16.82452007
_cell_length_b   16.81407694
_cell_length_c   16.85337515
_cell_angle_alpha   90.02626512
_cell_angle_beta   89.88603857
_cell_angle_gamma   90.00159000
_symmetry_Int_Tables_number   1
_chemical_formula_structural   VZnO4
_chemical_formula_sum   'V64 Zn64 O256'
_cell_volume   4767.62071912
_cell_formula_units_Z   64
loop_
 _symmetry_equiv_pos_site_id
 _symmetry_equiv_pos_as_xyz
  1  'x, y, z'
loop_
 _atom_site_type_symbol
 _atom_site_label
 _atom_site_symmetry_multiplicity
 _atom_site_fract_x
 _atom_site_fract_y
 _atom_site_fract_z
 _atom_site_occupancy
  V  V0  1  0.75356234  -0.00136783  0.23998157  1
  V  V1  1  0.26540441  -0.00233621  0.24272566  1
  V  V2  1  0.49942067  0.87521152  0.87438764  1
  V  V3  1  0.62675264  0.87891397  0.24475361  1
  V  V4  1  0.49513084  0.73722246  0.74170647  1
  V  V5  1  0.82258507  0.79944121  0.05573499  1
  V  V6  1  0.76668288  0.52050565  0.74282686  1
  V  V7  1  0.00619025  0.75305907  0.24519496  1
  V  V8  1  0.01360782  0.60342842  0.13532651  1
  V  V9  1  0.00446842  0.86901323  0.87514436  1
  V  V10  1  0.23116071  0.75091816  -0.00186069  1
  V  V11  1  0.49566076  0.24382086  0.75013218  1
  V  V12  1  -0.02261508  0.50484693  -0.04016379  1
  V  V13  1  0.51206821  0.50874567  -0.00199319  1
  V  V14  1  0.86267217  0.50041720  0.39383828  1
  V  V15  1  0.26583497  0.62768710  0.39046720  1
  V  V16  1  0.63049284  0.62343148  0.49140014  1
  V  V17  1  0.49172869  0.48420868  0.49420969  1
  V  V18  1  0.10400988  0.00016397  0.61747464  1
  V  V19  1  0.50435032  0.89251667  0.38761552  1
  V  V20  1  0.12157246  0.61681366  -0.01955753  1
  V  V21  1  0.62420277  0.24307081  0.89410112  1
  V  V22  1  0.63479908  0.24817237  0.33328715  1
  V  V23  1  0.00331679  0.38341519  0.36638798  1
  V  V24  1  0.38351233  0.24305721  0.12523557  1
  V  V25  1  0.36622465  0.38051960  0.00272210  1
  V  V26  1  0.13148662  0.51180819  0.61906060  1
  V  V27  1  0.12524030  0.74419351  0.38386788  1
  V  V28  1  0.23979248  0.37414697  0.65650381  1
  V  V29  1  0.02378671  0.01452179  0.01132698  1
  V  V30  1  0.86141218  0.60963213  0.24562706  1
  V  V31  1  0.26855788  0.10959298  0.37956605  1
  V  V32  1  0.36773619  0.51208712  0.86157305  1
  V  V33  1  0.36654886  0.25270564  0.62071514  1
  V  V34  1  0.76070025  0.87006349  0.62107788  1
  V  V35  1  0.36608457  0.12530700  0.75577644  1
  V  V36  1  0.75002833  0.12670461  0.89297911  1
  V  V37  1  0.62701621  0.88624785  0.74541310  1
  V  V38  1  0.63689173  0.73945966  0.36903157  1
  V  V39  1  0.64368620  0.50245064  0.13451397  1
  V  V40  1  0.13093959  0.88104204  0.24300998  1
  V  V41  1  0.49059898  0.63087728  0.12729352  1
  V  V42  1  0.36103874  -0.00204384  0.88126807  1
  V  V43  1  0.88870257  0.12080802  0.25305182  1
  V  V44  1  0.24337450  0.51685758  0.24549510  1
  V  V45  1  0.24579960  0.26012143  0.47657683  1
  V  V46  1  0.48515834  0.74166775  0.25774378  1
  V  V47  1  0.36736697  0.86551529  0.01790136  1
  V  V48  1  0.63205758  0.73796237  0.88280676  1
  V  V49  1  0.61853390  0.50698297  0.62475855  1
  V  V50  1  0.23215821  0.22777740  -0.00437394  1
  V  V51  1  0.36594570  0.74291787  0.62033744  1
  V  V52  1  0.12298003  0.85934620  0.74508205  1
  V  V53  1  0.62743584  0.36627556  0.73595233  1
  V  V54  1  0.22416793  0.37913113  0.12247316  1
  V  V55  1  0.87836217  0.00400896  0.89092141  1
  V  V56  1  0.11321181  0.24387335  0.85073991  1
  V  V57  1  0.50743352  0.37042080  0.34975236  1
  V  V58  1  0.74226891  0.11097063  0.38909942  1
  V  V59  1  0.11820846  0.12200473  0.49467212  1
  V  V60  1  0.24734768  -0.00588538  0.73459182  1
  V  V61  1  0.49916092  0.37340916  0.87793205  1
  V  V62  1  0.51624798  0.00506481  0.00872257  1
  V  V63  1  0.36675731  0.88405349  0.50403308  1
  Zn  Zn64  1  0.23558269  0.22503709  0.22587601  1
  Zn  Zn65  1  0.17991720  0.18158117  0.68739494  1
  Zn  Zn66  1  0.18848756  0.69337922  0.17672657  1
  Zn  Zn67  1  0.19383383  0.69601830  0.55850968  1
  Zn  Zn68  1  0.75763043  0.21214795  0.20465712  1
  Zn  Zn69  1  0.74208266  0.03035290  0.74166416  1
  Zn  Zn70  1  0.67869670  0.68131152  0.17251189  1
  Zn  Zn71  1  0.68332417  0.69680710  0.68938065  1
  Zn  Zn72  1  0.33380799  0.35499299  0.28833736  1
  Zn  Zn73  1  0.30689575  0.31117446  0.82337970  1
  Zn  Zn74  1  0.31163638  0.81774420  0.32510999  1
  Zn  Zn75  1  0.30862279  0.80659273  0.81286164  1
  Zn  Zn76  1  0.83848073  0.29172227  0.35024508  1
  Zn  Zn77  1  0.76481341  0.24386949  0.75203145  1
  Zn  Zn78  1  0.80867560  0.80030524  0.22507081  1
  Zn  Zn79  1  0.81083822  0.81724267  0.82174718  1
  Zn  Zn80  1  0.18268998  0.45526306  0.43174526  1
  Zn  Zn81  1  0.18359130  0.43792259  0.91541820  1
  Zn  Zn82  1  0.18332249  0.93278834  0.43185627  1
  Zn  Zn83  1  0.18248442  0.93385643  0.93986754  1
  Zn  Zn84  1  0.67822885  0.42712814  0.43552640  1
  Zn  Zn85  1  0.69645874  0.43768272  0.92263541  1
  Zn  Zn86  1  0.73783457  0.88561735  0.40305181  1
  Zn  Zn87  1  0.69541411  0.92820820  0.93870804  1
  Zn  Zn88  1  0.31285643  0.05923056  0.06731349  1
  Zn  Zn89  1  0.32093986  0.06704493  0.56023899  1
  Zn  Zn90  1  0.30469094  0.56425709  0.05675699  1
  Zn  Zn91  1  0.32085603  0.55256360  0.57190588  1
  Zn  Zn92  1  0.81802384  0.06290657  0.06935617  1
  Zn  Zn93  1  0.71138130  0.01485659  0.54468803  1
  Zn  Zn94  1  0.81584431  0.59482969  0.05176705  1
  Zn  Zn95  1  0.80972759  0.55674055  0.56948306  1
  Zn  Zn96  1  0.42814530  0.45482612  0.18048770  1
  Zn  Zn97  1  0.43653744  0.43294913  0.68447934  1
  Zn  Zn98  1  0.44619639  0.93627119  0.19227794  1
  Zn  Zn99  1  0.43452916  0.93242889  0.68767854  1
  Zn  Zn100  1  0.94295113  0.43270032  0.20069631  1
  Zn  Zn101  1  0.96399817  0.45675894  0.74774845  1
  Zn  Zn102  1  0.93397096  0.93688756  0.18396947  1
  Zn  Zn103  1  0.93417785  0.93260385  0.69131065  1
  Zn  Zn104  1  0.10186821  0.09782161  0.27985819  1
  Zn  Zn105  1  0.05759470  0.06337566  0.81051665  1
  Zn  Zn106  1  0.06867757  0.56109387  0.32355167  1
  Zn  Zn107  1  0.06005954  0.58676304  0.79276455  1
  Zn  Zn108  1  0.54800052  0.09268918  0.43628190  1
  Zn  Zn109  1  0.55647142  0.06416372  0.82110872  1
  Zn  Zn110  1  0.56411704  0.55655525  0.30845140  1
  Zn  Zn111  1  0.56109362  0.55926805  0.81059561  1
  Zn  Zn112  1  0.42999147  0.22478171  0.41105675  1
  Zn  Zn113  1  0.43372252  0.18396263  0.94429739  1
  Zn  Zn114  1  0.44542446  0.68230048  0.44946897  1
  Zn  Zn115  1  0.43750487  0.68960486  0.93395001  1
  Zn  Zn116  1  0.92274652  0.16829849  0.45105162  1
  Zn  Zn117  1  0.94111509  0.18809923  0.94042600  1
  Zn  Zn118  1  0.90085733  0.71746682  0.38692963  1
  Zn  Zn119  1  0.93566588  0.70164144  0.96643784  1
  Zn  Zn120  1  0.06901981  0.33617984  -0.00382040  1
  Zn  Zn121  1  0.08931799  0.34348787  0.52189463  1
  Zn  Zn122  1  0.04512348  0.81916193  0.06341799  1
  Zn  Zn123  1  0.05297006  0.81624450  0.56084119  1
  Zn  Zn124  1  0.56578849  0.32340159  0.07593304  1
  Zn  Zn125  1  0.54454238  0.27974321  0.53989335  1
  Zn  Zn126  1  0.55864479  0.81382148  0.06162480  1
  Zn  Zn127  1  0.57056451  0.80795955  0.56381450  1
  O  O128  1  0.09148577  0.12582941  0.14915153  1
  O  O129  1  0.13170997  0.10808120  0.61216217  1
  O  O130  1  0.11472422  0.62309882  0.11122189  1
  O  O131  1  0.13941819  0.61190560  0.61635098  1
  O  O132  1  0.58596215  0.12124473  0.15389775  1
  O  O133  1  0.59567487  0.04683410  0.54058956  1
  O  O134  1  0.60323691  0.61296112  0.12125032  1
  O  O135  1  0.61669135  0.61073376  0.61815880  1
  O  O136  1  0.40695554  0.33933702  0.37521061  1
  O  O137  1  0.38231605  0.37905430  0.88458097  1
  O  O138  1  0.39589641  0.87120080  0.38949189  1
  O  O139  1  0.38069352  0.88566945  0.87326795  1
  O  O140  1  0.88280993  0.39205458  0.37305423  1
  O  O141  1  0.83317578  0.33420758  0.94831703  1
  O  O142  1  0.85787766  0.81432847  0.43347209  1
  O  O143  1  0.88920825  0.89645297  0.85871153  1
  O  O144  1  0.25759695  0.00557744  0.37273320  1
  O  O145  1  0.25926010  -0.00726570  0.86637201  1
  O  O146  1  0.24870939  0.52079490  0.36669718  1
  O  O147  1  0.26748872  0.49739503  0.87393309  1
  O  O148  1  0.73762604  0.00659496  0.37262272  1
  O  O149  1  0.76284388  0.00787057  0.87057983  1
  O  O150  1  0.76156761  0.48994883  0.39065844  1
  O  O151  1  0.75050057  0.49138408  0.83894465  1
  O  O152  1  0.24753405  0.48833461  0.13169539  1
  O  O153  1  0.24126774  0.48606574  0.62791073  1
  O  O154  1  0.24730788  1.00785752  0.14459426  1
  O  O155  1  0.25576360  0.99572144  0.63462931  1
  O  O156  1  0.73730912  0.52827091  0.10077047  1
  O  O157  1  0.72975564  0.49489294  0.63530278  1
  O  O158  1  0.74863570  0.99829682  0.14075531  1
  O  O159  1  0.75635740  0.98364776  0.64311963  1
  O  O160  1  0.00450840  0.36247875  0.26753675  1
  O  O161  1  -0.09172567  0.35541338  0.80175291  1
  O  O162  1  0.00741580  0.85902258  0.24982859  1
  O  O163  1  0.01324959  0.88249849  0.75978139  1
  O  O164  1  0.49898145  0.39331656  0.25271402  1
  O  O165  1  0.50005289  0.36546060  0.76281103  1
  O  O166  1  0.50981096  0.86450271  0.26288334  1
  O  O167  1  0.50762399  0.87674487  0.75932308  1
  O  O168  1  0.53342092  0.12327473  0.20364721  1
  O  O169  1  0.48488147  0.13433449  0.75798203  1
  O  O170  1  0.49664312  0.63043934  0.24182329  1
  O  O171  1  0.49825705  0.63815101  0.75145694  1
  O  O172  1  0.98507406  0.11052588  0.27760262  1
  O  O173  1  0.95362921  0.08658667  0.75186228  1
  O  O174  1  1.01027982  0.62399576  0.24242121  1
  O  O175  1  0.97380484  0.65445424  0.74207262  1
  O  O176  1  0.36800516  0.26415002  0.00051412  1
  O  O177  1  0.35323232  0.24977242  0.51647324  1
  O  O178  1  0.38152899  0.76559298  0.00017240  1
  O  O179  1  0.38844678  0.75941228  0.51336604  1
  O  O180  1  0.86214522  0.27366382  -0.01051982  1
  O  O181  1  0.86918134  0.23910617  0.53284792  1
  O  O182  1  0.92761719  0.79910964  0.03130068  1
  O  O183  1  0.90535624  0.84971804  0.49205862  1
  O  O184  1  0.14399824  0.23362943  0.50820450  1
  O  O185  1  0.13078481  0.23555986  1.00584274  1
  O  O186  1  0.12363921  0.75594897  0.48984860  1
  O  O187  1  0.12649033  0.74621101  1.00219214  1
  O  O188  1  0.67124488  0.27210061  0.52301435  1
  O  O189  1  0.61461015  0.25558779  0.99193793  1
  O  O190  1  0.61291521  0.73069529  0.48605609  1
  O  O191  1  0.61249848  0.75404801  0.98233982  1
  O  O192  1  0.48314389  0.26250673  0.12300035  1
  O  O193  1  0.47459920  0.26371424  0.63838036  1
  O  O194  1  0.50088061  0.73775986  0.13739479  1
  O  O195  1  0.50173273  0.75086816  0.63867232  1
  O  O196  1  1.08395547  0.20151986  0.16114053  1
  O  O197  1  0.95886934  0.29255083  0.66674683  1
  O  O198  1  1.00936156  0.73576944  0.14404240  1
  O  O199  1  0.98311169  0.73003383  0.60799754  1
  O  O200  1  -0.02451284  0.27487974  0.41265367  1
  O  O201  1  0.01219631  0.24699635  0.87819936  1
  O  O202  1  0.01796804  0.73324707  0.36251311  1
  O  O203  1  -0.01079247  0.77024309  0.88368531  1
  O  O204  1  0.52613891  0.25493165  0.33859889  1
  O  O205  1  0.50328164  0.25343301  0.87269281  1
  O  O206  1  0.50682284  0.74093174  0.36252212  1
  O  O207  1  0.49852479  0.76035225  0.86274365  1
  O  O208  1  0.25066662  0.12822328  0.48967299  1
  O  O209  1  0.25198706  0.13052802  1.00060255  1
  O  O210  1  0.25712166  0.61879067  0.49407317  1
  O  O211  1  0.22764433  0.62593412  0.99475675  1
  O  O212  1  0.73875862  0.11182794  0.48999625  1
  O  O213  1  0.74695630  0.11740583  0.99406954  1
  O  O214  1  0.72935980  0.61901506  0.50760107  1
  O  O215  1  0.82450155  0.69746694  1.00062663  1
  O  O216  1  0.25970989  0.38381399  0.00309521  1
  O  O217  1  0.24137398  0.36113665  0.48337460  1
  O  O218  1  0.25685078  0.86532013  0.00086455  1
  O  O219  1  0.26762958  0.87496887  0.49001430  1
  O  O220  1  0.77513572  0.37376757  -0.01317249  1
  O  O221  1  0.71420060  0.33416152  0.51555284  1
  O  O222  1  0.76923397  0.86066888  -0.00595315  1
  O  O223  1  0.73743473  0.90013908  0.51803974  1
  O  O224  1  0.14432396  0.49667647  0.25736072  1
  O  O225  1  0.21110783  0.59117810  0.76558437  1
  O  O226  1  0.12621598  0.98317050  0.26013710  1
  O  O227  1  0.13425463  1.00415735  0.73276839  1
  O  O228  1  0.63936986  0.50776899  0.23579577  1
  O  O229  1  0.61638663  0.48486029  0.73737543  1
  O  O230  1  0.63322596  0.98002467  0.25062505  1
  O  O231  1  0.62570459  0.99059461  0.76235721  1
  O  O232  1  0.36554196  -0.00506779  0.24922242  1
  O  O233  1  0.36487778  0.00236611  0.75636657  1
  O  O234  1  0.34294131  0.46802824  0.25629183  1
  O  O235  1  0.38458417  0.49849217  0.76203323  1
  O  O236  1  0.86210953  -0.00036946  0.25682999  1
  O  O237  1  0.90012135  0.02576582  0.76236849  1
  O  O238  1  0.86923542  0.50580237  0.25564482  1
  O  O239  1  0.86483509  0.50686087  0.71813435  1
  O  O240  1  0.10311007  0.37644109  0.40071075  1
  O  O241  1  0.11890613  0.35235208  0.88977871  1
  O  O242  1  0.13044053  0.85473186  0.36427261  1
  O  O243  1  0.11742231  0.87949995  0.85659759  1
  O  O244  1  0.62361332  0.35535068  0.36588443  1
  O  O245  1  0.61493218  0.36309657  0.86990523  1
  O  O246  1  0.61502878  0.85568339  0.36898798  1
  O  O247  1  0.61541050  0.86824691  0.86715445  1
  O  O248  1  0.37667008  0.14296614  0.11371520  1
  O  O249  1  0.36475033  0.14365882  0.63834908  1
  O  O250  1  0.39099501  0.60932578  0.12172605  1
  O  O251  1  0.37419837  0.64067507  0.62081783  1
  O  O252  1  0.87766570  0.11730139  0.15063472  1
  O  O253  1  0.82878050  0.20486488  0.59307774  1
  O  O254  1  0.89580965  0.61767829  0.14191747  1
  O  O255  1  0.87644299  0.65120129  0.61237495  1
  O  O256  1  0.25612470  0.26467347  0.10273125  1
  O  O257  1  0.25338819  0.26124173  0.63486800  1
  O  O258  1  0.25854273  0.73619060  0.09765446  1
  O  O259  1  0.26523773  0.75511774  0.62453997  1
  O  O260  1  0.77245227  0.29155577  0.11897935  1
  O  O261  1  0.78913246  0.25893152  0.63466195  1
  O  O262  1  0.75699187  0.75160171  0.12955906  1
  O  O263  1  0.73181777  0.77128254  0.61826662  1
  O  O264  1  0.25010212  0.23776992  0.37715351  1
  O  O265  1  0.23675768  0.24990600  0.88989610  1
  O  O266  1  0.24173324  0.73651220  0.37078636  1
  O  O267  1  0.25982159  0.74811579  0.89675209  1
  O  O268  1  0.73800092  0.23873439  0.37206331  1
  O  O269  1  0.73188420  0.24067688  0.87998988  1
  O  O270  1  0.73452678  0.75464640  0.37376562  1
  O  O271  1  0.73167583  0.75160506  0.86917196  1
  O  O272  1  -0.00844806  0.11214737  0.00864271  1
  O  O273  1  0.01879902  0.13099114  0.49753886  1
  O  O274  1  0.00410416  0.61447224  0.00927205  1
  O  O275  1  -0.07085652  0.68828179  0.56530494  1
  O  O276  1  0.49746870  0.10470100  -0.00537138  1
  O  O277  1  0.50559832  0.18464188  0.48781886  1
  O  O278  1  0.49541489  0.61409334  0.00605641  1
  O  O279  1  0.51532678  0.59680576  0.48830003  1
  O  O280  1  0.51360223  0.37853128  0.48551901  1
  O  O281  1  0.49133965  0.38556589  0.99301969  1
  O  O282  1  0.51050054  0.87067602  0.48751494  1
  O  O283  1  0.48603642  0.88281368  0.99290004  1
  O  O284  1  0.97829905  0.33018999  0.47927336  1
  O  O285  1  0.98273725  0.40900396  0.99332994  1
  O  O286  1  0.98236638  0.85570468  0.47271208  1
  O  O287  1  1.02531114  0.89639328  0.97627936  1
  O  O288  1  0.51286673  0.48056758  0.38063774  1
  O  O289  1  0.49285855  0.49284967  0.88285918  1
  O  O290  1  0.51440357  0.99217994  0.38501702  1
  O  O291  1  0.48821777  0.99066251  0.88406391  1
  O  O292  1  0.99217098  0.48977811  0.37329993  1
  O  O293  1  0.98844912  0.50656533  0.85549668  1
  O  O294  1  0.94362646  0.99531049  0.43023906  1
  O  O295  1  0.99144676  1.00508048  0.88887106  1
  O  O296  1  0.00331317  -0.01672419  0.10736836  1
  O  O297  1  0.00478683  0.00152211  0.62154221  1
  O  O298  1  0.00835724  0.50299791  0.13419878  1
  O  O299  1  0.06405289  0.50494976  0.70482375  1
  O  O300  1  0.49905184  -0.00917877  0.10818457  1
  O  O301  1  0.50018040  0.02394837  0.63448398  1
  O  O302  1  0.50838514  0.50383835  0.11028259  1
  O  O303  1  0.51023247  0.48488539  0.61022297  1
  O  O304  1  0.22948006  0.35515630  0.22436946  1
  O  O305  1  0.23849498  0.37813015  0.75557852  1
  O  O306  1  0.24402060  0.88633809  0.25670218  1
  O  O307  1  0.23677820  0.88583441  0.75286564  1
  O  O308  1  0.80550147  0.35628383  0.15207777  1
  O  O309  1  0.72805990  0.35546708  0.74656635  1
  O  O310  1  0.74077228  0.88215409  0.27337100  1
  O  O311  1  0.73388385  0.86995707  0.74562666  1
  O  O312  1  0.23817394  0.11087373  0.26849105  1
  O  O313  1  0.25696531  0.10924158  0.74822690  1
  O  O314  1  0.25314662  0.61848698  0.24270101  1
  O  O315  1  0.25661090  0.64768403  0.75822566  1
  O  O316  1  0.75200077  0.10623418  0.25815441  1
  O  O317  1  0.75384841  0.13505666  0.77691323  1
  O  O318  1  0.76456768  0.63026486  0.24088700  1
  O  O319  1  0.75088983  0.62050417  0.73849407  1
  O  O320  1  0.36674808  0.13042843  0.37660886  1
  O  O321  1  0.37555436  0.10720228  0.86950230  1
  O  O322  1  0.36509333  0.63411554  0.37772476  1
  O  O323  1  0.37859412  0.61143801  0.87774796  1
  O  O324  1  0.85177878  0.12545102  0.37387153  1
  O  O325  1  0.86196552  0.11851701  0.88848094  1
  O  O326  1  0.87742376  0.60917110  0.36182131  1
  O  O327  1  0.91554543  0.68474940  0.78671132  1
  O  O328  1  0.12872779  0.37430293  0.09794502  1
  O  O329  1  0.13984834  0.37335590  0.62435917  1
  O  O330  1  0.12405597  0.86609698  0.14390451  1
  O  O331  1  0.11280697  0.88652613  0.63193333  1
  O  O332  1  0.63481852  0.40179873  0.11338100  1
  O  O333  1  0.61250695  0.36940345  0.63660903  1
  O  O334  1  0.62223083  0.86016546  0.14624840  1
  O  O335  1  0.61871131  0.87943426  0.64245290  1
  O  O336  1  0.11446715  0.22242922  0.23769403  1
  O  O337  1  0.11756191  0.25453910  0.74928160  1
  O  O338  1  0.12218195  0.75426163  0.25599482  1
  O  O339  1  0.12445318  0.76337801  0.73783627  1
  O  O340  1  0.65115276  0.25032272  0.23443389  1
  O  O341  1  0.60690763  0.25558391  0.75737750  1
  O  O342  1  0.61969668  0.74634729  0.25994743  1
  O  O343  1  0.60945655  0.76058761  0.75809829  1
  O  O344  1  0.35282780  0.25430023  0.22617611  1
  O  O345  1  0.37484062  0.24243561  0.75521826  1
  O  O346  1  0.38787192  0.75841306  0.25546294  1
  O  O347  1  0.38609304  0.76171726  0.73704615  1
  O  O348  1  0.86407422  0.22761864  0.25707592  1
  O  O349  1  0.89797734  0.28702051  0.77115905  1
  O  O350  1  0.89493747  0.73212240  0.26503662  1
  O  O351  1  0.87821670  0.74448636  0.75082723  1
  O  O352  1  0.39212396  0.49091034  0.50402835  1
  O  O353  1  0.38220189  0.49135483  0.99202521  1
  O  O354  1  0.38221217  0.98571194  0.50918943  1
  O  O355  1  0.36789640  0.98743723  0.98977524  1
  O  O356  1  0.88056787  0.50917546  0.49328745  1
  O  O357  1  0.88081749  0.52691758  0.97767399  1
  O  O358  1  0.89955745  1.00283992  0.48834558  1
  O  O359  1  0.87608237  0.99475644  0.99175862  1
  O  O360  1  0.12486723  0.01432814  -0.00214921  1
  O  O361  1  0.12748948  0.00292678  0.50974425  1
  O  O362  1  0.10826180  0.51243868  -0.02482040  1
  O  O363  1  0.10501653  0.48533530  0.52375634  1
  O  O364  1  0.61530077  -0.01045633  -0.00618118  1
  O  O365  1  0.54019368  -0.00711617  0.57460294  1
  O  O366  1  0.61232730  0.49796212  -0.01451881  1
  O  O367  1  0.62433237  0.49981738  0.51123708  1
  O  O368  1  0.37132634  0.37502502  0.10864817  1
  O  O369  1  0.35288137  0.36530427  0.63615553  1
  O  O370  1  0.37715064  0.87588775  0.11577396  1
  O  O371  1  0.38452135  0.86629766  0.61103382  1
  O  O372  1  0.87743913  0.37233901  0.12287269  1
  O  O373  1  0.96307482  0.36523466  0.65145879  1
  O  O374  1  0.85562488  0.86550783  0.13968147  1
  O  O375  1  0.86139138  0.86474886  0.63858477  1
  O  O376  1  0.13831075  0.11474608  0.39208581  1
  O  O377  1  0.12593411  0.13972610  0.85692122  1
  O  O378  1  0.13880801  0.63624246  0.37779687  1
  O  O379  1  0.10618363  0.63971278  0.88273031  1
  O  O380  1  0.63295403  0.14020161  0.36770271  1
  O  O381  1  0.62808290  0.13505026  0.88055172  1
  O  O382  1  0.62933435  0.62717119  0.37974943  1
  O  O383  1  0.61831685  0.63762543  0.86960970  1
