# generated using pymatgen
data_VZnO4
_symmetry_space_group_name_H-M   'P 1'
_cell_length_a   16.91671721
_cell_length_b   16.94050794
_cell_length_c   16.89874991
_cell_angle_alpha   89.79565673
_cell_angle_beta   89.85309870
_cell_angle_gamma   90.44750263
_symmetry_Int_Tables_number   1
_chemical_formula_structural   VZnO4
_chemical_formula_sum   'V64 Zn64 O256'
_cell_volume   4842.61149633
_cell_formula_units_Z   64
loop_
 _symmetry_equiv_pos_site_id
 _symmetry_equiv_pos_as_xyz
  1  'x, y, z'
loop_
 _atom_site_type_symbol
 _atom_site_label
 _atom_site_symmetry_multiplicity
 _atom_site_fract_x
 _atom_site_fract_y
 _atom_site_fract_z
 _atom_site_occupancy
  V  V0  1  0.61000636  0.73993395  0.90731339  1
  V  V1  1  0.27326267  -0.00368799  0.25630445  1
  V  V2  1  0.24110013  0.50643395  0.24925452  1
  V  V3  1  0.49794093  0.61596448  0.61740624  1
  V  V4  1  0.26085515  0.12130489  0.36429944  1
  V  V5  1  0.50402103  0.24818997  0.77671020  1
  V  V6  1  0.22610756  0.63374403  0.86850591  1
  V  V7  1  0.77490338  0.63060020  0.87371287  1
  V  V8  1  0.50888383  0.75520273  0.74495425  1
  V  V9  1  0.38107860  0.01178415  0.87386789  1
  V  V10  1  0.37399535  0.62758902  0.75179821  1
  V  V11  1  -0.00330288  0.75348302  0.25200402  1
  V  V12  1  0.25755997  0.24521033  0.49810478  1
  V  V13  1  0.11522575  0.51311543  0.10623901  1
  V  V14  1  0.65187179  0.63263717  0.51027326  1
  V  V15  1  0.11027747  0.38007553  0.23422855  1
  V  V16  1  0.79251010  0.62233006  0.34591534  1
  V  V17  1  0.49944116  -0.00723709  0.00973463  1
  V  V18  1  0.87483103  0.22924938  0.62282342  1
  V  V19  1  0.11200266  0.24581795  0.36008562  1
  V  V20  1  0.23890048  0.12858935  0.88191558  1
  V  V21  1  0.11440555  -0.00261508  0.62889043  1
  V  V22  1  0.49419132  0.13400903  0.12659607  1
  V  V23  1  0.73139763  -0.00474286  0.73718976  1
  V  V24  1  0.62945181  0.13331942  -0.00100330  1
  V  V25  1  0.13323452  0.74182421  0.38190444  1
  V  V26  1  0.77460478  0.76206724  0.00757390  1
  V  V27  1  0.36211435  0.74029297  0.12111456  1
  V  V28  1  0.76262183  0.12109765  0.88030395  1
  V  V29  1  0.76228423  0.26043606  0.00630982  1
  V  V30  1  0.14166366  0.00440769  0.12255834  1
  V  V31  1  0.25196726  0.37165154  0.61576458  1
  V  V32  1  0.65727489  0.49691013  0.63700714  1
  V  V33  1  0.85678083  -0.00740531  0.37112440  1
  V  V34  1  0.37211422  0.48591719  0.88156371  1
  V  V35  1  0.87919199  0.13280970  0.24017883  1
  V  V36  1  0.74502334  0.14238050  0.37789499  1
  V  V37  1  0.49331343  0.87289153  0.87153409  1
  V  V38  1  0.12159466  0.88097939  0.25332582  1
  V  V39  1  0.75498995  0.38118594  0.15671159  1
  V  V40  1  0.24823263  0.49507344  0.74012133  1
  V  V41  1  0.02883871  0.87023915  0.85887267  1
  V  V42  1  0.63764960  -0.00854077  0.13838480  1
  V  V43  1  0.37115418  0.47275187  0.36669172  1
  V  V44  1  0.37340870  0.75396762  0.61531837  1
  V  V45  1  0.37767801  0.88814434  0.48509050  1
  V  V46  1  0.25039963  0.87657032  0.62123424  1
  V  V47  1  0.26229869  0.00537852  0.74379859  1
  V  V48  1  0.52397798  0.25534793  0.25234507  1
  V  V49  1  0.51702752  0.00908360  0.50632254  1
  V  V50  1  0.86703137  -0.02045883  0.86441304  1
  V  V51  1  0.12566554  0.36209985  0.75670951  1
  V  V52  1  0.00010512  0.22311783  0.76318530  1
  V  V53  1  0.00575768  0.38542881  0.39743264  1
  V  V54  1  -0.00428192  -0.01167398  0.48542765  1
  V  V55  1  0.38919322  0.23939198  0.62760571  1
  V  V56  1  0.85522714  0.37218694  0.50261175  1
  V  V57  1  0.63291721  0.50809609  0.15624383  1
  V  V58  1  0.62404528  0.74675063  0.36914393  1
  V  V59  1  -0.01351310  -0.00346331  0.00310940  1
  V  V60  1  0.51766139  0.50023973  -0.00665943  1
  V  V61  1  0.11826735  0.12325490  0.50179129  1
  V  V62  1  0.82066265  0.81709211  0.18183196  1
  V  V63  1  -0.01003442  0.63990594  0.10871439  1
  Zn  Zn64  1  0.05010802  0.18198851  0.16296718  1
  Zn  Zn65  1  0.18818037  0.18432552  0.68797777  1
  Zn  Zn66  1  0.17378884  0.68359092  0.19328289  1
  Zn  Zn67  1  0.19585771  0.67887024  0.67037482  1
  Zn  Zn68  1  0.69409907  0.18279729  0.18719374  1
  Zn  Zn69  1  0.69851875  0.19530280  0.71372090  1
  Zn  Zn70  1  0.69108411  0.68684644  0.19671718  1
  Zn  Zn71  1  0.69242908  0.68669610  0.68877591  1
  Zn  Zn72  1  0.28272243  0.32586668  0.31689088  1
  Zn  Zn73  1  0.31509378  0.30335128  0.80519767  1
  Zn  Zn74  1  0.30333609  0.80742259  0.31317792  1
  Zn  Zn75  1  0.31353674  0.81630841  0.80768695  1
  Zn  Zn76  1  0.83053077  0.30849993  0.31502913  1
  Zn  Zn77  1  0.83673905  0.29768829  0.82846131  1
  Zn  Zn78  1  0.78005332  0.82093521  0.35974789  1
  Zn  Zn79  1  0.76361072  0.82932351  0.82740329  1
  Zn  Zn80  1  0.18461658  0.44029360  0.43767204  1
  Zn  Zn81  1  0.18806523  0.44407395  0.93093823  1
  Zn  Zn82  1  0.18700998  0.93405955  0.43569037  1
  Zn  Zn83  1  0.18915182  0.94399777  0.92905778  1
  Zn  Zn84  1  0.70566113  0.46083844  0.45014853  1
  Zn  Zn85  1  0.70748338  0.44951330  0.93944892  1
  Zn  Zn86  1  0.64451098  0.95810333  0.39134346  1
  Zn  Zn87  1  0.67607734  0.93322411  0.94467275  1
  Zn  Zn88  1  0.31236177  0.06769515  0.06444373  1
  Zn  Zn89  1  0.31718735  0.06354627  0.55340433  1
  Zn  Zn90  1  0.28853459  0.56007492  0.05334426  1
  Zn  Zn91  1  0.35831200  0.53018413  0.56761685  1
  Zn  Zn92  1  0.81476811  0.05371796  0.06343879  1
  Zn  Zn93  1  0.81186401  0.06521134  0.55650820  1
  Zn  Zn94  1  0.78380422  0.59062387  0.08814861  1
  Zn  Zn95  1  0.83018512  0.55640162  0.56572408  1
  Zn  Zn96  1  0.45972921  0.45848324  0.21679664  1
  Zn  Zn97  1  0.43026180  0.42662242  0.69595194  1
  Zn  Zn98  1  0.45966964  0.92242419  0.31168889  1
  Zn  Zn99  1  0.44491556  0.94279647  0.68354454  1
  Zn  Zn100  1  0.93466328  0.45255012  0.19594133  1
  Zn  Zn101  1  0.95056102  0.38022736  0.67046812  1
  Zn  Zn102  1  0.94562613  0.95259912  0.19268958  1
  Zn  Zn103  1  0.92976233  0.93104638  0.68966773  1
  Zn  Zn104  1  0.06142583  0.06396152  0.30969568  1
  Zn  Zn105  1  0.05959099  0.04928836  0.81693646  1
  Zn  Zn106  1  0.03639646  0.55980118  0.30554912  1
  Zn  Zn107  1  0.05829860  0.53971941  0.80362676  1
  Zn  Zn108  1  0.55716479  0.07455199  0.31143863  1
  Zn  Zn109  1  0.56653161  0.06699816  0.81415188  1
  Zn  Zn110  1  0.56207187  0.55828299  0.33912771  1
  Zn  Zn111  1  0.55866553  0.56092572  0.81144698  1
  Zn  Zn112  1  0.44455622  0.19207923  0.43264186  1
  Zn  Zn113  1  0.44191843  0.18888084  0.94010499  1
  Zn  Zn114  1  0.44030255  0.69672084  0.43717276  1
  Zn  Zn115  1  0.43997612  0.67283866  0.93813780  1
  Zn  Zn116  1  0.92725300  0.18115090  0.43985006  1
  Zn  Zn117  1  0.98372821  0.20555237  0.97654497  1
  Zn  Zn118  1  0.98329480  0.66668938  0.42959290  1
  Zn  Zn119  1  0.94900087  0.70292160  0.93133788  1
  Zn  Zn120  1  -0.09195328  0.27581677  0.12461830  1
  Zn  Zn121  1  0.06839671  0.30008472  0.57112747  1
  Zn  Zn122  1  0.05486138  0.83443583  0.07034500  1
  Zn  Zn123  1  0.06124170  0.80947988  0.55874222  1
  Zn  Zn124  1  0.54301338  0.34739356  0.10102828  1
  Zn  Zn125  1  0.57391070  0.32719177  0.65189666  1
  Zn  Zn126  1  0.52525364  0.83972616  0.12229040  1
  Zn  Zn127  1  0.54570768  0.79961992  0.53048486  1
  O  O128  1  0.12467719  0.10180411  0.13482373  1
  O  O129  1  0.13317057  0.10945167  0.60967109  1
  O  O130  1  0.11723041  0.61861310  0.11904889  1
  O  O131  1  0.12840413  0.61841270  0.59367506  1
  O  O132  1  0.62279403  0.11474036  0.11446911  1
  O  O133  1  0.62944315  0.18264391  0.54619670  1
  O  O134  1  0.66265454  0.60356351  0.12278684  1
  O  O135  1  0.61255626  0.62180241  0.62247972  1
  O  O136  1  0.36804691  0.37219790  0.37522599  1
  O  O137  1  0.36290859  0.38808518  0.86645409  1
  O  O138  1  0.37660850  0.86410466  0.38285003  1
  O  O139  1  0.38513516  0.88192783  0.87607486  1
  O  O140  1  0.89874229  0.36031414  0.39335451  1
  O  O141  1  0.90080474  0.38154903  0.88408316  1
  O  O142  1  0.86464484  0.89224953  0.37988976  1
  O  O143  1  0.86167772  0.87894836  0.87006171  1
  O  O144  1  0.24641316  0.01227228  0.36940162  1
  O  O145  1  0.26844764  0.00180613  0.86663679  1
  O  O146  1  0.25463648  0.48684484  0.35971583  1
  O  O147  1  0.25578033  0.51055381  0.85733012  1
  O  O148  1  0.75569411  0.00415709  0.37342319  1
  O  O149  1  0.75331619  -0.00292693  0.87479603  1
  O  O150  1  0.74919663  0.53515032  0.37755750  1
  O  O151  1  0.76261873  0.53041900  0.88524096  1
  O  O152  1  0.22449840  0.50365108  0.13379955  1
  O  O153  1  0.26975870  0.48074422  0.62521477  1
  O  O154  1  0.25243103  1.00810779  0.14678581  1
  O  O155  1  0.25219466  0.99411839  0.62651608  1
  O  O156  1  0.75341686  0.48560995  0.13222262  1
  O  O157  1  0.75472769  0.52349157  0.64644299  1
  O  O158  1  0.73689137  1.00055244  0.12567731  1
  O  O159  1  0.75440681  1.01764286  0.64152084  1
  O  O160  1  0.01069647  0.37930620  0.27347288  1
  O  O161  1  0.02587411  0.38714474  0.74861027  1
  O  O162  1  0.01534329  0.87198643  0.24412358  1
  O  O163  1  -0.00216581  0.87783785  0.76197810  1
  O  O164  1  0.48867013  0.34683134  0.21274393  1
  O  O165  1  0.50241269  0.35624567  0.73969554  1
  O  O166  1  0.47605616  0.85972070  0.22232020  1
  O  O167  1  0.49171735  0.86575341  0.75776609  1
  O  O168  1  0.50232898  0.14285800  0.23532404  1
  O  O169  1  0.50063673  0.14559715  0.76983086  1
  O  O170  1  0.46829570  0.64222675  0.28934090  1
  O  O171  1  0.48966651  0.63396442  0.73702572  1
  O  O172  1  0.99149017  0.12608164  0.24751302  1
  O  O173  1  1.00503942  0.12557015  0.74917895  1
  O  O174  1  1.00739048  0.65143570  0.23449131  1
  O  O175  1  0.97789215  0.57126985  0.71586068  1
  O  O176  1  0.35389705  0.23949831  -0.00058214  1
  O  O177  1  0.36103006  0.24607304  0.50050373  1
  O  O178  1  0.36767782  0.73142257  0.01533525  1
  O  O179  1  0.37778407  0.76152163  0.50847323  1
  O  O180  1  0.86257502  0.24061603  0.01192778  1
  O  O181  1  0.88525178  0.25460099  0.51612611  1
  O  O182  1  0.87243444  0.76946902  -0.00496794  1
  O  O183  1  0.96670212  0.73353458  0.52937876  1
  O  O184  1  0.13378743  0.23193939  0.50042812  1
  O  O185  1  0.17594910  0.30238872  1.00521537  1
  O  O186  1  0.12875212  0.76087821  0.48120171  1
  O  O187  1  0.15395660  0.78068803  0.99957141  1
  O  O188  1  0.62793081  0.23996719  0.50217193  1
  O  O189  1  0.64376646  0.23382770  1.00274548  1
  O  O190  1  0.63557677  0.73601043  0.51785102  1
  O  O191  1  0.60117132  0.74022089  1.00345567  1
  O  O192  1  0.51474707  0.23455737  0.11754582  1
  O  O193  1  0.48583854  0.25807368  0.60443663  1
  O  O194  1  0.46722005  0.73533823  0.12503734  1
  O  O195  1  0.49051661  0.74557314  0.62739335  1
  O  O196  1  1.00679680  0.24396319  0.08139555  1
  O  O197  1  0.99098407  0.26037861  0.64523007  1
  O  O198  1  1.00774243  0.74987745  0.12934315  1
  O  O199  1  1.04519875  0.74856141  0.66790931  1
  O  O200  1  0.01402020  0.24532757  0.38375919  1
  O  O201  1  -0.00572715  0.23658019  0.86471406  1
  O  O202  1  0.00696420  0.76137906  0.35413808  1
  O  O203  1  0.02144898  0.77178193  0.87977624  1
  O  O204  1  0.49454219  0.25234217  0.34906606  1
  O  O205  1  0.49906988  0.26410951  0.87604757  1
  O  O206  1  0.52678054  0.76447716  0.40008297  1
  O  O207  1  0.49754711  0.75267184  0.86891101  1
  O  O208  1  0.23983292  0.12696407  0.48801998  1
  O  O209  1  0.25517757  0.11809503  0.98117760  1
  O  O210  1  0.16913505  0.57700354  0.53707952  1
  O  O211  1  0.23795954  0.62183040  0.96813742  1
  O  O212  1  0.75759012  0.12411605  0.47860504  1
  O  O213  1  0.74403126  0.12340502  0.99886601  1
  O  O214  1  0.75110092  0.63178432  0.52005007  1
  O  O215  1  0.75990277  0.65169269  0.99067099  1
  O  O216  1  0.23229035  0.36190919  0.00561891  1
  O  O217  1  0.24033588  0.36231346  0.50922479  1
  O  O218  1  0.21015272  0.82427410  -0.02292219  1
  O  O219  1  0.26528817  0.88541946  0.50937458  1
  O  O220  1  0.75574888  0.35885319  -0.01433134  1
  O  O221  1  0.75701969  0.36516649  0.48187240  1
  O  O222  1  0.74023112  0.85714287  -0.00170950  1
  O  O223  1  0.75807955  0.88111083  0.54207059  1
  O  O224  1  0.12363025  0.49130828  0.25221198  1
  O  O225  1  0.14331759  0.48662477  0.74122977  1
  O  O226  1  0.12720870  0.99045667  0.24800845  1
  O  O227  1  0.13326741  1.00272793  0.72928474  1
  O  O228  1  0.62848546  0.51547934  0.25593492  1
  O  O229  1  0.61173725  0.50689465  0.72846450  1
  O  O230  1  0.61751167  1.00399940  0.23658241  1
  O  O231  1  0.63109009  1.00563105  0.74663270  1
  O  O232  1  0.37082147  -0.00691287  0.26228173  1
  O  O233  1  0.37506089  -0.00207757  0.76171586  1
  O  O234  1  0.34823194  0.48658656  0.24825415  1
  O  O235  1  0.36837776  0.50691057  0.75562211  1
  O  O236  1  0.88452227  0.00996384  0.26853324  1
  O  O237  1  0.86215895  -0.00473292  0.76124480  1
  O  O238  1  0.92792473  0.52528670  0.27866480  1
  O  O239  1  0.91934533  0.44848143  0.84365155  1
  O  O240  1  0.12007094  0.35591188  0.38066464  1
  O  O241  1  0.13958449  0.37194707  0.85547274  1
  O  O242  1  0.13177521  0.86393414  0.36212835  1
  O  O243  1  0.12752823  0.89474909  0.85021006  1
  O  O244  1  0.60350972  0.37955740  0.40554574  1
  O  O245  1  0.68235915  0.38486403  0.82891240  1
  O  O246  1  0.66417390  0.84401363  0.38484287  1
  O  O247  1  0.60372889  0.85670713  0.88587847  1
  O  O248  1  0.39537346  0.12621205  0.11729148  1
  O  O249  1  0.37251121  0.14007837  0.61683348  1
  O  O250  1  0.35443655  0.63432654  0.12248830  1
  O  O251  1  0.37762806  0.63466675  0.62857971  1
  O  O252  1  0.87514524  0.11243265  0.14036581  1
  O  O253  1  0.89069096  0.13113424  0.61582420  1
  O  O254  1  0.89064826  0.62695745  0.11610688  1
  O  O255  1  0.93911755  0.68074077  0.58624295  1
  O  O256  1  0.18235134  0.25136148  0.05911357  1
  O  O257  1  0.25676004  0.25159215  0.61733427  1
  O  O258  1  0.25709235  0.73936140  0.12353398  1
  O  O259  1  0.25783237  0.76729476  0.62781051  1
  O  O260  1  0.74711949  0.27064022  0.11739047  1
  O  O261  1  0.77379705  0.23266079  0.64085291  1
  O  O262  1  0.76040012  0.75115943  0.11884638  1
  O  O263  1  0.78854861  0.74189360  0.62853468  1
  O  O264  1  0.23548019  0.23983223  0.37870614  1
  O  O265  1  0.25336495  0.22693736  0.86107186  1
  O  O266  1  0.23243416  0.73347834  0.36260581  1
  O  O267  1  0.24576355  0.73220856  0.84620867  1
  O  O268  1  0.75699493  0.24230338  0.37217172  1
  O  O269  1  0.76464366  0.22970933  0.88928398  1
  O  O270  1  0.74084454  0.71340724  0.37638701  1
  O  O271  1  0.72611604  0.74729338  0.89420864  1
  O  O272  1  0.01285736  0.09133222  -0.01744135  1
  O  O273  1  0.01577250  0.11538760  0.49549943  1
  O  O274  1  0.00555812  0.64262254  0.00931945  1
  O  O275  1  -0.06352248  0.60730590  0.55468884  1
  O  O276  1  0.51423071  0.12255088  0.00410638  1
  O  O277  1  0.50026948  0.10662105  0.47932771  1
  O  O278  1  0.48138186  0.59497668  0.00797550  1
  O  O279  1  0.49493647  0.63154082  0.51725705  1
  O  O280  1  0.54642707  0.37208921  0.45125269  1
  O  O281  1  0.48519686  0.40704511  1.02366734  1
  O  O282  1  0.48433923  0.88831835  0.50383300  1
  O  O283  1  0.49765734  0.89107015  1.00233431  1
  O  O284  1  1.01221489  0.36861695  0.49906360  1
  O  O285  1  0.92030337  0.45934014  1.01897031  1
  O  O286  1  1.00108729  0.89096500  0.50386666  1
  O  O287  1  1.02490079  0.89596428  0.97805128  1
  O  O288  1  0.47274097  0.48900725  0.33320174  1
  O  O289  1  0.48345416  0.50027306  0.88330962  1
  O  O290  1  0.52735336  0.98334478  0.37668919  1
  O  O291  1  0.49442712  0.99384190  0.87985615  1
  O  O292  1  1.02070187  0.48342326  0.39695470  1
  O  O293  1  0.98044853  0.48845843  0.87607450  1
  O  O294  1  1.00253178  0.99626169  0.38430078  1
  O  O295  1  0.98076730  0.98390342  0.87400742  1
  O  O296  1  0.01567314  -0.01274555  0.10629718  1
  O  O297  1  0.01206198  -0.00868114  0.62045921  1
  O  O298  1  0.00760920  0.52265186  0.12704752  1
  O  O299  1  -0.07390872  0.52105037  0.69317877  1
  O  O300  1  0.50475910  0.01277563  0.11235310  1
  O  O301  1  0.49626911  0.00665981  0.60724202  1
  O  O302  1  0.52987708  0.50562880  0.13327025  1
  O  O303  1  0.47199671  0.51545048  0.62203990  1
  O  O304  1  0.21928359  0.37910191  0.24301421  1
  O  O305  1  0.24663458  0.37485710  0.73782070  1
  O  O306  1  0.24443711  0.89220745  0.25997670  1
  O  O307  1  0.25908807  0.88925854  0.73087960  1
  O  O308  1  0.75453072  0.37509260  0.25548105  1
  O  O309  1  0.74208970  0.37200307  0.78485306  1
  O  O310  1  0.75783962  0.85678162  0.24679482  1
  O  O311  1  0.73880728  0.89227296  0.74202633  1
  O  O312  1  0.25206496  0.11271952  0.26297120  1
  O  O313  1  0.24882972  0.10902795  0.75342945  1
  O  O314  1  0.23351614  0.60559365  0.25499662  1
  O  O315  1  0.25778636  0.61334392  0.74148239  1
  O  O316  1  0.76911404  0.12985706  0.25743068  1
  O  O317  1  0.74560542  0.11243108  0.77518215  1
  O  O318  1  0.78246385  0.63008963  0.24477265  1
  O  O319  1  0.74699844  0.64755676  0.77694354  1
  O  O320  1  0.35825098  0.13463502  0.37612897  1
  O  O321  1  0.37441572  0.11329875  0.87432251  1
  O  O322  1  0.40793481  0.64481890  0.33646706  1
  O  O323  1  0.36982417  0.61999591  0.85888550  1
  O  O324  1  0.86825549  0.11887593  0.36463201  1
  O  O325  1  0.86076952  0.10027241  0.88646706  1
  O  O326  1  0.88393898  0.63611795  0.38693820  1
  O  O327  1  0.87489581  0.64553296  0.86794432  1
  O  O328  1  0.09685072  0.39415180  0.13607136  1
  O  O329  1  0.14530203  0.36334786  0.63533262  1
  O  O330  1  0.13341643  0.88637433  0.14303095  1
  O  O331  1  0.14146408  0.88824467  0.61153523  1
  O  O332  1  0.64465638  0.39509721  0.13291039  1
  O  O333  1  0.65195882  0.39758447  0.61642419  1
  O  O334  1  0.62167221  0.89145404  0.12043817  1
  O  O335  1  0.69762460  0.87451821  0.58140792  1
  O  O336  1  0.11399582  0.25876999  0.25709838  1
  O  O337  1  0.11245771  0.25288667  0.74658338  1
  O  O338  1  0.11976324  0.76379432  0.25324729  1
  O  O339  1  0.10184842  0.73863313  0.71793964  1
  O  O340  1  0.62327407  0.25433521  0.24791863  1
  O  O341  1  0.60721463  0.25063185  0.73593855  1
  O  O342  1  0.61690474  0.73137608  0.26943827  1
  O  O343  1  0.60916788  0.75045454  0.74054259  1
  O  O344  1  0.34021055  0.29069591  0.12096630  1
  O  O345  1  0.39202351  0.24795455  0.73629300  1
  O  O346  1  0.36049356  0.74951728  0.22413845  1
  O  O347  1  0.38185378  0.74398391  0.73713974  1
  O  O348  1  0.88483786  0.23951896  0.23769858  1
  O  O349  1  0.89355549  0.25159191  0.74343452  1
  O  O350  1  0.88979759  0.76616370  0.24274131  1
  O  O351  1  0.83890989  0.78620658  0.67149185  1
  O  O352  1  0.37211138  0.51851191  0.45811984  1
  O  O353  1  0.35031609  0.49611330  0.97979604  1
  O  O354  1  0.38031481  0.99076582  0.48816751  1
  O  O355  1  0.39000133  1.00772389  0.98770755  1
  O  O356  1  0.87066629  0.47236887  0.50142248  1
  O  O357  1  0.86915999  0.50472456  0.99576152  1
  O  O358  1  0.88949002  1.00959182  0.48555761  1
  O  O359  1  0.88306201  0.99093911  0.99470162  1
  O  O360  1  0.15633547  -0.00952142  0.02354437  1
  O  O361  1  0.11776001  0.00649657  0.50216146  1
  O  O362  1  0.12194246  0.49781060  0.00765155  1
  O  O363  1  0.12772305  0.51336874  0.51357040  1
  O  O364  1  0.61275691  0.00761990  0.00537319  1
  O  O365  1  0.61678998  -0.00693523  0.50172766  1
  O  O366  1  0.61900698  0.49857447  -0.01194074  1
  O  O367  1  0.63694016  0.52001891  0.52367311  1
  O  O368  1  0.37552078  0.29475788  0.05531022  1
  O  O369  1  0.35974784  0.35730999  0.62533954  1
  O  O370  1  0.36086384  0.84250313  0.10432189  1
  O  O371  1  0.36836231  0.87192319  0.61446642  1
  O  O372  1  0.86486116  0.38039520  0.14069631  1
  O  O373  1  0.86188610  0.36279445  0.61117845  1
  O  O374  1  0.87061452  0.88807965  0.13168131  1
  O  O375  1  0.87721669  0.84194189  0.62645963  1
  O  O376  1  0.12990215  0.13393367  0.38014764  1
  O  O377  1  0.14073008  0.10519735  0.87254072  1
  O  O378  1  0.09000432  0.64137408  0.38203437  1
  O  O379  1  0.12713012  0.61703541  0.84917120  1
  O  O380  1  0.64528289  0.12519871  0.36343311  1
  O  O381  1  0.63905359  0.11461446  0.89428846  1
  O  O382  1  0.61475600  0.63193077  0.40633309  1
  O  O383  1  0.60694682  0.64163339  0.87746949  1
