# generated using pymatgen
data_VZnO4
_symmetry_space_group_name_H-M   'P 1'
_cell_length_a   17.06675905
_cell_length_b   16.96384312
_cell_length_c   16.89388440
_cell_angle_alpha   90.18482533
_cell_angle_beta   89.68098259
_cell_angle_gamma   90.30976725
_symmetry_Int_Tables_number   1
_chemical_formula_structural   VZnO4
_chemical_formula_sum   'V64 Zn64 O256'
_cell_volume   4890.90836262
_cell_formula_units_Z   64
loop_
 _symmetry_equiv_pos_site_id
 _symmetry_equiv_pos_as_xyz
  1  'x, y, z'
loop_
 _atom_site_type_symbol
 _atom_site_label
 _atom_site_symmetry_multiplicity
 _atom_site_fract_x
 _atom_site_fract_y
 _atom_site_fract_z
 _atom_site_occupancy
  V  V0  1  0.86624755  -0.02247045  0.86527055  1
  V  V1  1  0.38581038  0.37556789  0.01352963  1
  V  V2  1  0.83776058  0.87880335  0.00971888  1
  V  V3  1  -0.00119795  0.75595871  0.23962188  1
  V  V4  1  0.12807348  0.49849132  0.63391500  1
  V  V5  1  0.25829986  0.37201139  0.12809392  1
  V  V6  1  -0.00898868  0.62045651  0.63355978  1
  V  V7  1  0.87227305  -0.00392839  0.37559979  1
  V  V8  1  0.13360494  0.01697982  0.11602520  1
  V  V9  1  0.75991149  0.60330854  0.37450793  1
  V  V10  1  0.36927610  0.75183788  0.13153484  1
  V  V11  1  0.24170374  0.35245498  0.63016058  1
  V  V12  1  0.25354820  0.51315101  0.25189455  1
  V  V13  1  0.24477791  0.75903213  0.49990346  1
  V  V14  1  0.85048243  0.76014150  0.12957632  1
  V  V15  1  0.27190954  0.00179714  0.75292028  1
  V  V16  1  0.75573797  0.63540859  0.86101922  1
  V  V17  1  0.11763149  -0.01488854  0.64750265  1
  V  V18  1  0.62760160  0.38769381  0.75872539  1
  V  V19  1  0.87624179  0.87254794  0.49614606  1
  V  V20  1  0.61808036  0.23989456  0.86829722  1
  V  V21  1  0.01175037  -0.00688413  0.49141064  1
  V  V22  1  0.62077093  0.00208046  0.12949771  1
  V  V23  1  0.60871042  0.50846965  0.62475665  1
  V  V24  1  0.75730511  0.00275631  0.23951592  1
  V  V25  1  -0.00096193  0.12250475  0.11569775  1
  V  V26  1  0.86572287  0.48232584  0.83771602  1
  V  V27  1  0.87045873  0.74540661  0.63251185  1
  V  V28  1  0.62284432  0.12670548  0.02236918  1
  V  V29  1  -0.00767446  0.49513928  0.48456771  1
  V  V30  1  0.61843163  0.62082863  0.49540931  1
  V  V31  1  0.37648621  0.74112297  0.63876147  1
  V  V32  1  0.22480287  0.61323338  0.88555435  1
  V  V33  1  0.38622811  -0.02328170  0.34818950  1
  V  V34  1  0.87045025  0.37169093  0.49020483  1
  V  V35  1  0.10410238  0.76332398  0.38696571  1
  V  V36  1  0.63430626  0.63107425  0.01339312  1
  V  V37  1  0.61725880  0.87067687  0.72225154  1
  V  V38  1  0.75131822  0.75005272  0.48974429  1
  V  V39  1  0.74065189  0.38503256  0.12249723  1
  V  V40  1  0.83812677  0.23711790  0.62477978  1
  V  V41  1  0.87762813  0.61559298  0.24916433  1
  V  V42  1  0.87797049  0.25734397  0.11531285  1
  V  V43  1  0.12460747  0.61925168  0.49099004  1
  V  V44  1  0.11792360  0.89648870  0.25440025  1
  V  V45  1  0.37019879  -0.02255020  0.90357808  1
  V  V46  1  0.88151365  0.13941667  0.25253986  1
  V  V47  1  0.73714324  0.14009943  0.37623940  1
  V  V48  1  0.61248838  0.75492213  0.87124164  1
  V  V49  1  0.37486352  0.53475172  0.38295602  1
  V  V50  1  0.62437555  0.38301406  0.26771057  1
  V  V51  1  0.63473846  0.87057237  0.26649177  1
  V  V52  1  0.49486416  0.39548545  0.87229272  1
  V  V53  1  0.49938204  0.25773247  0.23291156  1
  V  V54  1  0.01731923  0.12785055  0.61965795  1
  V  V55  1  0.11018362  0.38578981  0.27222370  1
  V  V56  1  0.36734640  0.34510061  0.48003163  1
  V  V57  1  0.41311483  0.25236399  0.67323647  1
  V  V58  1  0.25124222  0.86614896  0.63982351  1
  V  V59  1  0.00220414  0.25278760  0.74949755  1
  V  V60  1  0.38020255  0.60271284  0.76715141  1
  V  V61  1  0.51229665  0.50741836  0.02735395  1
  V  V62  1  0.75549954  0.25364579  -0.01163874  1
  V  V63  1  0.75160851  0.39237482  0.62848467  1
  Zn  Zn64  1  0.17786658  0.20398852  0.19785700  1
  Zn  Zn65  1  0.18470370  0.17719298  0.70152092  1
  Zn  Zn66  1  0.18485991  0.69713705  0.19536659  1
  Zn  Zn67  1  0.19505158  0.66560820  0.70843478  1
  Zn  Zn68  1  0.69354059  0.20186330  0.19345852  1
  Zn  Zn69  1  0.61940206  0.21353216  0.66414583  1
  Zn  Zn70  1  0.68506728  0.68278346  0.20357523  1
  Zn  Zn71  1  0.68500218  0.69160917  0.68552440  1
  Zn  Zn72  1  0.30095279  0.29673367  0.30033253  1
  Zn  Zn73  1  0.29522744  0.43678680  0.81478086  1
  Zn  Zn74  1  0.28790340  0.81364280  0.31326845  1
  Zn  Zn75  1  0.28097223  0.79977230  0.83123127  1
  Zn  Zn76  1  0.80317026  0.31909887  0.30504235  1
  Zn  Zn77  1  0.81211059  0.30298888  0.80338132  1
  Zn  Zn78  1  0.80620746  0.81219714  0.31307469  1
  Zn  Zn79  1  0.80077939  0.81094424  0.81135329  1
  Zn  Zn80  1  0.20635597  0.43328656  0.43679135  1
  Zn  Zn81  1  0.19214474  0.46825803  0.98490536  1
  Zn  Zn82  1  0.22527520  0.97457925  0.47629285  1
  Zn  Zn83  1  0.19420342  1.07315170  0.91872323  1
  Zn  Zn84  1  0.69016900  0.43718641  0.44348861  1
  Zn  Zn85  1  0.69847427  0.45103003  0.94224935  1
  Zn  Zn86  1  0.68547471  0.94808286  0.45035770  1
  Zn  Zn87  1  0.69405774  0.94166208  0.84943727  1
  Zn  Zn88  1  0.30668610  0.04577286  0.06276439  1
  Zn  Zn89  1  0.35219425  0.13242533  0.53349464  1
  Zn  Zn90  1  0.32228890  0.55495491  0.06052338  1
  Zn  Zn91  1  0.31014678  0.56904534  0.56356248  1
  Zn  Zn92  1  0.81209592  0.07061534  0.04865759  1
  Zn  Zn93  1  0.78088702  0.05659834  0.55548513  1
  Zn  Zn94  1  0.80468329  0.57885859  0.06631090  1
  Zn  Zn95  1  0.81330560  0.56101949  0.56133432  1
  Zn  Zn96  1  0.43789278  0.44266621  0.20619272  1
  Zn  Zn97  1  0.43329198  0.43056577  0.68241114  1
  Zn  Zn98  1  0.47154227  0.90866868  0.15896732  1
  Zn  Zn99  1  0.41173988  0.87249397  0.75810913  1
  Zn  Zn100  1  0.94069674  0.43209955  0.18007467  1
  Zn  Zn101  1  0.94320365  0.43152501  0.67735825  1
  Zn  Zn102  1  0.93962301  0.93978753  0.18534851  1
  Zn  Zn103  1  0.92868982  0.93727664  0.67188741  1
  Zn  Zn104  1  0.05273525  0.07803284  0.31560140  1
  Zn  Zn105  1  0.03197304  0.06612681  0.80932664  1
  Zn  Zn106  1  0.06348325  0.56653274  0.30491750  1
  Zn  Zn107  1  0.04921828  0.55607455  0.82018999  1
  Zn  Zn108  1  0.57083218  0.07582179  0.30614091  1
  Zn  Zn109  1  0.55072673  0.04366899  0.81979175  1
  Zn  Zn110  1  0.56892094  0.54297314  0.32670134  1
  Zn  Zn111  1  0.56625969  0.57409069  0.81029515  1
  Zn  Zn112  1  0.47909145  0.19873692  0.43749282  1
  Zn  Zn113  1  0.43788659  0.18564160  0.94837675  1
  Zn  Zn114  1  0.43884690  0.70676834  0.44389845  1
  Zn  Zn115  1  0.44515454  0.67774753  0.94087380  1
  Zn  Zn116  1  0.89411240  0.16343551  0.47027109  1
  Zn  Zn117  1  1.03591898  0.18884319  0.92726642  1
  Zn  Zn118  1  0.93622990  0.68111324  0.43936207  1
  Zn  Zn119  1  0.92032447  0.69694749  0.94477312  1
  Zn  Zn120  1  0.07608009  0.32367234  0.09921315  1
  Zn  Zn121  1  0.06223826  0.31579253  0.55348475  1
  Zn  Zn122  1  0.07536678  0.82435303  0.07067267  1
  Zn  Zn123  1  0.08164233  0.77941134  0.63615053  1
  Zn  Zn124  1  0.56743416  0.31445428  0.05606109  1
  Zn  Zn125  1  0.54620575  0.34202381  0.56184635  1
  Zn  Zn126  1  0.62350750  0.84707685  0.02688193  1
  Zn  Zn127  1  0.55504183  0.80625592  0.54894533  1
  O  O128  1  0.10745954  0.12804453  0.14009483  1
  O  O129  1  0.11785531  0.10232980  0.62513992  1
  O  O130  1  0.12938069  0.65724401  0.09447999  1
  O  O131  1  0.10690178  0.61491043  0.61161670  1
  O  O132  1  0.63132832  0.12647687  0.12580011  1
  O  O133  1  0.62381550  0.18052157  0.54585006  1
  O  O134  1  0.64167258  0.63260917  0.11381790  1
  O  O135  1  0.62734766  0.61436567  0.61508747  1
  O  O136  1  0.34516673  0.36487081  0.38357559  1
  O  O137  1  0.39439127  0.38874231  0.88212033  1
  O  O138  1  0.38358265  0.86840100  0.34651281  1
  O  O139  1  0.36498535  0.87774075  0.86632405  1
  O  O140  1  0.86574551  0.35989146  0.39179407  1
  O  O141  1  0.86523852  0.38438279  0.86105824  1
  O  O142  1  0.86972432  0.88747133  0.37947297  1
  O  O143  1  0.86097240  0.86921518  0.89980066  1
  O  O144  1  0.28137281  -0.03304304  0.36499064  1
  O  O145  1  0.26436817  -0.00541178  0.86274197  1
  O  O146  1  0.26000013  0.50554899  0.36435965  1
  O  O147  1  0.22363912  0.49373562  0.87616316  1
  O  O148  1  0.76591967  0.01714440  0.36449145  1
  O  O149  1  0.77358536  0.01776332  0.87440211  1
  O  O150  1  0.76267209  0.50508921  0.37983059  1
  O  O151  1  0.77117354  0.51752581  0.88071004  1
  O  O152  1  0.27085979  0.49724792  0.14497580  1
  O  O153  1  0.22710631  0.51309518  0.62302797  1
  O  O154  1  0.23017475  1.02721848  0.14218494  1
  O  O155  1  0.22943299  0.98165553  0.64273570  1
  O  O156  1  0.76890620  0.47997979  0.10524246  1
  O  O157  1  0.74244012  0.49382668  0.62307924  1
  O  O158  1  0.75670371  1.01608522  0.13886269  1
  O  O159  1  0.73167516  1.06031909  0.69618423  1
  O  O160  1  0.01078782  0.40255259  0.26423618  1
  O  O161  1  -0.00006627  0.35230132  0.73140612  1
  O  O162  1  0.00607281  0.86542050  0.25056569  1
  O  O163  1  0.00247549  0.84241125  0.76724748  1
  O  O164  1  0.51806950  0.37366397  0.24891491  1
  O  O165  1  0.51285053  0.38569855  0.76384248  1
  O  O166  1  0.53592854  0.87154986  0.24437444  1
  O  O167  1  0.51853869  0.86688684  0.74198186  1
  O  O168  1  0.51186372  0.15260483  0.25489617  1
  O  O169  1  0.53990725  0.09926600  0.68892494  1
  O  O170  1  0.53665740  0.65010349  0.26498384  1
  O  O171  1  0.47857951  0.61687559  0.74935525  1
  O  O172  1  0.98461389  0.13427044  0.24201613  1
  O  O173  1  0.98220574  0.12216576  0.71709485  1
  O  O174  1  0.98520399  0.64111568  0.25519772  1
  O  O175  1  0.99693179  0.61763314  0.73125448  1
  O  O176  1  0.39546328  0.27668090  -0.00132629  1
  O  O177  1  0.36962009  0.24250331  0.48026130  1
  O  O178  1  0.38585990  0.74834139  0.02845550  1
  O  O179  1  0.34500765  0.73897678  0.51827436  1
  O  O180  1  0.85953607  0.24435323  0.00831270  1
  O  O181  1  0.88133205  0.26602796  0.52221718  1
  O  O182  1  0.86448566  0.76160369  0.02225209  1
  O  O183  1  0.86889245  0.75423975  0.49907666  1
  O  O184  1  0.12018083  0.23862807  0.48141008  1
  O  O185  1  0.08889498  0.27280949  0.99186028  1
  O  O186  1  0.12022461  0.74366319  0.49555430  1
  O  O187  1  0.12238108  0.70972297  1.04053285  1
  O  O188  1  0.59533947  0.23420394  0.49980006  1
  O  O189  1  0.63624473  0.24263719  0.98830113  1
  O  O190  1  0.64678546  0.72938518  0.50800122  1
  O  O191  1  0.62153958  0.73367184  0.99211132  1
  O  O192  1  0.50638965  0.25652953  0.13033768  1
  O  O193  1  0.51440384  0.26074544  0.64049581  1
  O  O194  1  0.46539080  0.74528821  0.16108686  1
  O  O195  1  0.47157170  0.74944485  0.61779141  1
  O  O196  1  0.98097225  0.24640691  0.11673327  1
  O  O197  1  1.01141579  0.23144547  0.61777323  1
  O  O198  1  1.00275335  0.75544990  0.13873454  1
  O  O199  1  0.98387524  0.72990455  0.61440750  1
  O  O200  1  0.07859558  0.21074090  0.41978354  1
  O  O201  1  -0.02688754  0.23645343  0.84554321  1
  O  O202  1  0.00279536  0.75153384  0.37423324  1
  O  O203  1  0.01839011  0.75996021  0.93463105  1
  O  O204  1  0.52023339  0.24711292  0.35115772  1
  O  O205  1  0.52238478  0.27319788  0.88594636  1
  O  O206  1  0.51419983  0.70353749  0.31105629  1
  O  O207  1  0.51303400  0.74402674  0.87845793  1
  O  O208  1  0.26665458  0.07249702  0.50473269  1
  O  O209  1  0.28813245  0.11997229  0.97312931  1
  O  O210  1  0.22498426  0.63929353  0.50873205  1
  O  O211  1  0.23810910  0.58131304  0.99100539  1
  O  O212  1  0.77794353  0.13861997  0.47178977  1
  O  O213  1  0.73722424  0.14308408  1.00161297  1
  O  O214  1  0.75816685  0.62742858  0.48581522  1
  O  O215  1  0.73819246  0.62352966  0.98745957  1
  O  O216  1  0.28654332  0.39141577  0.00331809  1
  O  O217  1  0.26809309  0.37962514  0.52205958  1
  O  O218  1  0.17490955  0.86078770  -0.01332589  1
  O  O219  1  0.24091935  0.86632201  0.51800039  1
  O  O220  1  0.74542830  0.36017150  0.00389540  1
  O  O221  1  0.76220422  0.37989116  0.51197961  1
  O  O222  1  0.74146242  0.87633940  0.01397587  1
  O  O223  1  0.75948739  0.85446073  0.49304228  1
  O  O224  1  0.13647219  0.49225739  0.25438112  1
  O  O225  1  0.11019333  0.50150259  0.73172355  1
  O  O226  1  0.11712137  0.99769756  0.26592410  1
  O  O227  1  0.10311570  0.99187011  0.74552802  1
  O  O228  1  0.62770912  0.48511912  0.25115074  1
  O  O229  1  0.62269019  0.49919047  0.73382135  1
  O  O230  1  0.64531384  1.00888041  0.24448495  1
  O  O231  1  0.61938014  0.97510272  0.76678804  1
  O  O232  1  0.38863243  -0.03464842  0.24218937  1
  O  O233  1  0.36834529  -0.00881678  0.73918570  1
  O  O234  1  0.36349104  0.50662072  0.26592308  1
  O  O235  1  0.37264387  0.49846350  0.75120910  1
  O  O236  1  0.87220546  0.01173671  0.25387134  1
  O  O237  1  0.87451379  -0.04877909  0.76587874  1
  O  O238  1  0.88639276  0.51945975  0.23008697  1
  O  O239  1  0.86784219  0.49218795  0.73713361  1
  O  O240  1  0.13367367  0.37021215  0.36958195  1
  O  O241  1  0.14839027  0.31192723  0.93576429  1
  O  O242  1  0.11335273  0.86288116  0.36706550  1
  O  O243  1  0.17182420  0.84024283  0.91556365  1
  O  O244  1  0.63305368  0.37709725  0.36887683  1
  O  O245  1  0.62984918  0.38681400  0.86497756  1
  O  O246  1  0.63803861  0.89615050  0.36626115  1
  O  O247  1  0.62753575  0.85612891  0.90013897  1
  O  O248  1  0.38710479  0.11600353  0.12683021  1
  O  O249  1  0.37093283  0.16731190  0.63924952  1
  O  O250  1  0.36438527  0.64682589  0.12316544  1
  O  O251  1  0.35411694  0.63640768  0.64738734  1
  O  O252  1  0.88162941  0.13262607  0.13182246  1
  O  O253  1  0.84572239  0.13656185  0.61167561  1
  O  O254  1  0.86115532  0.64877466  0.14280644  1
  O  O255  1  0.88353514  0.62996373  0.61865194  1
  O  O256  1  0.25001309  0.27237658  0.12507713  1
  O  O257  1  0.22353708  0.25477681  0.62585353  1
  O  O258  1  0.26237840  0.75074424  0.12453749  1
  O  O259  1  0.23705387  0.75935874  0.62250403  1
  O  O260  1  0.75741129  0.26051496  0.11352184  1
  O  O261  1  0.73987507  0.26229582  0.62678570  1
  O  O262  1  0.75465338  0.76307922  0.13971220  1
  O  O263  1  0.76677469  0.73278691  0.60901527  1
  O  O264  1  0.23550619  0.20643900  0.29236996  1
  O  O265  1  0.20184016  0.26694074  0.91325203  1
  O  O266  1  0.23203865  0.76036685  0.39454428  1
  O  O267  1  0.25246121  0.71267751  0.89573156  1
  O  O268  1  0.74089153  0.23847444  0.35758794  1
  O  O269  1  0.73951894  0.25362502  0.88143971  1
  O  O270  1  0.75739266  0.73702478  0.38639370  1
  O  O271  1  0.73468563  0.74019029  0.87534704  1
  O  O272  1  -0.00369248  0.12778936  0.01722126  1
  O  O273  1  -0.01715100  0.10461306  0.51753677  1
  O  O274  1  -0.03108114  0.60549153  0.01376243  1
  O  O275  1  0.00227161  0.61040661  0.50365244  1
  O  O276  1  0.52571242  0.13416307  0.00002715  1
  O  O277  1  0.45714094  0.10904258  0.49528453  1
  O  O278  1  0.51511323  0.61378385  0.00650014  1
  O  O279  1  0.52271167  0.63224962  0.48750234  1
  O  O280  1  0.46472353  0.37274708  0.49502669  1
  O  O281  1  0.50664209  0.39262803  0.99250985  1
  O  O282  1  0.49776692  0.79946994  0.45612478  1
  O  O283  1  0.51395009  0.86254895  1.06185964  1
  O  O284  1  0.98629849  0.38561440  0.50256482  1
  O  O285  1  1.00899842  0.43570745  1.00533283  1
  O  O286  1  0.98589358  0.89217014  0.49487337  1
  O  O287  1  1.01186550  0.82835452  0.97304415  1
  O  O288  1  0.47320180  0.51044053  0.37020909  1
  O  O289  1  0.51200138  0.49469746  0.87901561  1
  O  O290  1  0.48748976  0.99473107  0.34061061  1
  O  O291  1  0.46202623  1.01052934  0.87616660  1
  O  O292  1  1.00088085  0.50566198  0.38681214  1
  O  O293  1  0.95549815  0.51866643  0.86826984  1
  O  O294  1  0.98536761  1.01332965  0.38804650  1
  O  O295  1  1.04710594  0.86811675  0.81863412  1
  O  O296  1  0.00467557  0.01899547  0.13098006  1
  O  O297  1  0.00827925  -0.00292853  0.61445568  1
  O  O298  1  0.02084379  0.43016537  0.09290427  1
  O  O299  1  0.00626807  0.50508600  0.61035509  1
  O  O300  1  0.52216574  0.00951194  0.13911430  1
  O  O301  1  0.53957964  0.05385066  0.63046490  1
  O  O302  1  0.50929876  0.49966807  0.12631863  1
  O  O303  1  0.51091808  0.49206880  0.62117182  1
  O  O304  1  0.24005478  0.38599515  0.23681870  1
  O  O305  1  0.24892773  0.37769528  0.72716121  1
  O  O306  1  0.21313865  0.86514700  0.24842037  1
  O  O307  1  0.24356261  0.87895698  0.74662720  1
  O  O308  1  0.73946668  0.37643601  0.23236278  1
  O  O309  1  0.73870832  0.37704906  0.73528827  1
  O  O310  1  0.75502726  0.89948299  0.25322375  1
  O  O311  1  0.72269600  0.87074944  0.75550485  1
  O  O312  1  0.35062501  0.14846650  0.18215327  1
  O  O313  1  0.24780287  0.09882806  0.74701302  1
  O  O314  1  0.23340485  0.61211038  0.24772822  1
  O  O315  1  0.26208614  0.61042621  0.77597280  1
  O  O316  1  0.76172647  0.12175558  0.25715531  1
  O  O317  1  0.70151636  0.12313530  0.71977061  1
  O  O318  1  0.76292701  0.62468737  0.26582755  1
  O  O319  1  0.74084468  0.62610632  0.76146494  1
  O  O320  1  0.36283474  0.07571737  0.34345474  1
  O  O321  1  0.35621656  0.10470023  0.92098984  1
  O  O322  1  0.37457996  0.63601207  0.38428901  1
  O  O323  1  0.37891407  0.61723061  0.86966991  1
  O  O324  1  0.88009722  0.12655720  0.35855629  1
  O  O325  1  0.94401962  0.04013925  0.87644306  1
  O  O326  1  0.86970236  0.62399927  0.36188873  1
  O  O327  1  0.85725706  0.64958356  0.86806709  1
  O  O328  1  0.16867693  0.40144531  0.08269262  1
  O  O329  1  0.13516982  0.38845800  0.60903088  1
  O  O330  1  0.11246833  0.90740749  0.13849574  1
  O  O331  1  0.12263674  0.88352730  0.62478076  1
  O  O332  1  0.64058159  0.38196983  0.11676394  1
  O  O333  1  0.63232467  0.38973922  0.62555959  1
  O  O334  1  0.64210965  0.90121977  0.13806382  1
  O  O335  1  0.61975626  0.86132369  0.62105724  1
  O  O336  1  0.11044096  0.29981422  0.20871967  1
  O  O337  1  0.10077064  0.23315835  0.75212273  1
  O  O338  1  0.10681884  0.74718517  0.26365531  1
  O  O339  1  0.12243173  0.74168885  0.73187066  1
  O  O340  1  0.62048798  0.27373437  0.23878871  1
  O  O341  1  0.62975392  0.26921109  0.76483277  1
  O  O342  1  0.65704378  0.77271737  0.26393785  1
  O  O343  1  0.62293876  0.75792217  0.76019098  1
  O  O344  1  0.40121073  0.27480975  0.24997400  1
  O  O345  1  0.40624342  0.24856599  0.77010429  1
  O  O346  1  0.34760466  0.74962649  0.23652588  1
  O  O347  1  0.36497464  0.75578843  0.74381027  1
  O  O348  1  0.86581553  0.24181078  0.23602505  1
  O  O349  1  0.87500637  0.24960472  0.72170007  1
  O  O350  1  0.88434385  0.75725678  0.24319739  1
  O  O351  1  0.86715441  0.75774422  0.73066718  1
  O  O352  1  0.36118725  0.50926539  0.48425743  1
  O  O353  1  0.40589487  0.49619408  1.00816220  1
  O  O354  1  0.40564419  0.97009438  0.45042126  1
  O  O355  1  0.36376711  0.96823412  1.00374461  1
  O  O356  1  0.88480955  0.48741141  0.50135116  1
  O  O357  1  0.91838310  0.55037117  1.02664070  1
  O  O358  1  0.86807203  0.98780243  0.49397319  1
  O  O359  1  0.86444272  0.97938302  1.00219834  1
  O  O360  1  0.13940050  0.01873692  0.01702729  1
  O  O361  1  0.11114124  -0.00671479  0.49100726  1
  O  O362  1  0.06594331  0.47022863  -0.03025959  1
  O  O363  1  0.11679955  0.50985877  0.49666226  1
  O  O364  1  0.63529086  0.02067927  0.02045571  1
  O  O365  1  0.68742309  0.00319152  0.54340786  1
  O  O366  1  0.62022390  0.51435096  -0.00015279  1
  O  O367  1  0.62961875  0.50982843  0.51220101  1
  O  O368  1  0.37501204  0.38223882  0.12108399  1
  O  O369  1  0.36657087  0.34508449  0.63192681  1
  O  O370  1  0.36831236  0.85566030  0.12646534  1
  O  O371  1  0.35262048  0.86043587  0.63189436  1
  O  O372  1  0.86650655  0.35908438  0.12985208  1
  O  O373  1  0.85562269  0.37118905  0.62040609  1
  O  O374  1  0.87635383  0.86993270  0.11825031  1
  O  O375  1  0.88112570  0.85576522  0.60846826  1
  O  O376  1  0.11682199  0.15192027  0.38165472  1
  O  O377  1  0.10744673  0.11931367  0.87258218  1
  O  O378  1  0.11459396  0.63764219  0.38766886  1
  O  O379  1  0.12529220  0.61866784  0.87511553  1
  O  O380  1  0.64117932  0.11264725  0.38620937  1
  O  O381  1  0.60740417  0.14023491  0.85903347  1
  O  O382  1  0.64548539  0.61005519  0.38825674  1
  O  O383  1  0.63280706  0.63617514  0.87860341  1
