# generated using pymatgen
data_VZnO4
_symmetry_space_group_name_H-M   'P 1'
_cell_length_a   16.89262848
_cell_length_b   17.00064265
_cell_length_c   16.89356372
_cell_angle_alpha   90.02484515
_cell_angle_beta   90.03375053
_cell_angle_gamma   90.14455462
_symmetry_Int_Tables_number   1
_chemical_formula_structural   VZnO4
_chemical_formula_sum   'V64 Zn64 O256'
_cell_volume   4851.57048153
_cell_formula_units_Z   64
loop_
 _symmetry_equiv_pos_site_id
 _symmetry_equiv_pos_as_xyz
  1  'x, y, z'
loop_
 _atom_site_type_symbol
 _atom_site_label
 _atom_site_symmetry_multiplicity
 _atom_site_fract_x
 _atom_site_fract_y
 _atom_site_fract_z
 _atom_site_occupancy
  V  V0  1  0.11405478  -0.00786078  0.62522057  1
  V  V1  1  0.36909097  0.00141685  0.86011480  1
  V  V2  1  0.61636614  0.12978224  0.01799634  1
  V  V3  1  -0.01257060  0.39050328  0.86265954  1
  V  V4  1  0.63231874  0.25879832  0.37776878  1
  V  V5  1  0.41803050  0.43902238  0.94600547  1
  V  V6  1  0.59854425  0.26382494  0.88566926  1
  V  V7  1  0.75209940  0.11665153  0.37639185  1
  V  V8  1  0.27217263  0.11360515  0.38414245  1
  V  V9  1  0.34819743  0.38435933  0.51290812  1
  V  V10  1  -0.02885001  0.61080260  0.61892183  1
  V  V11  1  0.50554169  0.38262737  0.40447031  1
  V  V12  1  0.51258205  0.77165465  0.25256427  1
  V  V13  1  0.62137829  0.49562876  0.12936164  1
  V  V14  1  0.86508735  0.75635738  0.12423088  1
  V  V15  1  0.61988283  0.00155237  0.61303417  1
  V  V16  1  0.25835778  0.87774933  0.61408402  1
  V  V17  1  0.13154374  0.84182373  0.74899777  1
  V  V18  1  0.48180516  0.12679829  0.13747512  1
  V  V19  1  0.22384838  -0.00526553  0.25047306  1
  V  V20  1  0.51715231  0.87254113  0.86750760  1
  V  V21  1  0.75086871  0.75590863  0.52323704  1
  V  V22  1  0.36222205  0.61733877  0.75885539  1
  V  V23  1  0.25207473  0.28102599  0.03705939  1
  V  V24  1  0.75219604  0.75641472  -0.01205562  1
  V  V25  1  0.88515438  0.16001749  0.24566361  1
  V  V26  1  0.75532304  0.13933962  0.87483641  1
  V  V27  1  0.13058715  0.42691563  0.74186250  1
  V  V28  1  -0.00036316  0.49579628  0.48002760  1
  V  V29  1  0.88158383  -0.00825478  0.35342608  1
  V  V30  1  0.85573464  0.37833129  0.51776960  1
  V  V31  1  0.00826200  0.61263982  0.11907306  1
  V  V32  1  -0.01640882  0.74131711  0.75988714  1
  V  V33  1  0.50445182  0.63108939  0.13735375  1
  V  V34  1  0.13538817  0.23116321  0.40819952  1
  V  V35  1  0.75863954  0.26657567  0.00718507  1
  V  V36  1  -0.00202945  0.00891845  0.50030767  1
  V  V37  1  0.37155570  0.74755565  0.62078246  1
  V  V38  1  0.60716910  0.37201471  0.74195359  1
  V  V39  1  0.48776503  0.27534344  0.24266117  1
  V  V40  1  0.51762186  0.75067971  0.74786374  1
  V  V41  1  0.61885537  0.62227988  -0.00838197  1
  V  V42  1  0.62770231  0.61883022  0.49719407  1
  V  V43  1  0.49480281  0.12772045  0.65466425  1
  V  V44  1  0.74720244  -0.00815385  0.74820250  1
  V  V45  1  0.21067659  0.59177718  0.35101587  1
  V  V46  1  0.74844871  0.50511325  0.26224115  1
  V  V47  1  0.13170913  0.26694610  0.82759842  1
  V  V48  1  0.24282692  0.74208003  -0.00895749  1
  V  V49  1  0.36303285  0.24393692  0.62808431  1
  V  V50  1  0.38492193  0.51350111  0.36449841  1
  V  V51  1  0.74559911  0.48656842  0.73763342  1
  V  V52  1  0.87770322  0.87365219  0.52517855  1
  V  V53  1  0.77206638  0.38170496  0.12740158  1
  V  V54  1  0.11616363  0.76735073  0.37658014  1
  V  V55  1  -0.00063204  -0.01625884  -0.01643335  1
  V  V56  1  0.50831239  0.61196460  0.62361174  1
  V  V57  1  0.00241247  0.75749289  0.25232883  1
  V  V58  1  0.37707100  0.87242789  -0.00950162  1
  V  V59  1  0.25097656  0.73785528  0.48414931  1
  V  V60  1  0.63919092  0.76555654  0.37144378  1
  V  V61  1  0.86984748  0.61802213  0.25967014  1
  V  V62  1  0.75904469  0.60621647  0.87675589  1
  V  V63  1  0.37481752  0.75532620  0.12871737  1
  Zn  Zn64  1  0.30396634  0.18806284  0.20324033  1
  Zn  Zn65  1  0.14287278  0.20485552  0.61934978  1
  Zn  Zn66  1  0.18756957  0.68984646  0.18727237  1
  Zn  Zn67  1  0.15904693  0.63074837  0.69957620  1
  Zn  Zn68  1  0.68419782  0.20398553  0.20260090  1
  Zn  Zn69  1  0.65349091  0.16138793  0.72069908  1
  Zn  Zn70  1  0.68785834  0.68923090  0.18617093  1
  Zn  Zn71  1  0.69284131  0.67412428  0.69202539  1
  Zn  Zn72  1  0.31714965  0.30937583  0.33930024  1
  Zn  Zn73  1  0.30877868  0.31261915  0.80563740  1
  Zn  Zn74  1  0.30717972  0.80912940  0.29594046  1
  Zn  Zn75  1  0.31185576  0.80269148  0.80740562  1
  Zn  Zn76  1  0.81538440  0.32605959  0.31115424  1
  Zn  Zn77  1  0.79899543  0.29956573  0.80417161  1
  Zn  Zn78  1  0.83290787  0.79840720  0.33113761  1
  Zn  Zn79  1  0.79756597  0.81152491  0.81306781  1
  Zn  Zn80  1  0.18037695  0.44348815  0.42423249  1
  Zn  Zn81  1  0.25134221  0.42892675  0.89767143  1
  Zn  Zn82  1  0.19079800  0.93850528  0.43736832  1
  Zn  Zn83  1  0.19426583  0.91974263  0.93173890  1
  Zn  Zn84  1  0.68897397  0.43326720  0.44488972  1
  Zn  Zn85  1  0.67893538  0.43792247  0.94273386  1
  Zn  Zn86  1  0.69553947  0.93930562  0.44348573  1
  Zn  Zn87  1  0.69050455  0.94344517  1.04534575  1
  Zn  Zn88  1  0.34068745  0.03081741  0.08458670  1
  Zn  Zn89  1  0.27904125  0.09133434  0.59758497  1
  Zn  Zn90  1  0.31692485  0.56103490  0.03482253  1
  Zn  Zn91  1  0.30883029  0.56684317  0.56031332  1
  Zn  Zn92  1  0.80289286  0.09466003  0.07861833  1
  Zn  Zn93  1  0.80705491  0.06324686  0.56253985  1
  Zn  Zn94  1  0.81348816  0.56954782  0.06824093  1
  Zn  Zn95  1  0.80319734  0.55921481  0.55816651  1
  Zn  Zn96  1  0.42017118  0.45231644  0.16534198  1
  Zn  Zn97  1  0.42610840  0.43531506  0.68582454  1
  Zn  Zn98  1  0.50787897  0.91821590  0.13975183  1
  Zn  Zn99  1  0.44217273  0.93779505  0.68683395  1
  Zn  Zn100  1  0.94724246  0.43929173  0.04532959  1
  Zn  Zn101  1  0.93094042  0.42428937  0.68206505  1
  Zn  Zn102  1  0.95908360  0.93206118  0.17580771  1
  Zn  Zn103  1  0.91827953  0.91196911  0.72765835  1
  Zn  Zn104  1  0.06378138  0.07270478  0.31685392  1
  Zn  Zn105  1  0.05440398  0.03594548  0.78493152  1
  Zn  Zn106  1  0.04772476  0.56752600  0.31599649  1
  Zn  Zn107  1  -0.07647977  0.56196513  0.79749596  1
  Zn  Zn108  1  0.54386652  0.09805516  0.33332829  1
  Zn  Zn109  1  0.56707204  0.05904634  0.83167424  1
  Zn  Zn110  1  0.56556945  0.56844584  0.31850086  1
  Zn  Zn111  1  0.54938107  0.54798179  0.81412480  1
  Zn  Zn112  1  0.42658834  0.20371078  0.43919881  1
  Zn  Zn113  1  0.42119144  0.18516979  0.94942579  1
  Zn  Zn114  1  0.45445182  0.70540488  0.44329044  1
  Zn  Zn115  1  0.43902584  0.69280520  0.93569423  1
  Zn  Zn116  1  0.94766372  0.18815210  0.42216504  1
  Zn  Zn117  1  0.96313924  0.16479020  0.87856465  1
  Zn  Zn118  1  0.93316109  0.68735713  0.44251466  1
  Zn  Zn119  1  0.93550429  0.68450491  0.94315036  1
  Zn  Zn120  1  0.10395345  0.32218592  -0.01440886  1
  Zn  Zn121  1  0.06366726  0.34165539  0.57305500  1
  Zn  Zn122  1  0.06288835  0.80913251  0.07270652  1
  Zn  Zn123  1  0.06599100  0.81525327  0.55539877  1
  Zn  Zn124  1  0.54991806  0.31611724  0.06199209  1
  Zn  Zn125  1  0.56436656  0.29182361  0.56877348  1
  Zn  Zn126  1  0.56743573  0.80087106  0.04512321  1
  Zn  Zn127  1  0.56089724  0.81589484  0.56167316  1
  O  O128  1  0.18025189  0.09508598  0.07262636  1
  O  O129  1  0.15214106  0.08753016  0.62672622  1
  O  O130  1  0.10774493  0.62639589  0.14129768  1
  O  O131  1  0.07520688  0.66419865  0.61152343  1
  O  O132  1  0.62627294  0.13828438  0.12165239  1
  O  O133  1  0.59912770  0.13309424  0.62309451  1
  O  O134  1  0.61966899  0.62283798  0.11723998  1
  O  O135  1  0.61628436  0.62847184  0.61631952  1
  O  O136  1  0.38541023  0.38941486  0.39643905  1
  O  O137  1  0.37062167  0.37037630  0.88360757  1
  O  O138  1  0.38472950  0.89103740  0.37161135  1
  O  O139  1  0.37811569  0.87462050  0.87856664  1
  O  O140  1  0.88275538  0.34500959  0.40778946  1
  O  O141  1  0.90255092  0.33728023  0.84257745  1
  O  O142  1  0.86274948  0.89343506  0.38093422  1
  O  O143  1  0.88326259  0.88160712  0.83271287  1
  O  O144  1  0.24626907  0.00565458  0.36468867  1
  O  O145  1  0.26972570  -0.01178561  0.88400765  1
  O  O146  1  0.27785069  0.51145558  0.38939254  1
  O  O147  1  0.32568952  0.50688963  0.93341307  1
  O  O148  1  0.76052088  0.01093213  0.37244305  1
  O  O149  1  0.74562736  0.03881462  0.85179972  1
  O  O150  1  0.74085550  0.49483621  0.36028476  1
  O  O151  1  0.74805085  0.50461401  0.87804492  1
  O  O152  1  0.18899734  0.48537171  0.11920402  1
  O  O153  1  0.21210608  0.57724400  0.61168063  1
  O  O154  1  0.26482097  0.99538496  0.15519052  1
  O  O155  1  0.25915063  0.97767522  0.61805534  1
  O  O156  1  0.73952951  0.49314726  0.13213746  1
  O  O157  1  0.73716160  0.50444996  0.63994339  1
  O  O158  1  0.78288752  0.98892959  0.08914837  1
  O  O159  1  0.73081502  1.01600948  0.63484820  1
  O  O160  1  0.04363003  0.34425073  0.24464283  1
  O  O161  1  0.01828507  0.39602136  0.75127224  1
  O  O162  1  -0.01493388  0.85319418  0.26110400  1
  O  O163  1  0.01699413  0.84539150  0.73198274  1
  O  O164  1  0.48213169  0.37440690  0.22960426  1
  O  O165  1  0.50733977  0.38354891  0.74762743  1
  O  O166  1  0.51620294  0.87030881  0.24615187  1
  O  O167  1  0.49884957  0.85901138  0.75359514  1
  O  O168  1  0.49705610  0.14289591  0.24266288  1
  O  O169  1  0.49988010  0.12961675  0.75356479  1
  O  O170  1  0.51150170  0.63917793  0.23999075  1
  O  O171  1  0.50177494  0.63298620  0.73798466  1
  O  O172  1  0.98175109  0.12725636  0.26062849  1
  O  O173  1  0.97712485  0.10916135  0.78217629  1
  O  O174  1  0.98465474  0.63009431  0.24466431  1
  O  O175  1  0.98556248  0.63233073  0.73279956  1
  O  O176  1  0.33235534  0.23744457  -0.00639918  1
  O  O177  1  0.37341810  0.27410685  0.50834097  1
  O  O178  1  0.36704200  0.75078008  0.01006287  1
  O  O179  1  0.36127420  0.73853696  0.50586745  1
  O  O180  1  0.85416139  0.26084526  0.00830075  1
  O  O181  1  0.87650500  0.27704941  0.45897925  1
  O  O182  1  0.86321181  0.74405113  0.01221272  1
  O  O183  1  0.86109555  0.76205135  0.49577506  1
  O  O184  1  0.14143878  0.25712246  0.50666326  1
  O  O185  1  0.16336758  0.23205703  1.01891717  1
  O  O186  1  0.13740864  0.75289910  0.48580141  1
  O  O187  1  0.14577971  0.76707319  1.01403916  1
  O  O188  1  0.60944460  0.24479677  0.47557509  1
  O  O189  1  0.62234981  0.25274076  0.99863415  1
  O  O190  1  0.64135065  0.75403488  0.49468998  1
  O  O191  1  0.64374139  0.73055945  1.00163364  1
  O  O192  1  0.49768346  0.24782390  0.14055618  1
  O  O193  1  0.48167404  0.23305315  0.62080525  1
  O  O194  1  0.50933193  0.74558710  0.13655146  1
  O  O195  1  0.49197170  0.74704362  0.63408295  1
  O  O196  1  1.02955097  0.22165865  0.11807195  1
  O  O197  1  1.03336281  0.23822875  0.60592591  1
  O  O198  1  0.99120903  0.74376517  0.14010076  1
  O  O199  1  1.01794402  0.72688857  0.62178669  1
  O  O200  1  0.03767505  0.24827103  0.38298811  1
  O  O201  1  0.05438723  0.22889277  0.88639814  1
  O  O202  1  0.00753531  0.74384240  0.36895279  1
  O  O203  1  -0.00547677  0.73384127  0.85943880  1
  O  O204  1  0.49566198  0.27793582  0.36820823  1
  O  O205  1  0.50077133  0.24820190  0.89133112  1
  O  O206  1  0.51498460  0.75256783  0.35501756  1
  O  O207  1  0.49966506  0.75274189  0.85320811  1
  O  O208  1  0.26564934  0.09898969  0.48419024  1
  O  O209  1  0.23079589  0.08834912  1.02022204  1
  O  O210  1  0.24980445  0.63725422  0.46596205  1
  O  O211  1  0.24801257  0.64453937  1.02357183  1
  O  O212  1  0.76500187  0.13258115  0.47533853  1
  O  O213  1  0.73605221  0.15074803  1.00228114  1
  O  O214  1  0.73779731  0.64277086  0.50750670  1
  O  O215  1  0.74147424  0.62563865  0.98920987  1
  O  O216  1  0.21803569  0.37519851  -0.00340578  1
  O  O217  1  0.24992757  0.38389586  0.49763043  1
  O  O218  1  0.27078596  0.86038320  0.00009752  1
  O  O219  1  0.25142669  0.86375271  0.50837525  1
  O  O220  1  0.74293451  0.37672733  0.01848157  1
  O  O221  1  0.75425779  0.37274880  0.51126965  1
  O  O222  1  0.74342185  0.85368617  -0.01511616  1
  O  O223  1  0.76116886  0.86569189  0.50692625  1
  O  O224  1  0.14992010  0.51337318  0.31638408  1
  O  O225  1  0.12358728  0.52543369  0.75048018  1
  O  O226  1  0.12248514  1.00535132  0.24818618  1
  O  O227  1  0.11946024  0.96703843  0.72951021  1
  O  O228  1  0.63759020  0.51530251  0.23984341  1
  O  O229  1  0.62961862  0.48132087  0.76112401  1
  O  O230  1  0.72095398  0.97413475  0.20913397  1
  O  O231  1  0.63962349  1.03672362  0.74165965  1
  O  O232  1  0.40531461  -0.05613676  0.32538087  1
  O  O233  1  0.37184012  -0.00641123  0.75864961  1
  O  O234  1  0.37902917  0.50134928  0.26511294  1
  O  O235  1  0.37401431  0.51821202  0.74098364  1
  O  O236  1  0.89224043  -0.01189226  0.25433785  1
  O  O237  1  0.84755523  0.00511748  0.73117261  1
  O  O238  1  0.86056995  0.51451083  0.25172937  1
  O  O239  1  0.85242112  0.48816481  0.74481743  1
  O  O240  1  0.15574868  0.34560024  0.35469848  1
  O  O241  1  0.10539658  0.37088912  0.85471984  1
  O  O242  1  0.11654677  0.86576005  0.37921090  1
  O  O243  1  0.14243496  0.86094089  0.84648056  1
  O  O244  1  0.61146737  0.37292428  0.38120989  1
  O  O245  1  0.61267789  0.36727585  0.88230869  1
  O  O246  1  0.63301205  0.86491740  0.38093091  1
  O  O247  1  0.61242902  0.87509676  0.87645347  1
  O  O248  1  0.37858444  0.13293988  0.12475009  1
  O  O249  1  0.38704008  0.12920209  0.62339803  1
  O  O250  1  0.39912755  0.64496048  0.11962077  1
  O  O251  1  0.38894930  0.63453322  0.62534959  1
  O  O252  1  0.87277112  0.14739676  0.14502687  1
  O  O253  1  0.88710720  0.13909329  0.61121539  1
  O  O254  1  0.88214377  0.63509560  0.13638460  1
  O  O255  1  0.87172841  0.62840810  0.62161574  1
  O  O256  1  0.26418578  0.27462553  0.13888128  1
  O  O257  1  0.26356581  0.21432586  0.61641630  1
  O  O258  1  0.27353586  0.75396424  0.13832191  1
  O  O259  1  0.26389910  0.74859743  0.60595003  1
  O  O260  1  0.74014935  0.27737649  0.12552379  1
  O  O261  1  0.85113846  0.19273403  0.65807750  1
  O  O262  1  0.75889057  0.74675406  0.11461710  1
  O  O263  1  0.74662381  0.75155283  0.62188094  1
  O  O264  1  0.24566169  0.22405719  0.37504840  1
  O  O265  1  0.22581402  0.25132842  0.86081109  1
  O  O266  1  0.24158523  0.76465768  0.37982119  1
  O  O267  1  0.25419948  0.74404326  0.89108220  1
  O  O268  1  0.73236285  0.26876096  0.37110265  1
  O  O269  1  0.73643476  0.26255453  0.89931484  1
  O  O270  1  0.74059733  0.74993962  0.37586161  1
  O  O271  1  0.75557107  0.73169442  0.88319094  1
  O  O272  1  0.00738762  0.08712815  -0.03383646  1
  O  O273  1  -0.00914585  0.10714757  0.49814180  1
  O  O274  1  0.00113581  0.63696081  0.02073728  1
  O  O275  1  -0.02234428  0.60480933  0.50554477  1
  O  O276  1  0.50674922  0.14165707  0.02496201  1
  O  O277  1  0.50866954  0.12057687  0.46308480  1
  O  O278  1  0.51540199  0.63971619  0.00905082  1
  O  O279  1  0.51537364  0.63394149  0.51507183  1
  O  O280  1  0.50652252  0.38047880  0.50341853  1
  O  O281  1  0.47684696  0.37934242  1.00601516  1
  O  O282  1  0.48226244  0.81719227  0.48290644  1
  O  O283  1  0.48794472  0.84553579  0.97305748  1
  O  O284  1  0.98671562  0.39441224  0.50967319  1
  O  O285  1  1.00604065  0.37379635  0.97280946  1
  O  O286  1  0.98130358  0.87392591  0.50335607  1
  O  O287  1  0.99233427  0.88013705  1.00207422  1
  O  O288  1  0.49956620  0.48486164  0.37120602  1
  O  O289  1  0.48483060  0.49575238  0.89395759  1
  O  O290  1  0.51071024  1.00515155  0.39875253  1
  O  O291  1  0.49246287  0.97730036  0.86590157  1
  O  O292  1  0.98315251  0.49818171  0.38075771  1
  O  O293  1  0.97132337  0.48805176  0.87136994  1
  O  O294  1  0.98540137  1.00052339  0.38783152  1
  O  O295  1  1.02367069  0.97312214  0.87951484  1
  O  O296  1  -0.01357156  0.01145088  0.08327214  1
  O  O297  1  0.01088992  -0.00093715  0.61716810  1
  O  O298  1  -0.00193903  0.51193904  0.12049042  1
  O  O299  1  -0.01237710  0.51148772  0.62434569  1
  O  O300  1  0.49033528  0.02733733  0.13847095  1
  O  O301  1  0.50548070  0.01828776  0.63117422  1
  O  O302  1  0.51403990  0.52221320  0.13676815  1
  O  O303  1  0.49881015  0.51499632  0.62760076  1
  O  O304  1  0.21396219  0.35490408  0.30005976  1
  O  O305  1  0.23040072  0.40424163  0.78311007  1
  O  O306  1  0.24371267  0.89372113  0.26438769  1
  O  O307  1  0.24132273  0.85029696  0.72507358  1
  O  O308  1  0.75718624  0.39432975  0.23911501  1
  O  O309  1  0.73543763  0.38161215  0.75497720  1
  O  O310  1  0.72000218  0.90583800  0.23260417  1
  O  O311  1  0.73429239  0.89400413  0.75962902  1
  O  O312  1  0.25634139  0.10500964  0.26492128  1
  O  O313  1  0.22007897  0.09830385  0.79275734  1
  O  O314  1  0.25029375  0.63526452  0.26998747  1
  O  O315  1  0.26322380  0.63211457  0.75280550  1
  O  O316  1  0.76869160  0.14915163  0.26650298  1
  O  O317  1  0.75331975  0.17857518  0.77643082  1
  O  O318  1  0.75832383  0.61648627  0.24365917  1
  O  O319  1  0.73831200  0.60515394  0.76922018  1
  O  O320  1  0.37291165  0.12673687  0.37238065  1
  O  O321  1  0.38847496  0.09682225  0.88643184  1
  O  O322  1  0.40615070  0.60944909  0.38374665  1
  O  O323  1  0.38447529  0.63343498  0.85637503  1
  O  O324  1  0.87077023  0.11243177  0.36257699  1
  O  O325  1  0.85340992  0.14910987  0.89579115  1
  O  O326  1  0.87186293  0.63577452  0.35853176  1
  O  O327  1  0.86194807  0.61895440  0.87865723  1
  O  O328  1  0.08139531  0.37407585  0.19073840  1
  O  O329  1  0.13438984  0.40195332  0.64416359  1
  O  O330  1  0.06464995  0.90109982  0.13738720  1
  O  O331  1  0.14015599  0.87503432  0.62169754  1
  O  O332  1  0.61292107  0.39710911  0.12471573  1
  O  O333  1  0.62163685  0.35475480  0.64387715  1
  O  O334  1  0.60817365  0.88951598  0.09815396  1
  O  O335  1  0.60742407  0.90182789  0.62263513  1
  O  O336  1  0.08079197  0.19583055  0.16178800  1
  O  O337  1  0.12884703  0.24971965  0.72943617  1
  O  O338  1  0.11095816  0.75391609  0.25891727  1
  O  O339  1  0.11981417  0.73892469  0.74486460  1
  O  O340  1  0.60123110  0.25844641  0.26755741  1
  O  O341  1  0.61719908  0.26354187  0.77574984  1
  O  O342  1  0.62659136  0.75258473  0.26038187  1
  O  O343  1  0.61635652  0.74721710  0.74146196  1
  O  O344  1  0.38393782  0.25617403  0.26122034  1
  O  O345  1  0.36717806  0.25878573  0.72772460  1
  O  O346  1  0.39613778  0.76391275  0.23789711  1
  O  O347  1  0.37853511  0.73873724  0.73226792  1
  O  O348  1  0.89166243  0.25903163  0.26198799  1
  O  O349  1  0.89568598  0.22607414  0.70909663  1
  O  O350  1  0.87636170  0.74045607  0.24340599  1
  O  O351  1  0.88445420  0.75618762  0.74708912  1
  O  O352  1  0.37363936  0.48644530  0.51353678  1
  O  O353  1  0.37519576  0.47077076  1.06397975  1
  O  O354  1  0.48181293  1.04156443  0.46234361  1
  O  O355  1  0.38668222  0.97465740  0.99852157  1
  O  O356  1  0.86776014  0.48299026  0.50363339  1
  O  O357  1  0.86347247  0.49725329  1.00098159  1
  O  O358  1  0.88259478  0.98755074  0.50875865  1
  O  O359  1  0.90019880  0.97897341  0.96029774  1
  O  O360  1  0.10656519  -0.03170324  -0.00822695  1
  O  O361  1  0.10463810  -0.01722267  0.50668341  1
  O  O362  1  0.13067948  0.56656224  -0.07307240  1
  O  O363  1  0.10149147  0.49746371  0.48539083  1
  O  O364  1  0.62747655  0.03306334  -0.00109633  1
  O  O365  1  0.63499859  0.00921550  0.51310044  1
  O  O366  1  0.62826999  0.51452135  0.01826427  1
  O  O367  1  0.63378479  0.52078734  0.49351287  1
  O  O368  1  0.22110379  0.45482601  0.17634694  1
  O  O369  1  0.36420758  0.36436086  0.61923967  1
  O  O370  1  0.40315240  0.85879776  0.10496298  1
  O  O371  1  0.36989601  0.85877870  0.62701128  1
  O  O372  1  0.86981981  0.38202154  0.12310770  1
  O  O373  1  0.87331550  0.35481982  0.61586125  1
  O  O374  1  0.87859406  0.85417490  0.13309754  1
  O  O375  1  0.87723353  0.87207192  0.62303878  1
  O  O376  1  0.13502553  0.12808782  0.39041547  1
  O  O377  1  0.15491080  0.10901981  0.82537680  1
  O  O378  1  0.12536499  0.64787106  0.37349153  1
  O  O379  1  0.12473938  0.62756632  0.88942777  1
  O  O380  1  0.64605833  0.13942836  0.36189122  1
  O  O381  1  0.62753197  0.14679697  0.89118214  1
  O  O382  1  0.61680073  0.64265919  0.39294136  1
  O  O383  1  0.62608268  0.61163055  0.88953883  1
