# generated using pymatgen
data_VZnO4
_symmetry_space_group_name_H-M   'P 1'
_cell_length_a   17.11149675
_cell_length_b   17.20742821
_cell_length_c   17.08081460
_cell_angle_alpha   90.99627189
_cell_angle_beta   90.09135358
_cell_angle_gamma   90.72730195
_symmetry_Int_Tables_number   1
_chemical_formula_structural   VZnO4
_chemical_formula_sum   'V64 Zn64 O256'
_cell_volume   5028.18421281
_cell_formula_units_Z   64
loop_
 _symmetry_equiv_pos_site_id
 _symmetry_equiv_pos_as_xyz
  1  'x, y, z'
loop_
 _atom_site_type_symbol
 _atom_site_label
 _atom_site_symmetry_multiplicity
 _atom_site_fract_x
 _atom_site_fract_y
 _atom_site_fract_z
 _atom_site_occupancy
  V  V0  1  0.12985186  0.36919724  0.24871541  1
  V  V1  1  0.18362220  0.17848772  0.37626250  1
  V  V2  1  0.49131576  0.38093873  0.36770482  1
  V  V3  1  0.39507414  0.59046923  0.75464259  1
  V  V4  1  0.56472781  0.01325498  0.60189911  1
  V  V5  1  0.75938396  0.14270641  0.85267462  1
  V  V6  1  0.62473368  0.64797805  0.00326717  1
  V  V7  1  0.00640521  0.50363684  -0.00035520  1
  V  V8  1  0.34591955  0.13018425  0.72761697  1
  V  V9  1  -0.00701961  0.11079414  0.64389483  1
  V  V10  1  0.89327224  0.49387741  0.39230528  1
  V  V11  1  0.50356438  0.51045110  0.50269567  1
  V  V12  1  0.62450653  0.75178117  0.38824462  1
  V  V13  1  0.11585735  0.03131885  0.10649534  1
  V  V14  1  0.50620664  0.23282397  0.76586588  1
  V  V15  1  0.12727199  0.24621173  0.88690227  1
  V  V16  1  0.62488494  0.40766729  0.24514096  1
  V  V17  1  0.26172555  0.37596990  0.11308626  1
  V  V18  1  0.86533653  0.00011029  0.38576259  1
  V  V19  1  0.48784501  0.87011903  0.38506590  1
  V  V20  1  0.86726383  0.62039129  0.75756752  1
  V  V21  1  0.25670478  0.51030252  0.25153197  1
  V  V22  1  -0.00279983  0.87421495  0.89205174  1
  V  V23  1  0.01896735  0.38547169  0.86604604  1
  V  V24  1  0.14373554  0.72806207  0.38481106  1
  V  V25  1  0.37497781  0.52235151  0.38396001  1
  V  V26  1  0.21053889  0.82646909  0.62647866  1
  V  V27  1  0.60988146  0.52411735  0.11899751  1
  V  V28  1  0.38725451  0.11382055  0.23714087  1
  V  V29  1  0.73268504  0.87325396  0.63664035  1
  V  V30  1  0.86619653  0.48637176  0.87893980  1
  V  V31  1  0.23781606  0.12042226  0.90510764  1
  V  V32  1  0.00694431  0.74767882  0.75611954  1
  V  V33  1  0.89239659  0.17663795  0.23932058  1
  V  V34  1  0.61401205  0.88961866  0.23569557  1
  V  V35  1  0.39085218  0.38993117  -0.01387789  1
  V  V36  1  0.13931479  -0.00549988  0.63158508  1
  V  V37  1  0.13172450  0.60766673  0.50596507  1
  V  V38  1  -0.01808997  0.60647961  0.61451507  1
  V  V39  1  0.26482829  0.59464441  0.86352748  1
  V  V40  1  0.63431619  0.48355869  0.62714621  1
  V  V41  1  0.12661058  0.86254817  0.26310340  1
  V  V42  1  0.00836743  -0.00566316  0.49968401  1
  V  V43  1  0.77150983  0.41984014  0.13907615  1
  V  V44  1  0.29991704  0.81693930  0.07034280  1
  V  V45  1  0.74892819  0.28375007  0.02900229  1
  V  V46  1  0.36713817  -0.00007682  0.89824011  1
  V  V47  1  0.87007969  0.74975955  0.63535136  1
  V  V48  1  0.50535638  0.74295717  0.23353530  1
  V  V49  1  0.40092385  0.76260233  0.63377600  1
  V  V50  1  0.45917300  0.15403395  0.58958062  1
  V  V51  1  0.51653423  0.62646592  0.63188155  1
  V  V52  1  0.14454761  0.62829624  -0.00555447  1
  V  V53  1  0.75848494  0.65531259  0.89195718  1
  V  V54  1  0.38587735  0.25327490  0.11378014  1
  V  V55  1  0.87264588  0.86635702  0.51913804  1
  V  V56  1  0.78714386  -0.01121841  0.75937336  1
  V  V57  1  0.14542896  0.75322140  0.87096615  1
  V  V58  1  0.74584546  0.61427743  0.36456287  1
  V  V59  1  0.50797137  0.26526780  0.23389418  1
  V  V60  1  0.00074097  0.26221188  0.74209121  1
  V  V61  1  -0.01811339  0.84079240  0.38241172  1
  V  V62  1  0.13355686  0.50870272  0.12107738  1
  V  V63  1  0.37884973  0.63133848  0.22725003  1
  Zn  Zn64  1  0.19348779  0.17828328  0.18961917  1
  Zn  Zn65  1  0.16387855  0.17819263  0.70031392  1
  Zn  Zn66  1  0.18694111  0.69262352  0.19441097  1
  Zn  Zn67  1  0.17972892  0.63738501  0.69279208  1
  Zn  Zn68  1  0.71726325  0.22841347  0.21274902  1
  Zn  Zn69  1  0.65871471  0.12614250  0.70028999  1
  Zn  Zn70  1  0.69797601  0.69767880  0.19364316  1
  Zn  Zn71  1  0.68972531  0.69657411  0.70503418  1
  Zn  Zn72  1  0.31744710  0.32175084  0.29949040  1
  Zn  Zn73  1  0.31486442  0.30200834  0.82124839  1
  Zn  Zn74  1  0.30941198  0.79462386  0.31901185  1
  Zn  Zn75  1  0.31720675  0.82196213  0.79605323  1
  Zn  Zn76  1  0.84049168  0.29872015  0.35695700  1
  Zn  Zn77  1  0.80878128  0.29171796  0.74688710  1
  Zn  Zn78  1  0.75736046  0.87291659  0.35814879  1
  Zn  Zn79  1  0.82012948  0.81818432  0.81618943  1
  Zn  Zn80  1  0.18058848  0.45148217  0.42659556  1
  Zn  Zn81  1  0.19112229  0.43276521  0.93562785  1
  Zn  Zn82  1  0.17504474  0.89664550  0.45843139  1
  Zn  Zn83  1  0.17718287  0.93833666  0.94840252  1
  Zn  Zn84  1  0.66640871  0.45959220  0.42694351  1
  Zn  Zn85  1  0.67633999  0.43360537  0.95342126  1
  Zn  Zn86  1  0.66086615  1.02862725  0.43189036  1
  Zn  Zn87  1  0.66694634  1.00616458  0.92004342  1
  Zn  Zn88  1  0.31554540  -0.00873754  0.10309441  1
  Zn  Zn89  1  0.30359039  0.08354305  0.52288773  1
  Zn  Zn90  1  0.31343743  0.56259011  0.05674923  1
  Zn  Zn91  1  0.33645060  0.60717932  0.55027866  1
  Zn  Zn92  1  0.84856973  0.14674538  0.03557591  1
  Zn  Zn93  1  0.81737357  0.04357775  0.57458762  1
  Zn  Zn94  1  0.81318906  0.56385146  0.06047474  1
  Zn  Zn95  1  0.79984424  0.56441851  0.54527293  1
  Zn  Zn96  1  0.44034208  0.45273457  0.18167786  1
  Zn  Zn97  1  0.51457099  0.43446666  0.76712044  1
  Zn  Zn98  1  0.40543644  0.91203520  0.23266668  1
  Zn  Zn99  1  0.33396610  0.95218006  0.66046457  1
  Zn  Zn100  1  0.92625534  0.38850005  0.24188949  1
  Zn  Zn101  1  0.90921089  0.43192349  0.68771016  1
  Zn  Zn102  1  0.94818951  0.93419983  0.20703370  1
  Zn  Zn103  1  0.95912366  0.92894312  0.69428222  1
  Zn  Zn104  1  0.06011728  0.05879477  0.26666213  1
  Zn  Zn105  1  0.07445563  0.05103891  0.82018655  1
  Zn  Zn106  1  0.07110779  0.54790647  0.32137580  1
  Zn  Zn107  1  0.06570648  0.56236693  0.80329007  1
  Zn  Zn108  1  0.59135820  0.09262120  0.27255952  1
  Zn  Zn109  1  0.49440102  0.03464045  0.76399200  1
  Zn  Zn110  1  0.55706801  0.57912043  0.31630760  1
  Zn  Zn111  1  0.59433573  0.58021935  0.80570076  1
  Zn  Zn112  1  0.48468142  0.08202334  0.41115423  1
  Zn  Zn113  1  0.41472393  0.19612728  0.92723152  1
  Zn  Zn114  1  0.44656342  0.71031948  0.45618395  1
  Zn  Zn115  1  0.45626638  0.55880873  0.94158727  1
  Zn  Zn116  1  0.97766203  0.16626373  0.40400184  1
  Zn  Zn117  1  0.90114561  0.24100042  0.89723113  1
  Zn  Zn118  1  0.89349017  0.67279750  0.44192399  1
  Zn  Zn119  1  0.95676262  0.66918550  0.92507930  1
  Zn  Zn120  1  0.07075710  0.32873370  0.05884720  1
  Zn  Zn121  1  0.11905212  0.15048778  0.51676976  1
  Zn  Zn122  1  0.06729657  0.80612098  0.06600721  1
  Zn  Zn123  1  0.05038947  0.79170181  0.56085495  1
  Zn  Zn124  1  0.56993787  0.33429744  0.05505207  1
  Zn  Zn125  1  0.56089914  0.32207778  0.54363496  1
  Zn  Zn126  1  0.62050835  0.85392879  0.02665018  1
  Zn  Zn127  1  0.56091439  0.82028688  0.55773146  1
  O  O128  1  0.11865922  0.13178125  0.11921710  1
  O  O129  1  0.11763226  0.10591387  0.62161996  1
  O  O130  1  0.14512087  0.61980083  0.10431965  1
  O  O131  1  0.08894120  0.61890019  0.60549962  1
  O  O132  1  0.65652012  0.13148907  0.18556296  1
  O  O133  1  0.55649744  0.11410986  0.57520705  1
  O  O134  1  0.63598045  0.63211535  0.11492610  1
  O  O135  1  0.61681323  0.63181174  0.64277868  1
  O  O136  1  0.38847391  0.39943877  0.35778650  1
  O  O137  1  0.37064645  0.37203384  0.88861457  1
  O  O138  1  0.38820519  0.87131376  0.34408883  1
  O  O139  1  0.34921165  0.90680639  0.86302070  1
  O  O140  1  0.86197137  0.40918592  0.33699328  1
  O  O141  1  0.89891234  0.39185348  0.87004232  1
  O  O142  1  0.87555039  0.87132259  0.40107537  1
  O  O143  1  0.89824802  0.86787022  0.87998318  1
  O  O144  1  0.26240625  -0.03559891  0.40566206  1
  O  O145  1  0.23950753  0.01637459  0.88912991  1
  O  O146  1  0.26798988  0.49849855  0.36495782  1
  O  O147  1  0.25192249  0.49888528  0.86499192  1
  O  O148  1  0.76075383  -0.01820307  0.40311648  1
  O  O149  1  0.75982279  -0.00854583  0.85708318  1
  O  O150  1  0.73829853  0.51398433  0.36628818  1
  O  O151  1  0.76894424  0.48016846  0.89159228  1
  O  O152  1  0.24940558  0.49870551  0.12986127  1
  O  O153  1  0.16402005  0.42200242  0.60884953  1
  O  O154  1  0.20727507  1.00178739  0.13581437  1
  O  O155  1  0.23965069  1.00475579  0.60437175  1
  O  O156  1  0.74261002  0.51982475  0.14039785  1
  O  O157  1  0.72935300  0.51454828  0.61567725  1
  O  O158  1  0.71583772  1.06461516  0.16679778  1
  O  O159  1  0.75442426  0.98160224  0.64904638  1
  O  O160  1  0.03475530  0.39099598  0.22774760  1
  O  O161  1  -0.00114695  0.36566729  0.74772151  1
  O  O162  1  -0.00642490  0.85781408  0.28346085  1
  O  O163  1  0.00557778  0.84878851  0.75926451  1
  O  O164  1  0.50505684  0.38807383  0.24922618  1
  O  O165  1  0.49301560  0.32922799  0.74705906  1
  O  O166  1  0.50126100  0.85232558  0.25664530  1
  O  O167  1  0.57127906  0.80350808  0.76698670  1
  O  O168  1  0.49987073  0.16185914  0.23496622  1
  O  O169  1  0.46972832  0.14058790  0.70202492  1
  O  O170  1  0.48538087  0.63139083  0.24673965  1
  O  O171  1  0.50047085  0.62371103  0.74761849  1
  O  O172  1  0.97352161  0.13162316  0.29074550  1
  O  O173  1  1.00786566  0.10436507  0.74232754  1
  O  O174  1  1.00391583  0.62247448  0.24526732  1
  O  O175  1  0.98227449  0.63176718  0.75447051  1
  O  O176  1  0.38496657  0.27138222  0.00800551  1
  O  O177  1  0.33046208  0.33840264  0.50632544  1
  O  O178  1  0.34814599  0.74587641  -0.00755361  1
  O  O179  1  0.36623057  0.71872584  0.54129138  1
  O  O180  1  0.83401529  0.28877572  -0.02421204  1
  O  O181  1  0.91529592  0.25903547  0.43650313  1
  O  O182  1  0.92572051  0.69849246  0.06967727  1
  O  O183  1  0.87774166  0.75616097  0.52748196  1
  O  O184  1  0.22036793  0.12592961  0.45883573  1
  O  O185  1  0.12246814  0.25888676  0.98463276  1
  O  O186  1  0.10742740  0.72129581  0.48999260  1
  O  O187  1  0.12939226  0.73207611  0.98476283  1
  O  O188  1  0.63500484  0.25836890  0.47475187  1
  O  O189  1  0.65784861  0.31611503  0.98531487  1
  O  O190  1  0.61889495  0.75265975  0.48716452  1
  O  O191  1  0.63727269  0.74595161  1.00782840  1
  O  O192  1  0.49627760  0.27876758  0.12531841  1
  O  O193  1  0.47917224  0.24880068  0.57640501  1
  O  O194  1  0.49741301  0.74618318  0.13924315  1
  O  O195  1  0.50476041  0.73828270  0.62696621  1
  O  O196  1  0.98029487  0.25529399  0.08049333  1
  O  O197  1  1.00390274  0.22346853  0.64487040  1
  O  O198  1  0.98419059  0.73001117  0.11366670  1
  O  O199  1  0.99000748  0.73289997  0.64279946  1
  O  O200  1  0.09152912  0.20585698  0.41675251  1
  O  O201  1  0.01166740  0.27250769  0.87424272  1
  O  O202  1  -0.03345498  0.74431285  0.38732019  1
  O  O203  1  0.00677460  0.75083683  0.86929813  1
  O  O204  1  0.49412074  0.28198177  0.34938815  1
  O  O205  1  0.50538222  0.21359042  0.86443000  1
  O  O206  1  0.50905128  0.73887473  0.36545869  1
  O  O207  1  0.55569372  0.85769879  0.81541568  1
  O  O208  1  0.33014235  0.26701604  0.50231574  1
  O  O209  1  0.24212848  0.13469373  0.99856993  1
  O  O210  1  0.22750785  0.60156233  0.52797270  1
  O  O211  1  0.25181625  0.61739031  0.97808542  1
  O  O212  1  0.73702888  0.12077746  0.53704411  1
  O  O213  1  0.73880625  0.18505267  1.04110204  1
  O  O214  1  0.77953014  0.64239039  0.46395996  1
  O  O215  1  0.75332395  0.63138854  0.99268211  1
  O  O216  1  0.26225999  0.38526213  0.01028978  1
  O  O217  1  0.21443177  0.41757175  0.55709171  1
  O  O218  1  0.23710014  0.87030926  0.01627826  1
  O  O219  1  0.24416641  0.84877973  0.53470848  1
  O  O220  1  0.76368280  0.40975639  0.03715524  1
  O  O221  1  0.69731820  0.29999194  0.45052979  1
  O  O222  1  0.83686779  0.96396986  0.00680265  1
  O  O223  1  0.76568563  0.87456248  0.53657353  1
  O  O224  1  0.14146827  0.50760478  0.23828736  1
  O  O225  1  0.14494511  0.54320020  0.73308666  1
  O  O226  1  0.11507630  0.95780007  0.28836425  1
  O  O227  1  0.13489084  0.99670307  0.72934030  1
  O  O228  1  0.61315666  0.51221611  0.23825590  1
  O  O229  1  0.61244453  0.49256183  0.72997873  1
  O  O230  1  0.58352398  0.98342263  0.24444692  1
  O  O231  1  0.59427135  1.02684568  0.70548831  1
  O  O232  1  0.39105812  0.01938692  0.19524369  1
  O  O233  1  0.37392389  0.02850447  0.73755982  1
  O  O234  1  0.37412156  0.51880579  0.25471903  1
  O  O235  1  0.40849463  0.49471496  0.75371048  1
  O  O236  1  0.87796524  -0.01419795  0.28733220  1
  O  O237  1  0.88481315  -0.01086374  0.75732294  1
  O  O238  1  0.94549253  0.58754460  0.21759632  1
  O  O239  1  0.87430770  0.51240552  0.77332772  1
  O  O240  1  0.14025397  0.38202151  0.34895194  1
  O  O241  1  0.12573027  0.36590776  0.86852718  1
  O  O242  1  0.10275024  0.83600147  0.38712986  1
  O  O243  1  0.12391901  0.85125424  0.88070204  1
  O  O244  1  0.60424427  0.40152327  0.35307250  1
  O  O245  1  0.58209614  0.43156151  0.88044199  1
  O  O246  1  0.60024700  0.85718775  0.36518595  1
  O  O247  1  0.60400375  0.94354322  0.97441759  1
  O  O248  1  0.39276333  0.15723106  0.11383379  1
  O  O249  1  0.34537587  0.14231116  0.62259935  1
  O  O250  1  0.37586205  0.62518501  0.12936111  1
  O  O251  1  0.39828828  0.61348293  0.64778716  1
  O  O252  1  0.88400312  0.14680581  0.14419793  1
  O  O253  1  0.89554604  0.10670837  0.62977365  1
  O  O254  1  0.87750254  0.65239953  0.11257324  1
  O  O255  1  0.86826799  0.63189915  0.64025692  1
  O  O256  1  0.27263645  0.27437921  0.12566826  1
  O  O257  1  0.20130363  0.26419268  0.62200985  1
  O  O258  1  0.25078623  0.74876185  0.12270065  1
  O  O259  1  0.21046448  0.72846901  0.63955411  1
  O  O260  1  0.75797224  0.30355558  0.13580608  1
  O  O261  1  0.71145381  0.16674195  0.59316272  1
  O  O262  1  0.77331540  0.77780788  0.13649367  1
  O  O263  1  0.76017855  0.76539222  0.64766950  1
  O  O264  1  0.24848158  0.25218048  0.35550850  1
  O  O265  1  0.23182347  0.24083574  0.87062613  1
  O  O266  1  0.24102986  0.74067750  0.39338566  1
  O  O267  1  0.24322367  0.75423804  0.85605906  1
  O  O268  1  0.73374165  0.26274396  0.38849921  1
  O  O269  1  0.75292674  0.23845904  0.82553895  1
  O  O270  1  0.72475036  0.76682217  0.37225202  1
  O  O271  1  0.76689869  0.75214593  0.89232086  1
  O  O272  1  -0.03232466  0.20459167  0.02454683  1
  O  O273  1  0.00724071  0.09954566  0.51038780  1
  O  O274  1  0.03240394  0.60946788  -0.01928564  1
  O  O275  1  -0.03532417  0.61641162  0.51769735  1
  O  O276  1  0.53993498  0.12167331  0.02156709  1
  O  O277  1  0.41899480  0.11172246  0.50140683  1
  O  O278  1  0.52799533  0.63476311  -0.01542620  1
  O  O279  1  0.49865692  0.62082834  0.52117844  1
  O  O280  1  0.50218797  0.39484432  0.47549966  1
  O  O281  1  0.48854729  0.38654299  0.99727911  1
  O  O282  1  0.47732617  0.83428209  0.48081435  1
  O  O283  1  0.39954045  0.80189712  1.01407170  1
  O  O284  1  0.86694363  0.23225031  0.51007351  1
  O  O285  1  1.01777871  0.39916512  0.98296975  1
  O  O286  1  0.99074934  0.86903947  0.49904142  1
  O  O287  1  1.00961880  0.86249078  0.99109874  1
  O  O288  1  0.48943477  0.51058037  0.38235059  1
  O  O289  1  0.53338289  0.50072841  0.87010940  1
  O  O290  1  0.49623793  0.96628106  0.39968038  1
  O  O291  1  0.46423837  1.01959530  0.87063093  1
  O  O292  1  0.99260782  0.49310209  0.37656323  1
  O  O293  1  1.00899610  0.49684227  0.87537312  1
  O  O294  1  0.98791422  0.98151599  0.39971522  1
  O  O295  1  1.02215466  0.96819435  0.86944038  1
  O  O296  1  0.02859132  0.00381785  0.16555943  1
  O  O297  1  0.01434539  -0.00247823  0.62137604  1
  O  O298  1  0.02338881  0.50462897  0.10153257  1
  O  O299  1  -0.02998940  0.51132638  0.63663832  1
  O  O300  1  0.53430121  0.05954502  0.05514865  1
  O  O301  1  0.47260781  -0.01753357  0.60269307  1
  O  O302  1  0.51079853  0.51897331  0.11929291  1
  O  O303  1  0.51662176  0.51405696  0.61613568  1
  O  O304  1  0.25199432  0.39505968  0.23247804  1
  O  O305  1  0.27625647  0.37080968  0.72486671  1
  O  O306  1  0.22610918  0.85275275  0.27019509  1
  O  O307  1  0.26024533  0.87232720  0.70582825  1
  O  O308  1  0.72465729  0.39822012  0.24451641  1
  O  O309  1  0.82699262  0.36302674  0.67322315  1
  O  O310  1  0.71255055  0.89025396  0.25721294  1
  O  O311  1  0.75816546  0.88209870  0.74662829  1
  O  O312  1  0.29364188  0.14200549  0.22787448  1
  O  O313  1  0.24818479  0.12821905  0.74988639  1
  O  O314  1  0.26537753  0.61734383  0.24399630  1
  O  O315  1  0.28349176  0.61261127  0.75990458  1
  O  O316  1  0.79744123  0.17376672  0.27684635  1
  O  O317  1  0.75859623  0.09762154  0.75200032  1
  O  O318  1  0.76106181  0.64683255  0.27084486  1
  O  O319  1  0.76075496  0.63680399  0.77511579  1
  O  O320  1  0.40013741  0.10021901  0.33416068  1
  O  O321  1  0.34583953  0.11722038  0.87948494  1
  O  O322  1  0.37626138  0.61984401  0.37626005  1
  O  O323  1  0.37684345  0.60642657  0.86654813  1
  O  O324  1  0.87453597  0.09468000  0.40871744  1
  O  O325  1  0.84323326  0.13678180  0.91581043  1
  O  O326  1  0.87055361  0.58825867  0.35931749  1
  O  O327  1  0.86520176  0.61912603  0.87884052  1
  O  O328  1  0.14651280  0.39082386  0.12129739  1
  O  O329  1  0.15836042  0.26526137  0.56036978  1
  O  O330  1  0.10315745  0.84540773  0.16480945  1
  O  O331  1  0.11676200  0.87496321  0.62416529  1
  O  O332  1  0.62197248  0.41187937  0.13186549  1
  O  O333  1  0.62716352  0.38551629  0.61143232  1
  O  O334  1  0.61311898  0.86823094  0.13785836  1
  O  O335  1  0.63367425  0.86489455  0.63502543  1
  O  O336  1  0.13961437  0.27351750  0.22801952  1
  O  O337  1  0.10152050  0.24107544  0.76822476  1
  O  O338  1  0.12291438  0.73344761  0.28047669  1
  O  O339  1  0.11048907  0.72897905  0.76634558  1
  O  O340  1  0.61149991  0.28555148  0.23389227  1
  O  O341  1  0.59989465  0.21344816  0.73424237  1
  O  O342  1  0.61047915  0.74739944  0.25081979  1
  O  O343  1  0.62977368  0.75243882  0.79036258  1
  O  O344  1  0.39379859  0.27031745  0.22713274  1
  O  O345  1  0.37724436  0.22418651  0.76751718  1
  O  O346  1  0.38083007  0.73226382  0.25203281  1
  O  O347  1  0.37228441  0.74616663  0.72987534  1
  O  O348  1  0.90865947  0.27661838  0.25760883  1
  O  O349  1  0.90784929  0.23230577  0.77618843  1
  O  O350  1  0.83167530  0.80887217  0.17865619  1
  O  O351  1  0.88488463  0.74067811  0.75157719  1
  O  O352  1  0.38252397  0.51457538  0.48900569  1
  O  O353  1  0.38051105  0.49556134  0.99517998  1
  O  O354  1  0.31936916  0.98241095  0.45157210  1
  O  O355  1  0.36464524  1.00077372  0.99828765  1
  O  O356  1  0.86324553  0.48671939  0.48797187  1
  O  O357  1  0.90045171  0.51502165  0.98754971  1
  O  O358  1  0.88999569  0.97946430  0.51268969  1
  O  O359  1  0.87575577  1.01079059  1.04741741  1
  O  O360  1  0.10643118  0.00394535  0.01013151  1
  O  O361  1  0.11117988  -0.02030520  0.50777385  1
  O  O362  1  0.13281052  0.51014295  0.00187271  1
  O  O363  1  0.10770753  0.51179181  0.48711991  1
  O  O364  1  0.70014831  0.02836262  0.10529037  1
  O  O365  1  0.61985964  -0.02355084  0.52545913  1
  O  O366  1  0.63305230  0.52258633  0.01754790  1
  O  O367  1  0.61294236  0.50499312  0.51133808  1
  O  O368  1  0.37038472  0.38847576  0.11212779  1
  O  O369  1  0.32141583  0.36838183  0.66722492  1
  O  O370  1  0.34493927  0.88248483  0.13828181  1
  O  O371  1  0.39393196  0.85923963  0.62463720  1
  O  O372  1  0.86908512  0.42884432  0.15505416  1
  O  O373  1  0.82500689  0.28340347  0.53923643  1
  O  O374  1  0.86936322  0.86705087  0.14102639  1
  O  O375  1  0.88683599  0.86149282  0.63214597  1
  O  O376  1  0.15585806  0.12102172  0.29660351  1
  O  O377  1  0.12793912  0.13598776  0.87853279  1
  O  O378  1  0.12798169  0.62197499  0.38969537  1
  O  O379  1  0.15224492  0.62870120  0.87767470  1
  O  O380  1  0.59370205  0.10008312  0.38425139  1
  O  O381  1  0.67403735  0.11771884  0.89716784  1
  O  O382  1  0.63827398  0.63772798  0.37237419  1
  O  O383  1  0.65343891  0.63013711  0.88878217  1
