# generated using pymatgen
data_VZnO4
_symmetry_space_group_name_H-M   'P 1'
_cell_length_a   16.93896932
_cell_length_b   16.94427852
_cell_length_c   16.90261695
_cell_angle_alpha   89.69403312
_cell_angle_beta   89.91007216
_cell_angle_gamma   89.87265855
_symmetry_Int_Tables_number   1
_chemical_formula_structural   VZnO4
_chemical_formula_sum   'V64 Zn64 O256'
_cell_volume   4851.27864969
_cell_formula_units_Z   64
loop_
 _symmetry_equiv_pos_site_id
 _symmetry_equiv_pos_as_xyz
  1  'x, y, z'
loop_
 _atom_site_type_symbol
 _atom_site_label
 _atom_site_symmetry_multiplicity
 _atom_site_fract_x
 _atom_site_fract_y
 _atom_site_fract_z
 _atom_site_occupancy
  V  V0  1  0.77735566  0.11125365  0.88005846  1
  V  V1  1  0.88405686  0.91553959  0.50141759  1
  V  V2  1  0.27331174  0.49704544  0.25613401  1
  V  V3  1  0.62831455  0.35879612  0.73160859  1
  V  V4  1  0.37943113  0.12920586  0.26389871  1
  V  V5  1  0.50217217  0.36423960  0.86719087  1
  V  V6  1  0.13177803  0.89908891  0.25335090  1
  V  V7  1  0.23749209  0.37972793  0.62563604  1
  V  V8  1  0.00097990  0.28357106  0.75256682  1
  V  V9  1  0.11756585  0.25121439  0.89317040  1
  V  V10  1  0.01379857  0.00200561  0.00026470  1
  V  V11  1  0.74407003  0.25077756  0.50773505  1
  V  V12  1  0.38409450  0.64583731  0.24949077  1
  V  V13  1  0.88171489  0.24747812  0.63000371  1
  V  V14  1  0.74201178  -0.01152641  0.74221886  1
  V  V15  1  0.86771390  0.26020382  0.12383431  1
  V  V16  1  0.13866335  0.63795528  0.01817990  1
  V  V17  1  0.88240085  0.38457356  -0.00511035  1
  V  V18  1  0.24764348  0.00059205  0.76391419  1
  V  V19  1  0.12866205  0.25343621  0.37842281  1
  V  V20  1  0.62573215  0.52068908  0.11703411  1
  V  V21  1  0.37530570  0.50943362  0.88365897  1
  V  V22  1  0.74457459  0.25036831  -0.01001993  1
  V  V23  1  0.87001601  0.37832452  0.48564819  1
  V  V24  1  0.75898155  0.75228413  -0.01311076  1
  V  V25  1  0.61804202  0.86178483  0.25041286  1
  V  V26  1  -0.00671937  0.61235467  0.12594596  1
  V  V27  1  0.50210979  0.52244409  0.53415096  1
  V  V28  1  0.73911257  0.50420716  0.74985048  1
  V  V29  1  0.25818047  0.25570699  0.50060631  1
  V  V30  1  0.86327119  0.63366649  0.26213723  1
  V  V31  1  0.37807080  0.24020973  0.64743455  1
  V  V32  1  0.88207397  0.74059314  0.61607444  1
  V  V33  1  0.11952165  0.87314614  0.77621406  1
  V  V34  1  0.23816281  0.50075327  0.74849751  1
  V  V35  1  0.37720326  0.36658944  0.00132628  1
  V  V36  1  0.49280634  0.37903442  0.37423798  1
  V  V37  1  0.89422540  0.87792663  -0.00715648  1
  V  V38  1  0.11734317  0.10919612  0.49329795  1
  V  V39  1  0.62351459  0.24697763  0.37026844  1
  V  V40  1  0.00899906  0.49663033  0.49789692  1
  V  V41  1  0.87056739  0.11130210  0.25145785  1
  V  V42  1  0.49132144  0.87702743  0.37478894  1
  V  V43  1  0.36864652  0.62155227  0.71708509  1
  V  V44  1  0.62694439  0.36766283  0.23344520  1
  V  V45  1  0.29087809  0.85515121  0.09721142  1
  V  V46  1  0.76595078  0.87714691  0.13676638  1
  V  V47  1  0.12497924  0.64112923  0.50433738  1
  V  V48  1  0.37768557  0.84183123  0.50471054  1
  V  V49  1  0.75117773  0.49660859  0.26279328  1
  V  V50  1  0.24446894  0.37512711  0.11880503  1
  V  V51  1  0.01765418  0.74473072  0.25492921  1
  V  V52  1  0.11636184  0.39101216  0.25104674  1
  V  V53  1  0.01206093  0.12674085  0.12276199  1
  V  V54  1  0.74936153  0.11631169  0.37517992  1
  V  V55  1  -0.00448693  0.25677751  0.25858995  1
  V  V56  1  -0.00533912  0.89195246  0.37269888  1
  V  V57  1  0.61631274  0.00447912  0.12743184  1
  V  V58  1  0.24806860  0.63459179  0.37925615  1
  V  V59  1  0.22498686  0.87972246  0.59774043  1
  V  V60  1  0.48757288  0.13619362  0.12257102  1
  V  V61  1  0.00337322  0.73833927  0.76029871  1
  V  V62  1  0.72582326  0.87307886  0.60837436  1
  V  V63  1  0.87522250  0.50571036  0.86999453  1
  Zn  Zn64  1  0.19407574  0.19334207  0.19330006  1
  Zn  Zn65  1  0.16973158  0.18607596  0.68373555  1
  Zn  Zn66  1  0.19357464  0.68413650  0.18530905  1
  Zn  Zn67  1  0.18256055  0.69169035  0.68364937  1
  Zn  Zn68  1  0.68872209  0.18234941  0.18608808  1
  Zn  Zn69  1  0.63844920  0.15158187  0.77330071  1
  Zn  Zn70  1  0.69752669  0.69172275  0.17762728  1
  Zn  Zn71  1  0.81393423  0.67410192  0.80048764  1
  Zn  Zn72  1  0.30931994  0.30747910  0.29976606  1
  Zn  Zn73  1  0.30617165  0.31714074  0.81347857  1
  Zn  Zn74  1  0.30676595  0.81275542  0.30861367  1
  Zn  Zn75  1  0.32295324  0.81360072  0.70699621  1
  Zn  Zn76  1  0.80404555  0.31067874  0.31402881  1
  Zn  Zn77  1  0.81093332  0.31711588  0.81306956  1
  Zn  Zn78  1  0.82521523  0.82443100  0.30950932  1
  Zn  Zn79  1  0.83340159  0.83672512  0.81429721  1
  Zn  Zn80  1  0.18545851  0.43631531  0.43353581  1
  Zn  Zn81  1  0.18544222  0.43764205  0.92743115  1
  Zn  Zn82  1  0.19492616  0.92273044  0.41443412  1
  Zn  Zn83  1  0.19911929  0.93674447  0.95198526  1
  Zn  Zn84  1  0.67397520  0.43699888  0.44213296  1
  Zn  Zn85  1  0.68920537  0.43799559  0.93958198  1
  Zn  Zn86  1  0.70700804  0.91599213  0.41801922  1
  Zn  Zn87  1  0.71389123  0.95611677  0.96390051  1
  Zn  Zn88  1  0.29013335  0.03811688  0.16350953  1
  Zn  Zn89  1  0.25909270  0.09141162  0.59503420  1
  Zn  Zn90  1  0.31775540  0.55810414  0.07374151  1
  Zn  Zn91  1  0.31746374  0.54877628  0.54522419  1
  Zn  Zn92  1  0.82043633  0.06120992  0.06801737  1
  Zn  Zn93  1  0.80012887  0.06971661  0.57096727  1
  Zn  Zn94  1  0.80783570  0.56359872  0.07144417  1
  Zn  Zn95  1  0.83605109  0.54927800  0.57708927  1
  Zn  Zn96  1  0.44589173  0.42342962  0.17695191  1
  Zn  Zn97  1  0.42416766  0.42568271  0.67843486  1
  Zn  Zn98  1  0.43937079  0.93897659  0.18705441  1
  Zn  Zn99  1  0.38591511  0.97786817  0.64806217  1
  Zn  Zn100  1  0.92909429  0.44109469  0.19067444  1
  Zn  Zn101  1  0.91900185  0.43793740  0.67344607  1
  Zn  Zn102  1  0.95245908  0.93908035  0.18369871  1
  Zn  Zn103  1  0.93424894  0.92755498  0.70194879  1
  Zn  Zn104  1  0.06211636  0.07298599  0.31529284  1
  Zn  Zn105  1  0.08738036  0.05477852  0.83067530  1
  Zn  Zn106  1  0.05285772  0.56634553  0.32786370  1
  Zn  Zn107  1  0.05193809  0.55341682  0.81366802  1
  Zn  Zn108  1  0.56117296  0.05616149  0.30535015  1
  Zn  Zn109  1  0.60968755  0.11494798  0.97704319  1
  Zn  Zn110  1  0.53336077  0.53588755  0.26817457  1
  Zn  Zn111  1  0.53401435  0.53092166  0.75397739  1
  Zn  Zn112  1  0.43071305  0.21111509  0.42679071  1
  Zn  Zn113  1  0.43083699  0.19040169  0.94842135  1
  Zn  Zn114  1  0.46051063  0.67056463  0.40547055  1
  Zn  Zn115  1  0.43918664  0.69636533  0.84104563  1
  Zn  Zn116  1  0.93074956  0.18139612  0.44169914  1
  Zn  Zn117  1  0.94574526  0.19345271  0.93705348  1
  Zn  Zn118  1  0.94422155  0.68375704  0.43280977  1
  Zn  Zn119  1  0.93749347  0.68798709  0.94584538  1
  Zn  Zn120  1  0.05764604  0.32093705  0.07222069  1
  Zn  Zn121  1  0.05421820  0.31791347  0.56358439  1
  Zn  Zn122  1  0.06600008  0.80633889  0.07524481  1
  Zn  Zn123  1  0.04648378  0.81127420  0.55731452  1
  Zn  Zn124  1  0.56178871  0.30685949  0.05421364  1
  Zn  Zn125  1  0.55444893  0.30366820  0.55976637  1
  Zn  Zn126  1  0.58415691  0.83093032  0.04267167  1
  Zn  Zn127  1  0.56749040  0.78414884  0.50675582  1
  O  O128  1  0.10911738  0.14354476  0.13277403  1
  O  O129  1  0.13266983  0.11452131  0.59621180  1
  O  O130  1  0.11197045  0.62575052  0.12386569  1
  O  O131  1  0.13739854  0.62495943  0.60326934  1
  O  O132  1  0.62154194  0.11142923  0.13036784  1
  O  O133  1  0.59230593  0.08861718  0.68286468  1
  O  O134  1  0.62709705  0.62152291  0.12292013  1
  O  O135  1  0.70729316  0.66150149  0.53886276  1
  O  O136  1  0.39673586  0.35270998  0.35490074  1
  O  O137  1  0.37639021  0.38053607  0.88500994  1
  O  O138  1  0.38586165  0.86253697  0.38190872  1
  O  O139  1  0.48122057  0.84518168  0.76860288  1
  O  O140  1  0.87740539  0.35700569  0.38710388  1
  O  O141  1  0.87563351  0.37732044  0.89142402  1
  O  O142  1  0.88127754  0.88392419  0.38563333  1
  O  O143  1  0.90303432  0.88444436  0.89562643  1
  O  O144  1  0.30759545  0.00537332  0.39910721  1
  O  O145  1  0.23341807  0.00606843  0.86391438  1
  O  O146  1  0.24724318  0.49809209  0.35881244  1
  O  O147  1  0.26270385  0.49247836  0.85530521  1
  O  O148  1  0.74240382  0.01756771  0.37931871  1
  O  O149  1  0.78590293  0.01256333  0.89889823  1
  O  O150  1  0.73111728  0.50004094  0.36121835  1
  O  O151  1  0.76026464  0.48896531  0.86700484  1
  O  O152  1  0.25083251  0.49078229  0.14822020  1
  O  O153  1  0.25348537  0.48523641  0.62573056  1
  O  O154  1  0.24987284  0.94226771  0.13193123  1
  O  O155  1  0.26761754  0.97927895  0.61500999  1
  O  O156  1  0.73495791  0.50533684  0.13974891  1
  O  O157  1  0.76264481  0.49652240  0.65084058  1
  O  O158  1  0.74329001  0.98343407  0.11806288  1
  O  O159  1  0.74018719  0.98906590  0.62900055  1
  O  O160  1  0.00660311  0.36545450  0.24093893  1
  O  O161  1  0.00277048  0.38151307  0.73686697  1
  O  O162  1  0.00648951  0.86659905  0.25665816  1
  O  O163  1  0.01435834  0.87026785  0.75632161  1
  O  O164  1  0.52095223  0.37117767  0.25323809  1
  O  O165  1  0.50997870  0.37811599  0.75985363  1
  O  O166  1  0.50738499  0.87001635  0.26252860  1
  O  O167  1  0.54478184  0.87468797  0.74914290  1
  O  O168  1  0.49125591  0.12023696  0.23641938  1
  O  O169  1  0.51617755  0.06710429  0.69004266  1
  O  O170  1  0.48361669  0.63525196  0.28425720  1
  O  O171  1  0.47217740  0.62516484  0.75305359  1
  O  O172  1  0.98908666  0.13949513  0.24549446  1
  O  O173  1  0.98765515  0.09058421  0.73496210  1
  O  O174  1  0.99030729  0.63295117  0.25330164  1
  O  O175  1  1.01615125  0.63936226  0.74731944  1
  O  O176  1  0.35794517  0.26948938  -0.00378870  1
  O  O177  1  0.35850176  0.25284159  0.50031005  1
  O  O178  1  0.40079201  0.77446230  -0.06940614  1
  O  O179  1  0.37992236  0.74607131  0.49922429  1
  O  O180  1  0.87756008  0.25974477  0.01293850  1
  O  O181  1  0.86542290  0.25095051  0.50687804  1
  O  O182  1  0.88065671  0.77065839  0.00552234  1
  O  O183  1  0.89432975  0.74535583  0.51428009  1
  O  O184  1  0.11477677  0.25598704  0.48260308  1
  O  O185  1  0.10447652  0.25615762  0.99262057  1
  O  O186  1  0.11690674  0.74030907  0.49750500  1
  O  O187  1  0.11830372  0.73584483  1.00184040  1
  O  O188  1  0.63419809  0.24871776  0.48373267  1
  O  O189  1  0.64375776  0.24019606  1.00555815  1
  O  O190  1  0.63567366  0.67253340  0.50987253  1
  O  O191  1  0.65850709  0.77374367  0.98159318  1
  O  O192  1  0.50320988  0.23629483  0.12416106  1
  O  O193  1  0.47746390  0.24948367  0.62638774  1
  O  O194  1  0.50240682  0.72558747  0.07088506  1
  O  O195  1  0.52729302  0.74108539  0.63120640  1
  O  O196  1  0.98748191  0.24430824  0.13478620  1
  O  O197  1  0.98787001  0.24993912  0.63348909  1
  O  O198  1  0.99931572  0.74018343  0.14989345  1
  O  O199  1  0.98735238  0.75970412  0.64034663  1
  O  O200  1  0.00132709  0.24899912  0.36081053  1
  O  O201  1  0.00276358  0.26247887  0.85946104  1
  O  O202  1  -0.01523881  0.76125167  0.35604201  1
  O  O203  1  -0.00613647  0.74278806  0.86065774  1
  O  O204  1  0.52225851  0.23971670  0.36802855  1
  O  O205  1  0.48575364  0.26401262  0.87656298  1
  O  O206  1  0.52369622  0.77012263  0.40186458  1
  O  O207  1  0.55329254  0.73248216  0.87126991  1
  O  O208  1  0.23275991  0.15340893  0.49324993  1
  O  O209  1  0.24649233  0.08043301  1.02408591  1
  O  O210  1  0.24310103  0.61441743  0.48587900  1
  O  O211  1  0.23828847  0.62902831  1.02771673  1
  O  O212  1  0.75387950  0.13539589  0.48343757  1
  O  O213  1  0.76908874  0.13662438  0.99363538  1
  O  O214  1  0.74753549  0.60410250  0.50454659  1
  O  O215  1  0.76923070  0.65471499  1.00950034  1
  O  O216  1  0.24480156  0.38905584  0.01580524  1
  O  O217  1  0.24187608  0.36635078  0.50900883  1
  O  O218  1  0.26927513  0.86218281  -0.00355037  1
  O  O219  1  0.26494781  0.87322356  0.49466994  1
  O  O220  1  0.75938755  0.35469802  -0.00159823  1
  O  O221  1  0.75233462  0.35629077  0.48756122  1
  O  O222  1  0.77844672  0.87329998  0.00859316  1
  O  O223  1  0.77772374  0.89371625  0.50114491  1
  O  O224  1  0.11234480  0.48938226  0.25865425  1
  O  O225  1  0.13963215  0.50843244  0.75654570  1
  O  O226  1  0.11938214  0.99836125  0.24970303  1
  O  O227  1  0.12459975  0.98026537  0.75388697  1
  O  O228  1  0.63524176  0.48523570  0.24043069  1
  O  O229  1  0.63315981  0.48014780  0.75531840  1
  O  O230  1  0.62395501  0.98549971  0.23498516  1
  O  O231  1  0.66733962  0.96782947  0.80255478  1
  O  O232  1  0.37743596  0.01615303  0.24227262  1
  O  O233  1  0.34816257  -0.02035838  0.75691704  1
  O  O234  1  0.37208725  0.48821567  0.25383855  1
  O  O235  1  0.36362033  0.51209546  0.74871157  1
  O  O236  1  0.88051777  0.01427943  0.24572483  1
  O  O237  1  0.83491199  -0.05971481  0.76196687  1
  O  O238  1  0.85659457  0.50239195  0.25346308  1
  O  O239  1  0.86163918  0.48841838  0.76424642  1
  O  O240  1  0.12099565  0.36689628  0.35861714  1
  O  O241  1  0.12557407  0.36294876  0.86771335  1
  O  O242  1  0.10146239  0.87381618  0.36546426  1
  O  O243  1  0.13334612  0.86878208  0.87346147  1
  O  O244  1  0.61870522  0.35897215  0.36466527  1
  O  O245  1  0.59994930  0.37796933  0.88921384  1
  O  O246  1  0.62656171  0.87420888  0.35655554  1
  O  O247  1  0.52669876  0.92643696  0.91670108  1
  O  O248  1  0.38858694  0.12163288  0.12092635  1
  O  O249  1  0.36033301  0.14077728  0.61965090  1
  O  O250  1  0.38104902  0.61496142  0.15252085  1
  O  O251  1  0.37071030  0.62613129  0.61936722  1
  O  O252  1  0.88197383  0.13677221  0.13967574  1
  O  O253  1  0.86212466  0.14798596  0.62706999  1
  O  O254  1  0.88650886  0.61758361  0.14373359  1
  O  O255  1  0.86235476  0.64514084  0.63446685  1
  O  O256  1  0.24773378  0.27623484  0.13382080  1
  O  O257  1  0.24749691  0.25564613  0.61418347  1
  O  O258  1  0.25245591  0.77004318  0.14191754  1
  O  O259  1  0.23970682  0.77905150  0.62539559  1
  O  O260  1  0.76600391  0.24019891  0.11688139  1
  O  O261  1  0.74591476  0.24462230  0.60593898  1
  O  O262  1  0.74647125  0.77417921  0.11120232  1
  O  O263  1  0.78125329  0.78374895  0.61612935  1
  O  O264  1  0.23541371  0.26563598  0.38454831  1
  O  O265  1  0.22010839  0.27328878  0.87279324  1
  O  O266  1  0.24443709  0.73334152  0.37093057  1
  O  O267  1  0.36580437  0.74425329  0.98821798  1
  O  O268  1  0.74112315  0.23815065  0.37885064  1
  O  O269  1  0.75903154  0.24267775  0.88716846  1
  O  O270  1  0.74987670  0.75490616  0.39861749  1
  O  O271  1  0.77839153  0.75864968  0.87982826  1
  O  O272  1  -0.00567943  0.11946069  0.01631601  1
  O  O273  1  0.01696920  0.12104062  0.48322437  1
  O  O274  1  -0.00289741  0.62809404  0.02420016  1
  O  O275  1  0.01998344  0.61613002  0.49130390  1
  O  O276  1  0.50317954  0.12864016  0.01108884  1
  O  O277  1  0.49686252  0.12794791  0.52048482  1
  O  O278  1  0.50626118  0.66864388  0.02521918  1
  O  O279  1  0.49858203  0.61980838  0.50231740  1
  O  O280  1  0.49959795  0.35410795  0.47347728  1
  O  O281  1  0.48190643  0.37065107  0.99669354  1
  O  O282  1  0.47781879  0.87681663  0.49520719  1
  O  O283  1  0.49814319  0.87652484  0.97702842  1
  O  O284  1  0.98243473  0.38626512  0.50423198  1
  O  O285  1  0.98073572  0.38371903  1.01316115  1
  O  O286  1  0.99208000  0.88210134  0.48130797  1
  O  O287  1  0.99908654  0.88748325  1.02503205  1
  O  O288  1  0.50121930  0.47939714  0.36647443  1
  O  O289  1  0.47631069  0.48702600  0.86339962  1
  O  O290  1  0.50942257  0.97714260  0.37721110  1
  O  O291  1  0.47437706  0.96540474  0.88076180  1
  O  O292  1  0.98797344  0.50208387  0.39784004  1
  O  O293  1  0.97626719  0.49336471  0.87080207  1
  O  O294  1  0.99435588  0.99098789  0.36069075  1
  O  O295  1  1.00490722  1.01216316  0.90083827  1
  O  O296  1  0.00564600  0.02283346  0.12870474  1
  O  O297  1  -0.02490570  0.04577197  0.67717954  1
  O  O298  1  0.00090043  0.51253172  0.13751479  1
  O  O299  1  -0.04488275  0.51355388  0.59174747  1
  O  O300  1  0.51270456  0.00677474  0.12174087  1
  O  O301  1  0.49799946  0.00937410  0.63802115  1
  O  O302  1  0.52200887  0.50434183  0.14819789  1
  O  O303  1  0.50015369  0.50520119  0.64008802  1
  O  O304  1  0.23709677  0.38558758  0.24739746  1
  O  O305  1  0.25014984  0.38963437  0.73720478  1
  O  O306  1  0.22914771  0.89282901  0.29675297  1
  O  O307  1  0.22738003  0.88502136  0.73122351  1
  O  O308  1  0.74079079  0.38536721  0.25258106  1
  O  O309  1  0.73132659  0.37423942  0.75558563  1
  O  O310  1  0.74080894  0.87060528  0.24198615  1
  O  O311  1  0.70274185  0.87052038  0.70655779  1
  O  O312  1  0.26676085  0.12044241  0.23747400  1
  O  O313  1  0.23312463  0.09667133  0.72578737  1
  O  O314  1  0.25954510  0.61144600  0.25632639  1
  O  O315  1  0.25546006  0.61047346  0.73156136  1
  O  O316  1  0.76484687  0.12751012  0.25581062  1
  O  O317  1  0.75416416  0.09319096  0.76237619  1
  O  O318  1  0.75677030  0.61662779  0.24842146  1
  O  O319  1  0.73527475  0.60532897  0.76060269  1
  O  O320  1  0.38878937  0.12835881  0.36441799  1
  O  O321  1  0.28175368  0.13181662  0.98099908  1
  O  O322  1  0.35721538  0.62459619  0.36426168  1
  O  O323  1  0.37515000  0.60940641  0.88619218  1
  O  O324  1  0.86466065  0.13103947  0.36018866  1
  O  O325  1  0.87347511  0.14040007  0.86631922  1
  O  O326  1  0.87477593  0.62409583  0.36182827  1
  O  O327  1  0.87529097  0.61087288  0.87914803  1
  O  O328  1  0.13139657  0.37885394  0.14024624  1
  O  O329  1  0.13780632  0.36677735  0.62574201  1
  O  O330  1  0.12123345  0.86450667  0.15937569  1
  O  O331  1  0.12705704  0.89060908  0.58867950  1
  O  O332  1  0.62541128  0.36585514  0.13310091  1
  O  O333  1  0.61903638  0.36381777  0.63233681  1
  O  O334  1  0.62473537  0.88435672  0.13334031  1
  O  O335  1  0.64044516  0.85350066  0.55772937  1
  O  O336  1  0.11191837  0.25772273  0.25805116  1
  O  O337  1  0.09634852  0.24618958  0.74086819  1
  O  O338  1  0.11656889  0.73780289  0.26126723  1
  O  O339  1  0.11509689  0.76369690  0.74556723  1
  O  O340  1  0.64264281  0.26109432  0.25625750  1
  O  O341  1  0.62173582  0.26068229  0.75385896  1
  O  O342  1  0.62585486  0.76344918  0.23711609  1
  O  O343  1  0.58045003  0.72144275  0.67773709  1
  O  O344  1  0.37104211  0.23029812  0.24514479  1
  O  O345  1  0.36360797  0.24243404  0.74801859  1
  O  O346  1  0.37376930  0.74483889  0.24805086  1
  O  O347  1  0.35952042  0.72342790  0.75867815  1
  O  O348  1  0.88293384  0.25563014  0.24110695  1
  O  O349  1  0.88718391  0.26576178  0.73955035  1
  O  O350  1  0.86235779  0.73528178  0.25072650  1
  O  O351  1  0.88521902  0.75396312  0.74605113  1
  O  O352  1  0.40769291  0.48835423  0.50959386  1
  O  O353  1  0.36355770  0.49120429  0.98828993  1
  O  O354  1  0.34857720  1.01346682  0.45877040  1
  O  O355  1  0.34501465  1.10612725  0.93886358  1
  O  O356  1  0.84811715  0.47626921  0.48686122  1
  O  O357  1  0.85810078  0.48821836  0.99415817  1
  O  O358  1  0.88318565  1.01417971  0.50382948  1
  O  O359  1  0.89455749  0.98621153  1.02098096  1
  O  O360  1  0.11347873  -0.00985508  0.00962477  1
  O  O361  1  0.14434006  0.01654955  0.46455179  1
  O  O362  1  0.11927119  0.52850031  -0.02791638  1
  O  O363  1  0.11059158  0.48901467  0.50546238  1
  O  O364  1  0.62761599  0.00103539  0.01548074  1
  O  O365  1  0.55570503  0.08799977  0.50417249  1
  O  O366  1  0.62992737  0.49505024  0.01955726  1
  O  O367  1  0.59285816  0.48452394  0.50375706  1
  O  O368  1  0.36263532  0.38389393  0.11052111  1
  O  O369  1  0.35438209  0.35210884  0.62951789  1
  O  O370  1  0.39182867  0.86347231  0.11769251  1
  O  O371  1  0.37450454  0.86515157  0.61189011  1
  O  O372  1  0.87119247  0.36455687  0.12175367  1
  O  O373  1  0.86626222  0.35542257  0.60679636  1
  O  O374  1  0.86627131  0.87667371  0.14274881  1
  O  O375  1  0.89432095  0.88949750  0.60216982  1
  O  O376  1  0.12669956  0.14800281  0.37266150  1
  O  O377  1  0.11811533  0.15057234  0.87435178  1
  O  O378  1  0.13925136  0.61555490  0.38454956  1
  O  O379  1  0.11854237  0.59166799  0.91376618  1
  O  O380  1  0.63927010  0.13408057  0.35523355  1
  O  O381  1  0.66234016  0.12037186  0.87843121  1
  O  O382  1  0.70307835  0.70496189  0.37240104  1
  O  O383  1  0.61126438  0.69903650  0.84002615  1
