# generated using pymatgen
data_VZnO4
_symmetry_space_group_name_H-M   'P 1'
_cell_length_a   16.92343732
_cell_length_b   16.91460009
_cell_length_c   16.97126869
_cell_angle_alpha   90.01958046
_cell_angle_beta   90.00868682
_cell_angle_gamma   89.72242052
_symmetry_Int_Tables_number   1
_chemical_formula_structural   VZnO4
_chemical_formula_sum   'V64 Zn64 O256'
_cell_volume   4858.02218634
_cell_formula_units_Z   64
loop_
 _symmetry_equiv_pos_site_id
 _symmetry_equiv_pos_as_xyz
  1  'x, y, z'
loop_
 _atom_site_type_symbol
 _atom_site_label
 _atom_site_symmetry_multiplicity
 _atom_site_fract_x
 _atom_site_fract_y
 _atom_site_fract_z
 _atom_site_occupancy
  V  V0  1  0.38959016  0.88455622  0.49959789  1
  V  V1  1  0.38741536  0.73927813  0.63540947  1
  V  V2  1  0.87542114  0.49897015  0.38710392  1
  V  V3  1  0.48916489  0.24131681  0.74588600  1
  V  V4  1  0.78044276  0.74718927  0.01219935  1
  V  V5  1  0.25679066  0.48798343  0.76158855  1
  V  V6  1  0.63012514  0.24121742  0.87896807  1
  V  V7  1  0.75588140  -0.00833921  0.25453355  1
  V  V8  1  0.49031469  0.13684718  0.12714739  1
  V  V9  1  0.61271167  0.49570171  0.62203575  1
  V  V10  1  0.48033437  0.00627429  0.00501845  1
  V  V11  1  0.11239342  0.86323027  0.29398757  1
  V  V12  1  -0.00972740  0.62346900  0.12346753  1
  V  V13  1  0.62509440  0.63733376  -0.02429780  1
  V  V14  1  -0.01519956  -0.00440738  -0.00247565  1
  V  V15  1  0.24665592  0.25722603  0.51303156  1
  V  V16  1  -0.00451899  0.37027802  0.36556508  1
  V  V17  1  0.62457107  0.75156267  0.35575859  1
  V  V18  1  0.62183515  0.61737829  0.50679790  1
  V  V19  1  0.00026890  0.13313286  0.11446513  1
  V  V20  1  0.35960903  0.86343405  0.01811765  1
  V  V21  1  0.50028717  0.86419081  0.87642094  1
  V  V22  1  0.87141785  0.49506447  0.86593801  1
  V  V23  1  0.48096327  0.24745947  0.25446363  1
  V  V24  1  0.85629393  0.25270202  0.11912158  1
  V  V25  1  0.86698765  0.24136305  0.64651110  1
  V  V26  1  0.63699168  0.12660901  0.00042975  1
  V  V27  1  0.13461778  0.76153014  0.86117925  1
  V  V28  1  0.13039663  0.65024646  0.01104342  1
  V  V29  1  0.12002153  0.11711598  0.49633428  1
  V  V30  1  0.13648292  0.37165959  0.24905714  1
  V  V31  1  0.75273303  0.75189144  0.51790470  1
  V  V32  1  0.74750044  0.49489257  0.23336879  1
  V  V33  1  0.11710421  0.63099335  0.44642759  1
  V  V34  1  0.26515941  0.13911549  0.85336672  1
  V  V35  1  0.87561551  0.86820543  0.51484374  1
  V  V36  1  0.36749432  0.00150677  0.86106398  1
  V  V37  1  0.50357812  0.87450318  0.35397345  1
  V  V38  1  0.14943318  0.12584727  -0.00540779  1
  V  V39  1  0.86765340  0.64075175  0.75155894  1
  V  V40  1  0.24660719  0.89031090  0.61824591  1
  V  V41  1  0.49687472  0.50560479  -0.01495227  1
  V  V42  1  0.87317617  0.62925560  0.24129757  1
  V  V43  1  0.37659979  0.01127500  0.36088463  1
  V  V44  1  0.86894872  0.34665197  0.49493886  1
  V  V45  1  0.49236459  0.38165482  0.37634242  1
  V  V46  1  -0.00826684  0.12081199  0.63548844  1
  V  V47  1  -0.00247175  0.87522760  0.86985353  1
  V  V48  1  0.75373552  0.62470515  0.37200380  1
  V  V49  1  0.12903989  0.24413649  0.36847028  1
  V  V50  1  0.12870167  0.48997517  0.12885000  1
  V  V51  1  0.26952933  0.73468168  0.48680587  1
  V  V52  1  0.37019292  0.38018934  0.50531346  1
  V  V53  1  0.62478029  0.37716835  0.76362559  1
  V  V54  1  0.14224101  -0.00062457  0.12888199  1
  V  V55  1  0.62273201  0.12103454  0.49634500  1
  V  V56  1  0.85699969  0.37057082  -0.00067759  1
  V  V57  1  0.10755345  0.24520881  0.85896824  1
  V  V58  1  0.00562039  0.47826555  -0.00291868  1
  V  V59  1  0.63603297  0.35546953  0.25504288  1
  V  V60  1  0.87156497  0.12314911  0.24896612  1
  V  V61  1  0.75085183  0.37902639  0.62305048  1
  V  V62  1  0.63323407  -0.00810323  0.12295952  1
  V  V63  1  -0.01749828  -0.00054895  0.48719521  1
  Zn  Zn64  1  0.19606438  0.21250411  0.17035657  1
  Zn  Zn65  1  0.16483363  0.13304363  0.70089257  1
  Zn  Zn66  1  0.14371885  0.67015740  0.23103979  1
  Zn  Zn67  1  0.17066025  0.75609771  0.66291845  1
  Zn  Zn68  1  0.68896805  0.17801936  0.18248632  1
  Zn  Zn69  1  0.67535725  0.19652886  0.67935053  1
  Zn  Zn70  1  0.69072431  0.81452442  0.17349825  1
  Zn  Zn71  1  0.65779906  0.62270505  0.77112610  1
  Zn  Zn72  1  0.33301989  0.43233198  0.27925285  1
  Zn  Zn73  1  0.27329660  0.26899511  0.72824582  1
  Zn  Zn74  1  0.30116154  0.83376438  0.31451311  1
  Zn  Zn75  1  0.30631572  0.81962546  0.81416724  1
  Zn  Zn76  1  0.81062681  0.30214132  0.30846647  1
  Zn  Zn77  1  0.80882964  0.31573419  0.81694597  1
  Zn  Zn78  1  0.81480727  0.81312258  0.30949191  1
  Zn  Zn79  1  0.82205712  0.80143933  0.83302573  1
  Zn  Zn80  1  0.20063370  0.44845760  0.42827569  1
  Zn  Zn81  1  0.19265962  0.40719672  0.94897521  1
  Zn  Zn82  1  0.20271811  0.93384057  0.42228807  1
  Zn  Zn83  1  0.18695391  0.94158873  0.93862875  1
  Zn  Zn84  1  0.69086084  0.42873429  0.43350427  1
  Zn  Zn85  1  0.68682318  0.45081124  0.93925089  1
  Zn  Zn86  1  0.69045511  0.93025028  0.43246853  1
  Zn  Zn87  1  0.68807638  0.92805615  0.94628533  1
  Zn  Zn88  1  0.30448779  0.06807633  0.18958609  1
  Zn  Zn89  1  0.29772105  0.05158074  0.51566633  1
  Zn  Zn90  1  0.33582223  0.45981987  0.08462359  1
  Zn  Zn91  1  0.32451413  0.56274113  0.57370655  1
  Zn  Zn92  1  0.81569444  0.06047202  0.06040413  1
  Zn  Zn93  1  0.81513748  0.06378265  0.55927360  1
  Zn  Zn94  1  0.80657908  0.56293749  0.05010972  1
  Zn  Zn95  1  0.80994933  0.56802944  0.56954650  1
  Zn  Zn96  1  0.49701809  0.43358473  0.15878822  1
  Zn  Zn97  1  0.44311943  0.41690390  0.68353705  1
  Zn  Zn98  1  0.44295233  0.93670732  0.18430669  1
  Zn  Zn99  1  0.42557921  0.88986599  0.70749970  1
  Zn  Zn100  1  0.93098402  0.43725694  0.18395849  1
  Zn  Zn101  1  0.95786288  0.51692265  0.68476084  1
  Zn  Zn102  1  0.95214709  0.94263874  0.19134049  1
  Zn  Zn103  1  0.96091015  0.92930579  0.67761462  1
  Zn  Zn104  1  0.05571232  0.05431601  0.30142428  1
  Zn  Zn105  1  0.07179044  0.04163072  0.81398212  1
  Zn  Zn106  1  0.05088600  0.54657653  0.31008402  1
  Zn  Zn107  1  0.06639620  0.57386637  0.82867808  1
  Zn  Zn108  1  0.56428934  0.06054307  0.30341460  1
  Zn  Zn109  1  0.55213785  0.06487613  0.82167859  1
  Zn  Zn110  1  0.58439396  0.54098649  0.33547380  1
  Zn  Zn111  1  0.48311336  0.58231518  0.82156385  1
  Zn  Zn112  1  0.43209283  0.19806543  0.43358486  1
  Zn  Zn113  1  0.44262254  0.19463318  0.92745569  1
  Zn  Zn114  1  0.44333597  0.69024430  0.43597090  1
  Zn  Zn115  1  0.41735706  0.68448819  0.94825562  1
  Zn  Zn116  1  0.94182574  0.18055847  0.42582550  1
  Zn  Zn117  1  0.93011310  0.18434663  0.92669111  1
  Zn  Zn118  1  0.93141101  0.69925410  0.42649615  1
  Zn  Zn119  1  0.95598545  0.68006572  0.92906468  1
  Zn  Zn120  1  0.07400812  0.30089840  0.05794868  1
  Zn  Zn121  1  0.03772681  0.29140252  0.54571895  1
  Zn  Zn122  1  0.04491511  0.82516627  0.08287956  1
  Zn  Zn123  1  0.08854725  0.82577012  0.50419049  1
  Zn  Zn124  1  0.57206834  0.31700571  0.06332848  1
  Zn  Zn125  1  0.55529370  0.31086618  0.56095629  1
  Zn  Zn126  1  0.57219128  0.82334433  0.02617096  1
  Zn  Zn127  1  0.55088590  0.78680321  0.54212590  1
  O  O128  1  0.11175626  0.12859708  0.10555643  1
  O  O129  1  0.10021423  0.13665221  0.60367061  1
  O  O130  1  0.11058618  0.60645193  0.13221665  1
  O  O131  1  0.11538440  0.64559562  0.63011638  1
  O  O132  1  0.61786426  0.11821936  0.11200482  1
  O  O133  1  0.61897449  0.12099170  0.60083552  1
  O  O134  1  0.51401636  0.61900134  0.15771371  1
  O  O135  1  0.63597104  0.60499299  0.61097384  1
  O  O136  1  0.38855705  0.37685307  0.37328514  1
  O  O137  1  0.34866502  0.33579887  0.95983537  1
  O  O138  1  0.38979404  0.87841086  0.37472878  1
  O  O139  1  0.37827766  0.89123088  0.88722959  1
  O  O140  1  0.87625172  0.37603931  0.38226649  1
  O  O141  1  0.87276200  0.37751375  0.89202382  1
  O  O142  1  0.89091381  0.85497899  0.38813491  1
  O  O143  1  0.89772297  0.87283688  0.87889126  1
  O  O144  1  0.27638150  0.01326849  0.39284803  1
  O  O145  1  0.26451998  0.01211217  0.87487494  1
  O  O146  1  0.26026711  0.48690408  0.34355414  1
  O  O147  1  0.25829967  0.46167953  0.86330458  1
  O  O148  1  0.74630121  -0.00728104  0.35373245  1
  O  O149  1  0.70435783  -0.00885316  0.84475105  1
  O  O150  1  0.75495090  0.51212369  0.37469178  1
  O  O151  1  0.77150735  0.49983126  0.87610600  1
  O  O152  1  0.22676088  0.48652603  0.11961836  1
  O  O153  1  0.25212558  0.51474662  0.65965460  1
  O  O154  1  0.24197544  1.00795361  0.11569094  1
  O  O155  1  0.24757836  0.98880496  0.59762910  1
  O  O156  1  0.75826749  0.49937910  0.13572294  1
  O  O157  1  0.75070219  0.48145084  0.62255016  1
  O  O158  1  0.73586499  0.99731161  0.11858222  1
  O  O159  1  0.74096440  1.03518866  0.65474582  1
  O  O160  1  -0.01241144  0.37183944  0.26512393  1
  O  O161  1  0.03614847  0.39330288  0.71704779  1
  O  O162  1  0.03463080  0.92761582  0.27121413  1
  O  O163  1  0.00919881  0.89190874  0.76842734  1
  O  O164  1  0.51268636  0.35823639  0.26225112  1
  O  O165  1  0.52209938  0.36586410  0.74705471  1
  O  O166  1  0.49831536  0.86310418  0.25511246  1
  O  O167  1  0.51220540  0.88896428  0.77774734  1
  O  O168  1  0.51093289  0.13744452  0.23716971  1
  O  O169  1  0.50180308  0.13849031  0.75593445  1
  O  O170  1  0.42500371  0.61351717  0.29785935  1
  O  O171  1  0.55261466  0.61088650  0.74494595  1
  O  O172  1  0.98185670  0.11280209  0.22459536  1
  O  O173  1  1.00001274  0.10934973  0.73229529  1
  O  O174  1  0.98152437  0.60781775  0.23844792  1
  O  O175  1  0.99158785  0.60696409  0.75234775  1
  O  O176  1  0.38537144  0.27893870  -0.00209236  1
  O  O177  1  0.34974834  0.25031432  0.48986384  1
  O  O178  1  0.37238228  0.76302737  0.01310174  1
  O  O179  1  0.38186811  0.75753642  0.50897884  1
  O  O180  1  0.87526015  0.26256913  0.00582549  1
  O  O181  1  0.87091387  0.24673604  0.49383367  1
  O  O182  1  0.87753425  0.72754863  -0.00107011  1
  O  O183  1  0.86527937  0.75596072  0.50605649  1
  O  O184  1  0.12683774  0.25106512  0.49002489  1
  O  O185  1  0.10683741  0.22223573  0.97489384  1
  O  O186  1  0.15382655  0.72397887  0.49303387  1
  O  O187  1  0.12368563  0.74888437  1.02933486  1
  O  O188  1  0.62450300  0.22483670  0.49616557  1
  O  O189  1  0.61771742  0.23953153  0.99150113  1
  O  O190  1  0.64034399  0.73990144  0.49295103  1
  O  O191  1  0.61115119  0.72111230  1.03697536  1
  O  O192  1  0.50576711  0.24204646  0.13280677  1
  O  O193  1  0.51397555  0.25044756  0.64493301  1
  O  O194  1  0.45314346  0.65370914  0.13228610  1
  O  O195  1  0.48770083  0.76724643  0.62868776  1
  O  O196  1  0.99294160  0.23552428  0.11583185  1
  O  O197  1  0.97799268  0.23647249  0.62372127  1
  O  O198  1  1.00317996  0.71965572  0.12655075  1
  O  O199  1  1.04169524  0.64510450  0.63906740  1
  O  O200  1  0.00672915  0.26484830  0.38243174  1
  O  O201  1  0.00786636  0.23045998  0.85572811  1
  O  O202  1  -0.04696007  0.80033197  0.37245119  1
  O  O203  1  0.01520127  0.76814079  0.88351067  1
  O  O204  1  0.49811530  0.25337287  0.35955319  1
  O  O205  1  0.51731847  0.25357759  0.86338487  1
  O  O206  1  0.51796904  0.75306698  0.37071946  1
  O  O207  1  0.47873673  0.76838146  0.88108668  1
  O  O208  1  0.22496342  0.13934527  0.50219413  1
  O  O209  1  0.24519209  0.13372859  1.00352265  1
  O  O210  1  0.28182451  0.63530042  0.49613909  1
  O  O211  1  0.22297684  0.62371772  1.01675252  1
  O  O212  1  0.72805100  0.11624757  0.50023605  1
  O  O213  1  0.73501856  0.12181482  1.00296523  1
  O  O214  1  0.74998627  0.63641898  0.49261639  1
  O  O215  1  0.73987034  0.64138078  1.00158059  1
  O  O216  1  0.29115128  0.37551610  0.00755776  1
  O  O217  1  0.25488392  0.36648122  0.49423477  1
  O  O218  1  0.26336144  0.88250013  -0.00263631  1
  O  O219  1  0.27365201  0.86694923  0.49503700  1
  O  O220  1  0.75831380  0.38260382  0.00337035  1
  O  O221  1  0.76271095  0.37562672  0.50618118  1
  O  O222  1  0.76137249  0.85837940  -0.00488580  1
  O  O223  1  0.76225715  0.86371338  0.49451975  1
  O  O224  1  0.11863318  0.48467799  0.24030852  1
  O  O225  1  0.15652850  0.51384388  0.77233380  1
  O  O226  1  0.13630762  1.03526578  0.22493067  1
  O  O227  1  0.14440621  1.02798314  0.73442756  1
  O  O228  1  0.64491765  0.50100894  0.25126418  1
  O  O229  1  0.63192422  0.47870294  0.72866419  1
  O  O230  1  0.63879884  1.00622003  0.23129870  1
  O  O231  1  0.64444458  0.98935196  0.79687720  1
  O  O232  1  0.37113678  -0.00329284  0.25655951  1
  O  O233  1  0.38132856  -0.00961020  0.76416255  1
  O  O234  1  0.41157919  0.54790769  0.26119900  1
  O  O235  1  0.36032401  0.46313055  0.75185584  1
  O  O236  1  0.86394220  0.00742123  0.23459744  1
  O  O237  1  0.85470481  -0.02647648  0.75245674  1
  O  O238  1  0.86198489  0.49793348  0.26155896  1
  O  O239  1  0.88726899  0.47332192  0.76924441  1
  O  O240  1  0.11156539  0.37262067  0.36493103  1
  O  O241  1  0.12677077  0.34243378  0.88472721  1
  O  O242  1  0.11561206  0.86420137  0.40037703  1
  O  O243  1  0.12230558  0.86799897  0.87859495  1
  O  O244  1  0.61589975  0.37940947  0.36309517  1
  O  O245  1  0.63369490  0.37458107  0.86563945  1
  O  O246  1  0.61718020  0.86108612  0.37593645  1
  O  O247  1  0.59782272  0.86561888  0.91467756  1
  O  O248  1  0.39338096  0.12272144  0.12826834  1
  O  O249  1  0.38125921  0.12077316  0.59318781  1
  O  O250  1  0.30245665  0.61970942  0.17742156  1
  O  O251  1  0.38520456  0.63892908  0.63483282  1
  O  O252  1  0.87904690  0.13750909  0.11959923  1
  O  O253  1  0.87640869  0.13323225  0.62487220  1
  O  O254  1  0.87974474  0.61154497  0.13239598  1
  O  O255  1  0.88009098  0.60193203  0.65063121  1
  O  O256  1  0.18539634  0.28451145  0.08915703  1
  O  O257  1  0.24478198  0.25545107  0.61221944  1
  O  O258  1  0.25923592  0.76847459  0.16390983  1
  O  O259  1  0.27261483  0.76009380  0.60695023  1
  O  O260  1  0.75756250  0.24613126  0.11627756  1
  O  O261  1  0.75997930  0.25138596  0.62496157  1
  O  O262  1  0.76380915  0.75763101  0.11167607  1
  O  O263  1  0.74542057  0.75031839  0.61241028  1
  O  O264  1  0.22601992  0.25006549  0.38312754  1
  O  O265  1  0.26128516  0.23402618  0.87802063  1
  O  O266  1  0.27384365  0.74916150  0.38695315  1
  O  O267  1  0.23548281  0.75865282  0.87579857  1
  O  O268  1  0.74997444  0.25802393  0.38831348  1
  O  O269  1  0.73019394  0.25319589  0.87385130  1
  O  O270  1  0.74236329  0.73975991  0.37341826  1
  O  O271  1  0.74355797  0.77499553  0.90773191  1
  O  O272  1  -0.01126107  0.11470021  0.00530725  1
  O  O273  1  -0.00315824  0.11506841  0.50277559  1
  O  O274  1  0.01059589  0.60796148  0.01346432  1
  O  O275  1  0.01849174  0.64027599  0.46602922  1
  O  O276  1  0.50215152  0.12092818  0.00949195  1
  O  O277  1  0.51799763  0.12212195  0.49510253  1
  O  O278  1  0.51237211  0.61930514  -0.02605400  1
  O  O279  1  0.52330941  0.63193976  0.49759039  1
  O  O280  1  0.48504377  0.35677291  0.48339286  1
  O  O281  1  0.51329565  0.41181680  1.03669823  1
  O  O282  1  0.49336242  0.86722226  0.48294010  1
  O  O283  1  0.47940922  0.89231773  1.00158687  1
  O  O284  1  0.97386305  0.37065777  0.49220580  1
  O  O285  1  0.99507069  0.37718927  1.00594867  1
  O  O286  1  0.98832925  0.88899989  0.50634056  1
  O  O287  1  1.01264210  0.89390484  0.99096911  1
  O  O288  1  0.50038954  0.48354165  0.37615265  1
  O  O289  1  0.49488907  0.48552716  0.88647049  1
  O  O290  1  0.49962019  0.98101633  0.35864866  1
  O  O291  1  0.48712246  1.00221553  0.89351907  1
  O  O292  1  0.98805149  0.48168505  0.37716460  1
  O  O293  1  1.00142396  0.49779867  0.89502859  1
  O  O294  1  0.99184524  1.01135697  0.39011389  1
  O  O295  1  1.00365774  0.99790680  0.88955761  1
  O  O296  1  0.00968427  0.01223008  0.10811041  1
  O  O297  1  -0.01212827  0.01463996  0.60737184  1
  O  O298  1  0.00135165  0.49980190  0.11418318  1
  O  O299  1  0.03566991  0.47438961  0.61114251  1
  O  O300  1  0.50967917  0.01160306  0.11855253  1
  O  O301  1  0.42717746  0.07674656  0.62958653  1
  O  O302  1  0.53447629  0.54530220  0.12381808  1
  O  O303  1  0.51447168  0.48654776  0.61992710  1
  O  O304  1  0.23316083  0.36571413  0.24313526  1
  O  O305  1  0.23878346  0.38653229  0.73731995  1
  O  O306  1  0.21057021  0.89494016  0.28288072  1
  O  O307  1  0.25529533  0.87873792  0.71800341  1
  O  O308  1  0.74362013  0.38433170  0.25590006  1
  O  O309  1  0.73622228  0.36429408  0.73107089  1
  O  O310  1  0.75705660  0.88480628  0.24119907  1
  O  O311  1  0.80277955  0.92102330  0.75565302  1
  O  O312  1  0.25145229  0.15101707  0.23921713  1
  O  O313  1  0.27224417  0.14420258  0.75099151  1
  O  O314  1  0.25853695  0.61992140  0.23665823  1
  O  O315  1  0.28838531  0.58499356  0.78557628  1
  O  O316  1  0.76196572  0.10840494  0.23717802  1
  O  O317  1  0.73155485  0.08887858  0.70721978  1
  O  O318  1  0.76210898  0.60953280  0.25722887  1
  O  O319  1  0.76714780  0.62799178  0.75836196  1
  O  O320  1  0.40027123  0.10653280  0.37381404  1
  O  O321  1  0.37134521  0.11494748  0.87937317  1
  O  O322  1  0.38047718  0.62487454  0.36539843  1
  O  O323  1  0.38983697  0.63241857  0.85280210  1
  O  O324  1  0.87974269  0.12918789  0.34747722  1
  O  O325  1  0.84156929  0.13144186  0.88688015  1
  O  O326  1  0.87141373  0.61822643  0.36374560  1
  O  O327  1  0.88990563  0.60645644  0.86026571  1
  O  O328  1  0.10245819  0.38211029  0.14432587  1
  O  O329  1  0.06483576  0.40688661  0.64731750  1
  O  O330  1  0.12313713  0.89948720  0.13091635  1
  O  O331  1  0.14556192  0.85449618  0.60098499  1
  O  O332  1  0.61234547  0.37871379  0.15627218  1
  O  O333  1  0.63805350  0.38101228  0.60691606  1
  O  O334  1  0.61712556  0.88806059  0.11663750  1
  O  O335  1  0.66081012  0.85526212  0.70449311  1
  O  O336  1  0.11731307  0.26162849  0.26143337  1
  O  O337  1  0.14529875  0.23589166  0.76094575  1
  O  O338  1  0.10235569  0.77112971  0.25419197  1
  O  O339  1  0.12538302  0.74563798  0.76268271  1
  O  O340  1  0.64022627  0.25473247  0.25227990  1
  O  O341  1  0.62385090  0.25561967  0.76194542  1
  O  O342  1  0.63412872  0.75121163  0.25788008  1
  O  O343  1  0.68002237  0.80913339  0.75751658  1
  O  O344  1  0.38630330  0.25037808  0.24610020  1
  O  O345  1  0.39054637  0.26423875  0.75056963  1
  O  O346  1  0.31859108  0.77096295  0.20798413  1
  O  O347  1  0.37477832  0.77594165  0.73204430  1
  O  O348  1  0.86590782  0.23657384  0.23044583  1
  O  O349  1  0.86923756  0.24950559  0.74444456  1
  O  O350  1  0.86709124  0.72727799  0.24872812  1
  O  O351  1  0.87753141  0.74067733  0.75469202  1
  O  O352  1  0.36519560  0.48065311  0.50609896  1
  O  O353  1  0.39958632  0.52097908  1.01369412  1
  O  O354  1  0.39168698  0.98747960  0.48349134  1
  O  O355  1  0.38251027  1.00710550  1.00406702  1
  O  O356  1  0.86813146  0.50499159  0.48748456  1
  O  O357  1  0.88470463  0.48688589  0.99611321  1
  O  O358  1  0.87349605  0.98640404  0.49696015  1
  O  O359  1  0.88496307  0.99183531  1.00418977  1
  O  O360  1  0.12509012  0.01758180  0.00424663  1
  O  O361  1  0.11539635  0.01564367  0.48910705  1
  O  O362  1  0.11653197  0.47989092  0.01237882  1
  O  O363  1  0.14617276  0.53913257  0.47734498  1
  O  O364  1  0.61849913  0.01134600  0.00621092  1
  O  O365  1  0.62407836  0.01392076  0.49751422  1
  O  O366  1  0.62326407  0.52838391  -0.01045776  1
  O  O367  1  0.63283908  0.50967854  0.50194173  1
  O  O368  1  0.38557588  0.42748820  0.17934668  1
  O  O369  1  0.38314492  0.36301228  0.60328143  1
  O  O370  1  0.37138143  0.88510223  0.11622482  1
  O  O371  1  0.37400236  0.88607477  0.60560637  1
  O  O372  1  0.87508814  0.36055338  0.11632943  1
  O  O373  1  0.86307568  0.35418689  0.61036718  1
  O  O374  1  0.94047387  0.85339195  0.12790776  1
  O  O375  1  0.87809001  0.87507321  0.61379668  1
  O  O376  1  0.10537711  0.13842482  0.38370754  1
  O  O377  1  0.15006820  0.12457637  0.87755020  1
  O  O378  1  0.12530365  0.62947102  0.34253076  1
  O  O379  1  0.11424971  0.65206119  0.90086312  1
  O  O380  1  0.62302220  0.11656557  0.39202915  1
  O  O381  1  0.62382027  0.13219274  0.88847718  1
  O  O382  1  0.63463519  0.63293420  0.38182070  1
  O  O383  1  0.63709704  0.66153279  0.88057932  1
