# generated using pymatgen
data_VZnO4
_symmetry_space_group_name_H-M   'P 1'
_cell_length_a   16.96106383
_cell_length_b   17.03060660
_cell_length_c   17.05468926
_cell_angle_alpha   89.38453819
_cell_angle_beta   89.92054225
_cell_angle_gamma   89.84005659
_symmetry_Int_Tables_number   1
_chemical_formula_structural   VZnO4
_chemical_formula_sum   'V64 Zn64 O256'
_cell_volume   4926.06193779
_cell_formula_units_Z   64
loop_
 _symmetry_equiv_pos_site_id
 _symmetry_equiv_pos_as_xyz
  1  'x, y, z'
loop_
 _atom_site_type_symbol
 _atom_site_label
 _atom_site_symmetry_multiplicity
 _atom_site_fract_x
 _atom_site_fract_y
 _atom_site_fract_z
 _atom_site_occupancy
  V  V0  1  0.25630768  0.13915622  0.38202098  1
  V  V1  1  0.50793623  0.49113766  0.00694524  1
  V  V2  1  0.00292383  0.15029929  0.10816724  1
  V  V3  1  0.63536785  0.75181441  0.88081906  1
  V  V4  1  0.50763637  0.36586816  0.36995115  1
  V  V5  1  -0.01328207  0.60016676  0.12436162  1
  V  V6  1  0.56815075  0.86023271  0.23621455  1
  V  V7  1  0.12321190  0.77042660  0.86602502  1
  V  V8  1  0.51521845  0.63498308  0.13068319  1
  V  V9  1  0.36088185  0.23898755  0.61676883  1
  V  V10  1  0.61784837  0.49041680  0.64027675  1
  V  V11  1  0.71572658  0.11619181  0.83017331  1
  V  V12  1  -0.00065744  -0.00249571  0.47658395  1
  V  V13  1  0.74362357  0.37849088  0.62485577  1
  V  V14  1  0.37064905  0.51035105  0.36938779  1
  V  V15  1  0.49884179  0.49947495  0.50318503  1
  V  V16  1  0.13725535  0.87396375  0.24949707  1
  V  V17  1  0.36176612  0.76914996  0.62733598  1
  V  V18  1  0.12639805  -0.01708329  0.62194944  1
  V  V19  1  0.77583933  -0.02654817  0.27802990  1
  V  V20  1  0.36723429  0.11706672  0.74914939  1
  V  V21  1  0.24282643  -0.01229411  0.75239289  1
  V  V22  1  0.02693898  0.48884262  -0.00730437  1
  V  V23  1  0.36897299  0.36432848  0.49379099  1
  V  V24  1  -0.00147941  0.28520359  0.76452765  1
  V  V25  1  0.82129030  0.83027697  0.56740931  1
  V  V26  1  0.58119325  0.26582785  0.84392463  1
  V  V27  1  0.75031643  0.61637920  0.88822532  1
  V  V28  1  0.00392139  0.85306551  0.36816398  1
  V  V29  1  0.25098496  0.37838644  0.63562502  1
  V  V30  1  0.63534025  0.88441736  0.73524208  1
  V  V31  1  0.63465429  0.24675736  0.37167194  1
  V  V32  1  0.87470687  0.28135379  0.14181356  1
  V  V33  1  0.13184619  0.36772537  0.27450500  1
  V  V34  1  0.12189275  0.01496809  0.11629546  1
  V  V35  1  0.09875367  0.48308735  0.61438381  1
  V  V36  1  0.48649758  0.87537687  0.86611881  1
  V  V37  1  0.85464313  0.61642952  0.74288198  1
  V  V38  1  0.12628885  0.63505839  0.50587453  1
  V  V39  1  0.38585926  0.24798940  0.13096956  1
  V  V40  1  0.82421816  0.37537625  -0.02728554  1
  V  V41  1  0.63046039  0.12502121  0.50037052  1
  V  V42  1  0.86362968  0.25120348  0.60547394  1
  V  V43  1  0.50468867  -0.00490065  0.00625900  1
  V  V44  1  0.24799167  0.14818742  0.87363577  1
  V  V45  1  0.63558193  0.47455237  0.13293360  1
  V  V46  1  0.35963052  0.87680296  -0.00392495  1
  V  V47  1  0.36656043  0.73588114  0.12628964  1
  V  V48  1  0.74724319  0.48504536  0.26022779  1
  V  V49  1  0.24598016  0.01805690  0.24465140  1
  V  V50  1  0.24981042  0.71864735  -0.01211432  1
  V  V51  1  -0.01140228  0.12021144  0.62526381  1
  V  V52  1  0.13154838  0.13838297  0.50051210  1
  V  V53  1  0.60645297  0.75628816  0.38925515  1
  V  V54  1  0.37551806  -0.00665974  0.37218875  1
  V  V55  1  0.74964767  0.62981601  0.37531061  1
  V  V56  1  0.87964802  0.13941912  0.27659851  1
  V  V57  1  -0.00559700  0.63997375  0.63667583  1
  V  V58  1  0.87962551  0.49029884  0.39396166  1
  V  V59  1  0.48890327  -0.01168366  0.50073556  1
  V  V60  1  0.62611747  0.62146389  0.50801727  1
  V  V61  1  0.49778401  0.12816870  0.61685703  1
  V  V62  1  0.49697268  0.73966140  0.74195126  1
  V  V63  1  0.24790574  0.50646519  0.23943344  1
  Zn  Zn64  1  0.16743789  0.23821020  0.14653237  1
  Zn  Zn65  1  0.18140023  0.19031548  0.68581019  1
  Zn  Zn66  1  0.19368541  0.68597007  0.18480412  1
  Zn  Zn67  1  0.15216391  0.76320861  0.65349069  1
  Zn  Zn68  1  0.70823960  0.21957739  0.21064836  1
  Zn  Zn69  1  0.67735634  0.18813494  0.68262141  1
  Zn  Zn70  1  0.67301131  0.69317761  0.21396016  1
  Zn  Zn71  1  0.68134670  0.69745284  0.67771796  1
  Zn  Zn72  1  0.30695030  0.32299847  0.31635214  1
  Zn  Zn73  1  0.37225748  0.30190162  0.81598854  1
  Zn  Zn74  1  0.34212094  0.83567317  0.28751638  1
  Zn  Zn75  1  0.30669853  0.79627269  0.80732976  1
  Zn  Zn76  1  0.81885125  0.31323117  0.32658619  1
  Zn  Zn77  1  0.80838236  0.29081174  0.79795093  1
  Zn  Zn78  1  0.80588960  0.82333394  0.39444349  1
  Zn  Zn79  1  0.80303994  0.78734365  0.76393688  1
  Zn  Zn80  1  0.18416704  0.44425307  0.44131728  1
  Zn  Zn81  1  0.19337166  0.42740510  1.06427667  1
  Zn  Zn82  1  0.16431966  0.96357638  0.41346034  1
  Zn  Zn83  1  0.17916557  0.94564573  0.92871067  1
  Zn  Zn84  1  0.69118649  0.43156917  0.44519662  1
  Zn  Zn85  1  0.64977887  0.44720544  0.91245735  1
  Zn  Zn86  1  0.68363651  0.94375901  0.45134925  1
  Zn  Zn87  1  0.66685722  0.95421046  0.90653060  1
  Zn  Zn88  1  0.31087046  0.06171527  0.04821174  1
  Zn  Zn89  1  0.30629633  0.04810993  0.55841823  1
  Zn  Zn90  1  0.32440428  0.55523491  0.05952602  1
  Zn  Zn91  1  0.29924473  0.55493099  0.54958781  1
  Zn  Zn92  1  0.80795303  0.06819433  0.14187351  1
  Zn  Zn93  1  0.81197049  0.03554359  0.56264404  1
  Zn  Zn94  1  0.81032062  0.55199380  0.06655223  1
  Zn  Zn95  1  0.81003381  0.56385451  0.56893488  1
  Zn  Zn96  1  0.44840998  0.44990674  0.19401278  1
  Zn  Zn97  1  0.43250701  0.43241616  0.68535206  1
  Zn  Zn98  1  0.41518214  0.93783509  0.17470075  1
  Zn  Zn99  1  0.43299920  0.93698258  0.68253018  1
  Zn  Zn100  1  0.95175474  0.46950077  0.23102850  1
  Zn  Zn101  1  0.91487688  0.43397833  0.68077252  1
  Zn  Zn102  1  0.99353012  1.00233217  0.25879031  1
  Zn  Zn103  1  0.92384149  0.93628880  0.66045250  1
  Zn  Zn104  1  0.08562191  0.16882930  0.29744136  1
  Zn  Zn105  1  0.08562611  0.09369383  0.79081736  1
  Zn  Zn106  1  0.06714214  0.56620314  0.32270587  1
  Zn  Zn107  1  0.03637279  0.49564061  0.78655531  1
  Zn  Zn108  1  0.59553641  0.03455821  0.34225813  1
  Zn  Zn109  1  0.54548887  0.05678560  0.80376805  1
  Zn  Zn110  1  0.56224371  0.56221862  0.31370039  1
  Zn  Zn111  1  0.55930821  0.57131433  0.82109942  1
  Zn  Zn112  1  0.43977596  0.18185925  0.43314504  1
  Zn  Zn113  1  0.49527664  0.19690058  0.95610016  1
  Zn  Zn114  1  0.43057696  0.68623973  0.45078161  1
  Zn  Zn115  1  0.44971786  0.68360210  0.94631802  1
  Zn  Zn116  1  0.93607567  0.18140930  0.45763764  1
  Zn  Zn117  1  0.97746328  0.27648963  0.96719177  1
  Zn  Zn118  1  0.93062029  0.68592838  0.44914476  1
  Zn  Zn119  1  0.96661042  0.62937761  0.90018095  1
  Zn  Zn120  1  0.03143165  0.36734696  0.11969312  1
  Zn  Zn121  1  0.07397137  0.29487274  0.59770038  1
  Zn  Zn122  1  0.09723956  0.81204284  0.07203430  1
  Zn  Zn123  1  0.02542866  0.80673450  0.55753479  1
  Zn  Zn124  1  0.62433021  0.32471401  0.02510147  1
  Zn  Zn125  1  0.56216234  0.31073218  0.55913088  1
  Zn  Zn126  1  0.55229057  0.81052843  0.05308541  1
  Zn  Zn127  1  0.55960620  0.81218016  0.56571174  1
  O  O128  1  0.11281961  0.13931810  0.13216099  1
  O  O129  1  0.11474745  0.11855811  0.61346060  1
  O  O130  1  0.09825654  0.64848591  0.12085334  1
  O  O131  1  0.09757156  0.59739175  0.61903224  1
  O  O132  1  0.62769398  0.14253396  0.12277436  1
  O  O133  1  0.60281998  0.12560535  0.61390459  1
  O  O134  1  0.61522864  0.65377066  0.12753639  1
  O  O135  1  0.62846729  0.60772859  0.61439127  1
  O  O136  1  0.38553006  0.37698837  0.38447721  1
  O  O137  1  0.33868052  0.50330978  0.83541999  1
  O  O138  1  0.36641460  0.89384832  0.37800532  1
  O  O139  1  0.38265071  0.86117415  0.87803973  1
  O  O140  1  0.86863047  0.39021484  0.38745245  1
  O  O141  1  0.85319787  0.36087013  0.87832570  1
  O  O142  1  0.90853518  0.87918977  0.36756905  1
  O  O143  1  0.85875730  0.90105020  0.92501075  1
  O  O144  1  0.25795783  0.01205384  0.36933035  1
  O  O145  1  0.23500740  0.01589259  0.85203473  1
  O  O146  1  0.26883042  0.49755085  0.37556511  1
  O  O147  1  0.35506703  0.55380580  0.88592922  1
  O  O148  1  0.71689115  0.00785078  0.35668701  1
  O  O149  1  0.74248713  0.02994048  0.88070732  1
  O  O150  1  0.74240028  0.50746552  0.37430791  1
  O  O151  1  0.72588779  0.52152193  0.87134035  1
  O  O152  1  0.25625415  0.49506579  0.13403618  1
  O  O153  1  0.26515896  0.47823000  0.62601476  1
  O  O154  1  0.24314643  1.03054282  0.13808175  1
  O  O155  1  0.23169439  0.99568123  0.62784958  1
  O  O156  1  0.74353104  0.50262726  0.14930616  1
  O  O157  1  0.73135021  0.48643359  0.62342108  1
  O  O158  1  0.73853605  0.98843333  0.18496803  1
  O  O159  1  0.81718438  0.93697486  0.61775046  1
  O  O160  1  0.03529414  0.39066616  0.23902151  1
  O  O161  1  -0.00832943  0.38721621  0.75854733  1
  O  O162  1  0.02278778  0.88780101  0.26241216  1
  O  O163  1  -0.06122474  0.90227515  0.77053110  1
  O  O164  1  0.50140124  0.38369402  0.27262593  1
  O  O165  1  0.41739957  0.39827162  0.78628108  1
  O  O166  1  0.46558335  0.85877120  0.24369785  1
  O  O167  1  0.49561493  0.87078969  0.75784705  1
  O  O168  1  0.58028852  0.10318886  0.16192213  1
  O  O169  1  0.47613986  0.10645167  0.72373881  1
  O  O170  1  0.50228569  0.61730700  0.23113335  1
  O  O171  1  0.50935645  0.64179190  0.74775407  1
  O  O172  1  0.98940766  0.12426195  0.26219094  1
  O  O173  1  0.99750454  0.11573186  0.72490668  1
  O  O174  1  1.00418498  0.58094142  0.22675077  1
  O  O175  1  0.98881856  0.59203412  0.73119919  1
  O  O176  1  0.40953683  0.25288429  0.03052828  1
  O  O177  1  0.37777359  0.25888303  0.50253907  1
  O  O178  1  0.35995214  0.74869976  -0.00632208  1
  O  O179  1  0.37509795  0.72901770  0.53507538  1
  O  O180  1  0.87565988  0.29472486  0.02605984  1
  O  O181  1  0.85899949  0.24737647  0.50671886  1
  O  O182  1  0.92138364  0.79899523  0.04850592  1
  O  O183  1  0.85604282  0.76494396  0.48989789  1
  O  O184  1  0.12572875  0.23540624  0.50999481  1
  O  O185  1  0.15565937  0.36164494  0.90669488  1
  O  O186  1  0.11929893  0.73785987  0.53836218  1
  O  O187  1  0.14868248  0.75173860  0.99341057  1
  O  O188  1  0.62079677  0.23061246  0.49864816  1
  O  O189  1  0.60106319  0.24218979  0.95468606  1
  O  O190  1  0.61206188  0.72591212  0.50661749  1
  O  O191  1  0.62531521  0.76244664  0.97880323  1
  O  O192  1  0.48495377  0.23148177  0.15560441  1
  O  O193  1  0.48462566  0.23305724  0.61350388  1
  O  O194  1  0.47985922  0.73907676  0.11354861  1
  O  O195  1  0.48963958  0.75673077  0.63911184  1
  O  O196  1  0.98975820  0.25411562  0.13528503  1
  O  O197  1  0.98134329  0.22908947  0.60053204  1
  O  O198  1  1.03733215  0.70629032  0.12052587  1
  O  O199  1  1.02314447  0.73258124  0.65799309  1
  O  O200  1  -0.00366537  0.28435501  0.41154965  1
  O  O201  1  0.00383111  0.25760121  0.85964015  1
  O  O202  1  0.00056600  0.75418845  0.37915152  1
  O  O203  1  0.04149318  0.71258015  0.88193729  1
  O  O204  1  0.50155494  0.26194703  0.37988352  1
  O  O205  1  0.47666132  0.25380467  0.85585959  1
  O  O206  1  0.50644922  0.74506460  0.39080339  1
  O  O207  1  0.50805974  0.75571050  0.86416080  1
  O  O208  1  0.23934405  0.11984353  0.49355922  1
  O  O209  1  0.26248411  0.12579929  0.97094357  1
  O  O210  1  0.22872010  0.63168454  0.51415365  1
  O  O211  1  0.25528434  0.61966701  0.98916399  1
  O  O212  1  0.72577797  0.09899516  0.51700358  1
  O  O213  1  0.77502446  0.09698352  1.02331703  1
  O  O214  1  0.72952572  0.61153770  0.49446320  1
  O  O215  1  0.76162453  0.62164407  0.98601623  1
  O  O216  1  0.26388542  0.40721662  -0.03171261  1
  O  O217  1  0.26949659  0.37832960  0.49551423  1
  O  O218  1  0.26034143  0.87727314  -0.01888186  1
  O  O219  1  0.23473117  0.77688000  0.42882778  1
  O  O220  1  0.72116057  0.37155890  -0.02272144  1
  O  O221  1  0.72883836  0.36014554  0.52438873  1
  O  O222  1  0.80020102  0.87306069  -0.04242101  1
  O  O223  1  0.76615574  0.88141997  0.48979990  1
  O  O224  1  0.14672022  0.49301530  0.26776343  1
  O  O225  1  0.12099535  0.48152137  0.71372630  1
  O  O226  1  0.13745713  1.00122560  0.24035319  1
  O  O227  1  0.13066006  1.00409482  0.73178370  1
  O  O228  1  0.63444506  0.50166760  0.24512070  1
  O  O229  1  0.60555126  0.50373615  0.73557296  1
  O  O230  1  0.59529812  0.94981132  0.26994093  1
  O  O231  1  0.61332726  0.98131560  0.75146886  1
  O  O232  1  0.35893242  0.00221639  0.25702785  1
  O  O233  1  0.35130404  0.01023015  0.72782012  1
  O  O234  1  0.36525421  0.49201048  0.26252792  1
  O  O235  1  0.38166569  0.56033484  0.69957016  1
  O  O236  1  0.87519263  0.01986404  0.26673626  1
  O  O237  1  0.92778382  0.01727704  0.83715073  1
  O  O238  1  0.85168186  0.50431785  0.27464221  1
  O  O239  1  0.85910016  0.51278277  0.73544188  1
  O  O240  1  0.13016958  0.37267526  0.37363199  1
  O  O241  1  0.22129070  0.39640369  0.90023766  1
  O  O242  1  0.12940426  0.87330615  0.35818325  1
  O  O243  1  0.10700342  0.86830525  0.88879785  1
  O  O244  1  0.61380354  0.35969936  0.39014550  1
  O  O245  1  0.60702801  0.36161763  0.85026620  1
  O  O246  1  0.62221157  0.85089439  0.41191620  1
  O  O247  1  0.61215761  0.86447274  0.85948559  1
  O  O248  1  0.37412571  0.14489843  0.12377248  1
  O  O249  1  0.37158024  0.13214053  0.60957987  1
  O  O250  1  0.38024791  0.63320239  0.12194616  1
  O  O251  1  0.37333266  0.60474371  0.64007970  1
  O  O252  1  0.89713777  0.14022325  0.13443530  1
  O  O253  1  0.88483092  0.12105964  0.61011462  1
  O  O254  1  0.88703494  0.61578541  0.12462218  1
  O  O255  1  0.88089735  0.62848214  0.62993907  1
  O  O256  1  0.28272318  0.25356746  0.10950331  1
  O  O257  1  0.25754272  0.25381734  0.61649563  1
  O  O258  1  0.25769333  0.73439610  0.09926210  1
  O  O259  1  0.26513237  0.74922694  0.64934630  1
  O  O260  1  0.77378941  0.26564006  0.13431927  1
  O  O261  1  0.76474534  0.23928810  0.62943455  1
  O  O262  1  0.76536662  0.76659961  0.15683975  1
  O  O263  1  0.76327986  0.77098784  0.62825457  1
  O  O264  1  0.26230041  0.23755023  0.37636191  1
  O  O265  1  0.28218341  0.24262009  0.86106486  1
  O  O266  1  0.27213281  0.74357654  0.37688169  1
  O  O267  1  0.23821583  0.74238804  0.88098026  1
  O  O268  1  0.73366030  0.25376801  0.37741329  1
  O  O269  1  0.76561266  0.20142196  0.85439041  1
  O  O270  1  0.72885025  0.73172927  0.38347852  1
  O  O271  1  0.73870750  0.74630210  0.86431757  1
  O  O272  1  0.00358225  0.16546414  0.01069335  1
  O  O273  1  0.01646947  0.11324427  0.50005293  1
  O  O274  1  -0.01073025  0.59341825  0.01080461  1
  O  O275  1  -0.00225044  0.63700171  0.52619566  1
  O  O276  1  0.48608149  0.09311143  -0.01239284  1
  O  O277  1  0.49985450  0.11722918  0.50733741  1
  O  O278  1  0.50360643  0.61300744  0.02150593  1
  O  O279  1  0.50481710  0.60323869  0.50098966  1
  O  O280  1  0.48979154  0.38090573  0.49457295  1
  O  O281  1  0.52691306  0.39159500  1.01378660  1
  O  O282  1  0.49985556  0.89092501  0.50524669  1
  O  O283  1  0.48458916  0.87372565  0.98241312  1
  O  O284  1  1.00603806  0.33804635  0.45999948  1
  O  O285  1  1.01379751  0.38291204  1.00002039  1
  O  O286  1  1.02102395  0.88874388  0.47466454  1
  O  O287  1  0.97727137  0.84168415  1.02702380  1
  O  O288  1  0.49384590  0.48827641  0.38645903  1
  O  O289  1  0.53968138  0.50380344  0.90715557  1
  O  O290  1  0.48053014  1.01020161  0.38194689  1
  O  O291  1  0.49575833  0.97810607  0.87624989  1
  O  O292  1  0.97740414  0.50635346  0.37222570  1
  O  O293  1  1.00730918  0.51364744  0.89091607  1
  O  O294  1  1.02330370  1.00644347  0.37970295  1
  O  O295  1  0.96810707  0.95572487  0.82491178  1
  O  O296  1  0.01826300  0.03248778  0.12778619  1
  O  O297  1  0.00702124  0.00630955  0.61034488  1
  O  O298  1  -0.00001994  0.49122654  0.10668545  1
  O  O299  1  0.00204974  0.46014245  0.60635343  1
  O  O300  1  0.48920677  -0.01470084  0.10584414  1
  O  O301  1  0.48291553  0.01095499  0.60599094  1
  O  O302  1  0.52177154  0.50762632  0.12838679  1
  O  O303  1  0.50459121  0.48507883  0.61253541  1
  O  O304  1  0.23982724  0.38577363  0.25296404  1
  O  O305  1  0.25159037  0.36253446  0.73014968  1
  O  O306  1  0.24392711  0.89983815  0.25078107  1
  O  O307  1  0.25351433  0.89064459  0.76075882  1
  O  O308  1  0.74523603  0.38678647  0.26681478  1
  O  O309  1  0.74703899  0.35507600  0.72466989  1
  O  O310  1  0.77770115  0.87454456  0.29152854  1
  O  O311  1  0.73472787  0.87508919  0.75658527  1
  O  O312  1  0.23901849  0.11922246  0.27257215  1
  O  O313  1  0.25428251  0.12280840  0.74553667  1
  O  O314  1  0.24540246  0.60676639  0.24461741  1
  O  O315  1  0.23512030  0.59018252  0.76564053  1
  O  O316  1  0.77797634  0.13254432  0.24098992  1
  O  O317  1  0.73165083  0.10075706  0.73236240  1
  O  O318  1  0.73808327  0.62118800  0.27267779  1
  O  O319  1  0.75209601  0.63255339  0.74243743  1
  O  O320  1  0.36099819  0.11716934  0.38198837  1
  O  O321  1  0.36907262  0.11491515  0.84636302  1
  O  O322  1  0.38383579  0.60756678  0.38049961  1
  O  O323  1  0.40507410  0.61473736  0.86056826  1
  O  O324  1  0.87163092  0.14438663  0.37429447  1
  O  O325  1  0.83373952  0.10980461  0.98131237  1
  O  O326  1  0.85165826  0.62267198  0.38861952  1
  O  O327  1  0.85679155  0.61664882  0.85944348  1
  O  O328  1  0.14452770  0.34563930  0.12075694  1
  O  O329  1  0.14594259  0.38008577  0.59879650  1
  O  O330  1  0.11895213  0.90315455  0.13492774  1
  O  O331  1  0.11346888  0.88455026  0.62285893  1
  O  O332  1  0.63452157  0.37533803  0.12992560  1
  O  O333  1  0.62207494  0.38372156  0.62863437  1
  O  O334  1  0.60169273  0.85476218  0.14268476  1
  O  O335  1  0.62310848  0.87377638  0.63563250  1
  O  O336  1  0.13532513  0.26189086  0.25852708  1
  O  O337  1  0.08883836  0.25749598  0.71458359  1
  O  O338  1  0.14296675  0.77665526  0.23064826  1
  O  O339  1  0.14006014  0.76754291  0.76756813  1
  O  O340  1  0.61976892  0.24136248  0.27240770  1
  O  O341  1  0.60761367  0.24833797  0.74624027  1
  O  O342  1  0.61551026  0.76930738  0.27835404  1
  O  O343  1  0.61185663  0.76290047  0.74846172  1
  O  O344  1  0.36159652  0.24803407  0.23176344  1
  O  O345  1  0.37175446  0.22765675  0.72221445  1
  O  O346  1  0.34880359  0.74722158  0.22363173  1
  O  O347  1  0.38774732  0.74973290  0.74227614  1
  O  O348  1  0.88041535  0.24762997  0.25394429  1
  O  O349  1  0.90365345  0.25754267  0.72906708  1
  O  O350  1  0.83411108  0.75765421  0.18025443  1
  O  O351  1  0.88734989  0.71829132  0.75340585  1
  O  O352  1  0.38358316  0.49012468  0.49268642  1
  O  O353  1  0.40605735  0.49104702  1.01507164  1
  O  O354  1  0.37883901  0.99974972  0.48639980  1
  O  O355  1  0.37529221  0.97938859  1.00090835  1
  O  O356  1  0.86537896  0.50393047  0.49256876  1
  O  O357  1  0.85454259  0.46558873  1.00424435  1
  O  O358  1  0.90096668  1.00783247  0.48425040  1
  O  O359  1  0.87405659  0.95838935  1.08011867  1
  O  O360  1  0.13830670  0.00758614  0.01891382  1
  O  O361  1  0.12240408  0.00590124  0.51104447  1
  O  O362  1  0.12545051  0.49920319  0.00249979  1
  O  O363  1  0.13231470  0.51217109  0.51239056  1
  O  O364  1  0.60488317  -0.01970187  -0.00282724  1
  O  O365  1  0.59914664  0.01357891  0.48471958  1
  O  O366  1  0.63364493  0.50466731  0.03524210  1
  O  O367  1  0.61046315  0.50133502  0.50555715  1
  O  O368  1  0.39556552  0.35078274  0.13515096  1
  O  O369  1  0.36906855  0.35814432  0.61229554  1
  O  O370  1  0.37002787  0.85425145  0.10060866  1
  O  O371  1  0.36822906  0.86857706  0.61991168  1
  O  O372  1  0.88883140  0.37561748  0.16377330  1
  O  O373  1  0.85695015  0.36092383  0.61389116  1
  O  O374  1  0.83357425  0.89859835  0.08918470  1
  O  O375  1  0.92257364  0.83610189  0.60213956  1
  O  O376  1  0.13724402  0.12926916  0.39160250  1
  O  O377  1  0.14502045  0.15008172  0.86119201  1
  O  O378  1  0.10808694  0.62892570  0.40674102  1
  O  O379  1  0.18708716  0.59147351  0.81916329  1
  O  O380  1  0.61492441  0.13673471  0.39063911  1
  O  O381  1  0.61273806  0.13490519  0.84959658  1
  O  O382  1  0.62254728  0.62852519  0.39050342  1
  O  O383  1  0.63570663  0.64513264  0.86910767  1
