# generated using pymatgen
data_VZnO4
_symmetry_space_group_name_H-M   'P 1'
_cell_length_a   17.00250454
_cell_length_b   17.03075873
_cell_length_c   16.93086313
_cell_angle_alpha   89.92793835
_cell_angle_beta   90.25860411
_cell_angle_gamma   90.13095792
_symmetry_Int_Tables_number   1
_chemical_formula_structural   VZnO4
_chemical_formula_sum   'V64 Zn64 O256'
_cell_volume   4902.52818188
_cell_formula_units_Z   64
loop_
 _symmetry_equiv_pos_site_id
 _symmetry_equiv_pos_as_xyz
  1  'x, y, z'
loop_
 _atom_site_type_symbol
 _atom_site_label
 _atom_site_symmetry_multiplicity
 _atom_site_fract_x
 _atom_site_fract_y
 _atom_site_fract_z
 _atom_site_occupancy
  V  V0  1  0.13106099  0.14566315  0.49648895  1
  V  V1  1  0.12376713  0.64071763  -0.02075523  1
  V  V2  1  0.25634228  0.11658854  0.88429141  1
  V  V3  1  0.87068573  0.25818450  0.62210793  1
  V  V4  1  0.72744850  0.74357246  0.49534834  1
  V  V5  1  0.12493396  0.52995980  0.13434646  1
  V  V6  1  0.37297901  0.00538369  0.39319978  1
  V  V7  1  -0.00886413  0.25737568  0.26126398  1
  V  V8  1  0.50630033  0.36121633  0.37465418  1
  V  V9  1  0.61722486  0.13394020  0.49880786  1
  V  V10  1  0.61818023  0.62097989  -0.01010272  1
  V  V11  1  0.73452778  0.63212662  0.36780854  1
  V  V12  1  0.62020094  0.86955873  0.25844910  1
  V  V13  1  0.17162643  0.34959918  0.26914073  1
  V  V14  1  0.26061109  0.77461793  0.50452684  1
  V  V15  1  0.61770685  -0.01986715  0.61814890  1
  V  V16  1  0.75701098  0.86753883  0.62018508  1
  V  V17  1  0.50311087  0.13506134  0.64058218  1
  V  V18  1  0.38952184  0.12783939  0.23623019  1
  V  V19  1  0.37811703  0.61979475  0.74112696  1
  V  V20  1  0.25084257  0.76476570  0.00730635  1
  V  V21  1  -0.04566849  0.37601327  0.37805506  1
  V  V22  1  0.87170952  0.00299559  0.38010821  1
  V  V23  1  0.00587849  0.12519076  0.62275252  1
  V  V24  1  0.49468466  0.62529220  0.12064697  1
  V  V25  1  0.40694293  -0.01749032  0.87127704  1
  V  V26  1  0.12227659  0.76307491  0.37709144  1
  V  V27  1  0.61420300  0.35464072  0.23846937  1
  V  V28  1  0.25550195  -0.00270330  0.23680855  1
  V  V29  1  0.26473441  0.52712831  0.24760958  1
  V  V30  1  0.75079811  0.24882693  -0.00505101  1
  V  V31  1  0.61099047  0.00416943  0.12231615  1
  V  V32  1  0.47462058  0.74901552  0.24931270  1
  V  V33  1  0.61256174  0.12329597  -0.00449981  1
  V  V34  1  0.87339774  0.25659266  0.13139622  1
  V  V35  1  0.74506422  0.13493094  0.38607543  1
  V  V36  1  0.87501449  0.74395732  0.14137431  1
  V  V37  1  0.15386743  0.61771689  0.49042979  1
  V  V38  1  0.38832420  0.87127271  0.01508844  1
  V  V39  1  0.38465908  0.50467822  0.88591452  1
  V  V40  1  0.23875548  -0.00802136  0.74273692  1
  V  V41  1  0.74904311  0.12301440  0.87188581  1
  V  V42  1  0.91366793  0.56310771  0.30618575  1
  V  V43  1  0.49353935  0.87727152  0.39321558  1
  V  V44  1  0.74332647  0.01015734  0.25220993  1
  V  V45  1  0.00806310  -0.00092776  0.49668791  1
  V  V46  1  0.75330088  0.87736406  0.13049717  1
  V  V47  1  -0.03084690  0.51167490  0.50336265  1
  V  V48  1  0.88098326  0.86501809  0.49322759  1
  V  V49  1  0.49637184  0.36359343  0.87410088  1
  V  V50  1  0.74486001  0.37722454  0.11733563  1
  V  V51  1  0.37319292  0.36675501  0.50457240  1
  V  V52  1  0.38197083  0.51912584  0.37406243  1
  V  V53  1  0.12251147  0.88092174  0.24417789  1
  V  V54  1  0.88301308  0.12080696  0.75031205  1
  V  V55  1  0.24307637  0.48645809  0.74769135  1
  V  V56  1  0.72778759  0.50937751  0.24492929  1
  V  V57  1  0.38288413  0.76298613  0.62771414  1
  V  V58  1  0.75261906  -0.01227331  0.75026098  1
  V  V59  1  0.92534588  0.07619815  0.20137090  1
  V  V60  1  0.13485609  0.48873055  0.60874347  1
  V  V61  1  0.74023758  0.75774303  -0.01149075  1
  V  V62  1  0.52318723  0.51575804  0.50649542  1
  V  V63  1  0.88754639  0.88330185  -0.00633479  1
  Zn  Zn64  1  0.20897747  0.16625775  0.32464853  1
  Zn  Zn65  1  0.20027815  0.18078007  0.73811510  1
  Zn  Zn66  1  0.19813734  0.70130584  0.19482176  1
  Zn  Zn67  1  0.20824957  0.66271175  0.66475571  1
  Zn  Zn68  1  0.68471710  0.18512241  0.18116962  1
  Zn  Zn69  1  0.70495868  0.16333912  0.66141555  1
  Zn  Zn70  1  0.67724207  0.69369143  0.17930886  1
  Zn  Zn71  1  0.74301335  0.67658677  0.69022282  1
  Zn  Zn72  1  0.33866949  0.32268583  0.29084331  1
  Zn  Zn73  1  0.28911305  0.32666527  0.84806410  1
  Zn  Zn74  1  0.30813374  0.82144422  0.32115039  1
  Zn  Zn75  1  0.31576992  0.80196528  0.81058351  1
  Zn  Zn76  1  0.79729483  0.31309367  0.30558177  1
  Zn  Zn77  1  0.78699261  0.28806642  0.77669713  1
  Zn  Zn78  1  0.80772490  0.81613223  0.31613116  1
  Zn  Zn79  1  0.82221291  0.82315533  0.82141241  1
  Zn  Zn80  1  0.19895809  0.43380173  0.42479636  1
  Zn  Zn81  1  0.21662382  0.47154581  0.96052267  1
  Zn  Zn82  1  0.19546172  0.94237190  0.43689203  1
  Zn  Zn83  1  0.23985685  0.89891137  0.89842160  1
  Zn  Zn84  1  0.67384612  0.44567085  0.41486056  1
  Zn  Zn85  1  0.68440348  0.44298993  0.92587046  1
  Zn  Zn86  1  0.68758880  0.93674624  0.43920008  1
  Zn  Zn87  1  0.70678172  0.95249062  0.95161941  1
  Zn  Zn88  1  0.32536379  0.05379413  0.05560706  1
  Zn  Zn89  1  0.30835980  0.07500920  0.56911954  1
  Zn  Zn90  1  0.30507859  0.58355077  0.06015075  1
  Zn  Zn91  1  0.32341777  0.54605635  0.55920364  1
  Zn  Zn92  1  0.81021100  0.06229989  0.06040343  1
  Zn  Zn93  1  0.81281315  0.05889159  0.56181139  1
  Zn  Zn94  1  0.77455682  0.58349095  0.08424818  1
  Zn  Zn95  1  0.74843262  0.53666769  0.54160225  1
  Zn  Zn96  1  0.44478979  0.44894106  0.18691059  1
  Zn  Zn97  1  0.44312633  0.44243945  0.69068436  1
  Zn  Zn98  1  0.43398173  0.93781852  0.19298849  1
  Zn  Zn99  1  0.40171390  0.97299749  0.65831296  1
  Zn  Zn100  1  0.93880288  0.43686123  0.17924851  1
  Zn  Zn101  1  0.91649173  0.46273534  0.66213276  1
  Zn  Zn102  1  0.97286616  0.89925022  0.15688170  1
  Zn  Zn103  1  0.93242039  0.94417752  0.67529760  1
  Zn  Zn104  1  0.06701887  0.05721201  0.31762478  1
  Zn  Zn105  1  0.08224528  0.07694244  0.80777761  1
  Zn  Zn106  1  0.08276520  0.57520978  0.31213735  1
  Zn  Zn107  1  0.09544665  0.53961186  0.81767670  1
  Zn  Zn108  1  0.55789699  0.05934418  0.31928391  1
  Zn  Zn109  1  0.57163011  0.04970303  0.80797779  1
  Zn  Zn110  1  0.55245593  0.56834369  0.30962804  1
  Zn  Zn111  1  0.57148572  0.66977119  0.78880840  1
  Zn  Zn112  1  0.43776220  0.18291342  0.43731381  1
  Zn  Zn113  1  0.41779377  0.18383345  0.85777043  1
  Zn  Zn114  1  0.44829927  0.69899089  0.44646685  1
  Zn  Zn115  1  0.42819805  0.68778638  0.93412969  1
  Zn  Zn116  1  0.92869648  0.18912232  0.44688467  1
  Zn  Zn117  1  0.92096873  0.19365774  0.93046869  1
  Zn  Zn118  1  0.94056713  0.68574080  0.42685168  1
  Zn  Zn119  1  0.91621887  0.66084522  0.99863786  1
  Zn  Zn120  1  0.07762996  0.31381633  0.09236653  1
  Zn  Zn121  1  0.09747743  0.28537880  0.61834267  1
  Zn  Zn122  1  0.06163065  0.79667135  0.06636951  1
  Zn  Zn123  1  0.06601156  0.81034192  0.55105576  1
  Zn  Zn124  1  0.58097637  0.33381597  0.02217950  1
  Zn  Zn125  1  0.55796679  0.31158745  0.56298848  1
  Zn  Zn126  1  0.56281467  0.81009696  0.07231005  1
  Zn  Zn127  1  0.58967895  0.76468182  0.62241083  1
  O  O128  1  0.15742603  0.14516263  0.14352389  1
  O  O129  1  0.10641757  0.12283660  0.61279797  1
  O  O130  1  0.11625321  0.62898651  0.14276893  1
  O  O131  1  0.12955506  0.60987006  0.59540055  1
  O  O132  1  0.62780423  0.11142590  0.11343017  1
  O  O133  1  0.61888885  0.10791829  0.61587601  1
  O  O134  1  0.61245649  0.64129191  0.10533290  1
  O  O135  1  0.63870775  0.51055482  0.70238970  1
  O  O136  1  0.39786663  0.38248410  0.37430644  1
  O  O137  1  0.37930173  0.39473877  0.87435659  1
  O  O138  1  0.38607350  0.88717203  0.37912285  1
  O  O139  1  0.37120086  0.87983651  0.88722856  1
  O  O140  1  0.85526767  0.38013631  0.38125121  1
  O  O141  1  0.88119698  0.34746629  0.85856749  1
  O  O142  1  0.86768209  0.88807127  0.38558493  1
  O  O143  1  0.89447139  0.87241937  0.89350826  1
  O  O144  1  0.26900239  -0.00179188  0.37402493  1
  O  O145  1  0.24284105  0.00769906  0.86494423  1
  O  O146  1  0.27503746  0.50725493  0.36730743  1
  O  O147  1  0.20398657  0.49125648  0.84553622  1
  O  O148  1  0.75398300  0.00422008  0.36878619  1
  O  O149  1  0.74708956  -0.00115637  0.85724026  1
  O  O150  1  0.74661758  0.51200677  0.35305326  1
  O  O151  1  0.78176072  0.49312247  0.88154387  1
  O  O152  1  0.24640559  0.51793549  0.14047275  1
  O  O153  1  0.24090981  0.49156269  0.62392436  1
  O  O154  1  0.25628149  0.99731919  0.13803207  1
  O  O155  1  0.27831187  0.99365199  0.64461696  1
  O  O156  1  0.74541075  0.48964082  0.13392560  1
  O  O157  1  0.75625714  0.41306440  0.55863263  1
  O  O158  1  0.74553388  0.99593222  0.13695327  1
  O  O159  1  0.74625142  0.98678154  0.62894931  1
  O  O160  1  -0.02337063  0.37118178  0.27040889  1
  O  O161  1  -0.02337113  0.42868402  0.77097629  1
  O  O162  1  0.02257878  0.88948788  0.26139333  1
  O  O163  1  0.02657025  0.87645793  0.70202358  1
  O  O164  1  0.51080958  0.37701038  0.25347477  1
  O  O165  1  0.50205170  0.40685458  0.77944814  1
  O  O166  1  0.51125190  0.86541697  0.24818691  1
  O  O167  1  0.53428126  0.81519238  0.86612154  1
  O  O168  1  0.48982360  0.11237660  0.24916649  1
  O  O169  1  0.51746944  0.12417445  0.74087758  1
  O  O170  1  0.50077665  0.64476861  0.24269428  1
  O  O171  1  0.47823609  0.61283317  0.74850133  1
  O  O172  1  0.98742421  0.13218451  0.26173981  1
  O  O173  1  0.99045128  0.10548186  0.73587215  1
  O  O174  1  0.98664162  0.61601603  0.26376300  1
  O  O175  1  0.98077180  0.62333501  0.79244504  1
  O  O176  1  0.35912452  0.26694990  0.06373970  1
  O  O177  1  0.38873220  0.26669771  0.49514318  1
  O  O178  1  0.36025504  0.75938914  -0.00721501  1
  O  O179  1  0.36786223  0.75319272  0.51190351  1
  O  O180  1  0.85989058  0.24313306  0.01337186  1
  O  O181  1  0.86514984  0.24689504  0.52257312  1
  O  O182  1  0.86135990  0.76576113  0.01477061  1
  O  O183  1  0.88768313  0.76565173  0.49051192  1
  O  O184  1  0.11764580  0.24234430  0.50926300  1
  O  O185  1  0.10164882  0.15237273  1.09401293  1
  O  O186  1  0.14100523  0.74308797  0.49866443  1
  O  O187  1  0.13124234  0.74880189  0.99623962  1
  O  O188  1  0.62744128  0.23213804  0.51008274  1
  O  O189  1  0.64018060  0.22999328  1.00773702  1
  O  O190  1  0.63081916  0.75008443  0.50756394  1
  O  O191  1  0.64004172  0.77223155  0.99792892  1
  O  O192  1  0.40655005  0.30787109  0.10198959  1
  O  O193  1  0.50485019  0.23399684  0.62851178  1
  O  O194  1  0.50062773  0.74917741  0.14536388  1
  O  O195  1  0.48027938  0.74066826  0.62282621  1
  O  O196  1  0.98064555  0.26830143  0.14139965  1
  O  O197  1  0.98682508  0.22815307  0.62292133  1
  O  O198  1  0.97470409  0.76179092  0.13754904  1
  O  O199  1  1.02926448  0.72536197  0.64594120  1
  O  O200  1  -0.02986032  0.26887950  0.37660832  1
  O  O201  1  -0.05809709  0.30746151  0.87740299  1
  O  O202  1  0.02321256  0.75171608  0.38443377  1
  O  O203  1  -0.01808013  0.68808277  0.82562476  1
  O  O204  1  0.50318549  0.26350227  0.37731463  1
  O  O205  1  0.48833332  0.26487403  0.85328811  1
  O  O206  1  0.49283612  0.76648674  0.36063542  1
  O  O207  1  0.49173753  0.74510183  0.84459284  1
  O  O208  1  0.22900247  0.12871765  0.51265493  1
  O  O209  1  0.25501647  0.11147954  0.98482457  1
  O  O210  1  0.25304314  0.62306890  0.49687006  1
  O  O211  1  0.23532284  0.64856408  0.99650079  1
  O  O212  1  0.73729206  0.11814552  0.49384595  1
  O  O213  1  0.75073112  0.12793099  0.98761073  1
  O  O214  1  0.74693696  0.63835964  0.48696721  1
  O  O215  1  0.73171220  0.64996742  1.00384857  1
  O  O216  1  0.21544048  0.35351435  -0.05652709  1
  O  O217  1  0.27471426  0.37808657  0.48783469  1
  O  O218  1  0.25823597  0.87084505  0.01125273  1
  O  O219  1  0.24794567  0.87218619  0.51326636  1
  O  O220  1  0.73481873  0.36228868  0.00807730  1
  O  O221  1  0.73234567  0.37115394  0.50015907  1
  O  O222  1  0.76076137  0.87272085  0.01064996  1
  O  O223  1  0.75884631  0.86212628  0.49951266  1
  O  O224  1  0.15026600  0.51500134  0.24660179  1
  O  O225  1  0.12849411  0.49983326  0.71558367  1
  O  O226  1  0.14136613  0.99269634  0.26044722  1
  O  O227  1  0.13814498  1.00743340  0.73822164  1
  O  O228  1  0.62816080  0.49842700  0.24562446  1
  O  O229  1  0.64665238  0.52405464  0.77331305  1
  O  O230  1  0.62727112  0.99495894  0.23951397  1
  O  O231  1  0.64634609  0.99840638  0.73316214  1
  O  O232  1  0.36716401  0.00016207  0.25800947  1
  O  O233  1  0.38326661  -0.01871596  0.77161856  1
  O  O234  1  0.37595532  0.50857884  0.26077145  1
  O  O235  1  0.36054750  0.50385016  0.76254471  1
  O  O236  1  0.86363233  0.01223955  0.25979149  1
  O  O237  1  0.86284472  0.00575288  0.74071101  1
  O  O238  1  0.86205335  0.50637521  0.23745786  1
  O  O239  1  0.83046406  0.53013313  0.70251702  1
  O  O240  1  0.12362702  0.39312864  0.34840074  1
  O  O241  1  0.13749313  0.32310367  0.93636023  1
  O  O242  1  0.12833385  0.86617504  0.38247949  1
  O  O243  1  0.10863820  0.97175797  0.97558065  1
  O  O244  1  0.61695626  0.37293099  0.35208524  1
  O  O245  1  0.60161402  0.37206735  0.90369327  1
  O  O246  1  0.61373563  0.88728732  0.36252714  1
  O  O247  1  0.59475882  0.82781688  0.82464226  1
  O  O248  1  0.37852133  0.11304519  0.13639699  1
  O  O249  1  0.40780965  0.09911607  0.62565638  1
  O  O250  1  0.39449544  0.63027466  0.11071593  1
  O  O251  1  0.37005569  0.61578587  0.63616161  1
  O  O252  1  0.87029548  0.13285617  0.13303145  1
  O  O253  1  0.87557818  0.12683520  0.63359009  1
  O  O254  1  0.86833138  0.64235351  0.10845307  1
  O  O255  1  0.77537411  0.56702168  0.65455173  1
  O  O256  1  0.10984948  0.21318767  0.03994411  1
  O  O257  1  0.30537328  0.23849718  0.64804279  1
  O  O258  1  0.24647717  0.75307051  0.10942254  1
  O  O259  1  0.25987000  0.74663552  0.61050008  1
  O  O260  1  0.75429863  0.25622956  0.11884810  1
  O  O261  1  0.76719448  0.25336568  0.65465817  1
  O  O262  1  0.75136752  0.76464438  0.12031418  1
  O  O263  1  0.75950177  0.75566128  0.60165821  1
  O  O264  1  0.23228160  0.27289850  0.31230131  1
  O  O265  1  0.30378176  0.21563622  0.85905805  1
  O  O266  1  0.24745093  0.75959997  0.39840631  1
  O  O267  1  0.23613158  0.78084677  0.89171111  1
  O  O268  1  0.74804156  0.23222109  0.37272151  1
  O  O269  1  0.75292698  0.23346019  0.87828733  1
  O  O270  1  0.74820703  0.74780064  0.38810273  1
  O  O271  1  0.75470123  0.76224874  0.88895072  1
  O  O272  1  0.00874860  0.11634878  -0.04794632  1
  O  O273  1  0.00485164  0.11815119  0.50351629  1
  O  O274  1  0.02413475  0.63673105  0.00159015  1
  O  O275  1  0.00377489  0.60621355  0.47970906  1
  O  O276  1  0.51839701  0.12908228  -0.01182761  1
  O  O277  1  0.51485816  0.12360092  0.50789324  1
  O  O278  1  0.50926221  0.64286124  0.00793385  1
  O  O279  1  0.50861899  0.61410961  0.49636661  1
  O  O280  1  0.51207204  0.38368442  0.48380492  1
  O  O281  1  0.48038436  0.36454097  0.98462897  1
  O  O282  1  0.50642361  0.86633032  0.48737755  1
  O  O283  1  0.48716463  0.85651237  1.00305636  1
  O  O284  1  0.98952611  0.40616817  0.47247847  1
  O  O285  1  1.08610349  0.36324850  0.98064976  1
  O  O286  1  0.98975224  0.88745339  0.50539649  1
  O  O287  1  0.98350940  0.87815426  1.03283192  1
  O  O288  1  0.49924800  0.49713165  0.38079344  1
  O  O289  1  0.47830628  0.50605939  0.90773571  1
  O  O290  1  0.48992393  0.98532697  0.37550443  1
  O  O291  1  0.50761280  0.98260761  0.87165081  1
  O  O292  1  0.96932202  0.49851179  0.36682284  1
  O  O293  1  1.00001724  0.46375498  0.83403115  1
  O  O294  1  0.98438954  1.01067587  0.38836181  1
  O  O295  1  1.01144950  1.05569063  0.90382885  1
  O  O296  1  -0.01805304  0.01605800  0.14849226  1
  O  O297  1  -0.01234785  0.01413613  0.60288966  1
  O  O298  1  0.03210185  0.48671771  0.13607836  1
  O  O299  1  0.00667724  0.50351815  0.60199956  1
  O  O300  1  0.51457150  -0.00633234  0.12626754  1
  O  O301  1  0.51978853  -0.01649902  0.63518940  1
  O  O302  1  0.50731945  0.52597287  0.13440278  1
  O  O303  1  0.50525607  0.49579915  0.60314373  1
  O  O304  1  0.25990591  0.40508116  0.25648580  1
  O  O305  1  0.26053449  0.38728160  0.75013572  1
  O  O306  1  0.24134555  0.88919759  0.25801869  1
  O  O307  1  0.24740631  0.89131566  0.76761122  1
  O  O308  1  0.73001277  0.38301999  0.23985374  1
  O  O309  1  0.70435358  0.36913531  0.75666831  1
  O  O310  1  0.73826158  0.88962295  0.25041961  1
  O  O311  1  0.76509489  0.88157307  0.73884415  1
  O  O312  1  0.26658258  0.10432987  0.25418530  1
  O  O313  1  0.27084182  0.09979210  0.75731882  1
  O  O314  1  0.26227906  0.62605492  0.25569491  1
  O  O315  1  0.25641451  0.60195657  0.74407779  1
  O  O316  1  0.73326358  0.11562273  0.26596349  1
  O  O317  1  0.75898178  0.11068079  0.75311622  1
  O  O318  1  0.73752003  0.61485819  0.24306871  1
  O  O319  1  0.85313787  0.68305199  0.73390273  1
  O  O320  1  0.38562738  0.10861436  0.36864996  1
  O  O321  1  0.37732069  0.08580877  0.88646900  1
  O  O322  1  0.38980469  0.61637022  0.38343252  1
  O  O323  1  0.37154889  0.61435580  0.86218292  1
  O  O324  1  0.85441683  0.11495859  0.38924900  1
  O  O325  1  0.86535189  0.12006567  0.85896042  1
  O  O326  1  0.85794068  0.62913006  0.36479249  1
  O  O327  1  0.87319587  0.58462765  0.91225812  1
  O  O328  1  0.13766362  0.36371799  0.17109624  1
  O  O329  1  0.11717223  0.39328955  0.59292744  1
  O  O330  1  0.11979059  0.86730033  0.14441241  1
  O  O331  1  0.08406573  0.87731664  0.65113657  1
  O  O332  1  0.62818324  0.36685558  0.12932751  1
  O  O333  1  0.62786744  0.37103930  0.64687923  1
  O  O334  1  0.63461923  0.88765191  0.13476193  1
  O  O335  1  0.64214012  0.87460421  0.62218173  1
  O  O336  1  0.09046106  0.25284592  0.26441924  1
  O  O337  1  0.13791857  0.26280577  0.71773629  1
  O  O338  1  0.13969836  0.76695855  0.26981853  1
  O  O339  1  0.08247562  0.72399547  0.69802574  1
  O  O340  1  0.62039594  0.25651689  0.24301319  1
  O  O341  1  0.64229938  0.33559243  0.71524621  1
  O  O342  1  0.63362872  0.77115534  0.25237558  1
  O  O343  1  0.63817785  0.70309878  0.70523861  1
  O  O344  1  0.38045736  0.22738207  0.25001995  1
  O  O345  1  0.36060386  0.25907929  0.69027271  1
  O  O346  1  0.37673236  0.75707172  0.25111887  1
  O  O347  1  0.36131242  0.73071037  0.73553741  1
  O  O348  1  0.86924065  0.24991845  0.24042021  1
  O  O349  1  0.88254634  0.22447807  0.74620939  1
  O  O350  1  0.85388160  0.74627589  0.23999321  1
  O  O351  1  0.88520917  0.75156164  0.74973511  1
  O  O352  1  0.39270088  0.49054044  0.48460854  1
  O  O353  1  0.32672405  0.50500034  0.97565276  1
  O  O354  1  0.37219132  1.00892415  0.49280590  1
  O  O355  1  0.38207915  0.97739605  0.99174254  1
  O  O356  1  0.87126674  0.51770257  0.51832968  1
  O  O357  1  0.83045165  0.52297817  0.93963357  1
  O  O358  1  0.87724978  0.99081998  0.49250496  1
  O  O359  1  0.86642922  0.98222111  1.00613042  1
  O  O360  1  0.12030441  0.01669204  0.03073222  1
  O  O361  1  0.10838179  0.00013401  0.49221645  1
  O  O362  1  0.14119141  0.53026169  0.02360180  1
  O  O363  1  0.13880421  0.51065302  0.48972056  1
  O  O364  1  0.63025793  0.00724261  0.01270952  1
  O  O365  1  0.62932736  -0.00142639  0.51576215  1
  O  O366  1  0.63566740  0.52312816  -0.00628408  1
  O  O367  1  0.63100500  0.50648025  0.50081343  1
  O  O368  1  0.36892299  0.37145875  0.14518031  1
  O  O369  1  0.38971956  0.38552289  0.60363232  1
  O  O370  1  0.37923128  0.87600173  0.11555355  1
  O  O371  1  0.38261963  0.85996792  0.63904120  1
  O  O372  1  0.85634015  0.36935297  0.12724966  1
  O  O373  1  0.88930827  0.35457229  0.64365084  1
  O  O374  1  0.85979668  0.86898575  0.13548744  1
  O  O375  1  0.86635756  0.87847780  0.60513400  1
  O  O376  1  0.12409363  0.12948571  0.38970043  1
  O  O377  1  0.15826240  0.14595969  0.85860136  1
  O  O378  1  0.13438379  0.64261104  0.38597044  1
  O  O379  1  0.12234565  0.62803597  0.87990979  1
  O  O380  1  0.63156630  0.11478097  0.39084858  1
  O  O381  1  0.63858240  0.11044935  0.88619454  1
  O  O382  1  0.63574491  0.63029057  0.36374376  1
  O  O383  1  0.61597362  0.64235478  0.89138531  1
