# generated using pymatgen
data_VZnO4
_symmetry_space_group_name_H-M   'P 1'
_cell_length_a   16.87336772
_cell_length_b   16.90595854
_cell_length_c   17.03529566
_cell_angle_alpha   89.69789992
_cell_angle_beta   90.13184263
_cell_angle_gamma   89.95016617
_symmetry_Int_Tables_number   1
_chemical_formula_structural   VZnO4
_chemical_formula_sum   'V64 Zn64 O256'
_cell_volume   4859.41388826
_cell_formula_units_Z   64
loop_
 _symmetry_equiv_pos_site_id
 _symmetry_equiv_pos_as_xyz
  1  'x, y, z'
loop_
 _atom_site_type_symbol
 _atom_site_label
 _atom_site_symmetry_multiplicity
 _atom_site_fract_x
 _atom_site_fract_y
 _atom_site_fract_z
 _atom_site_occupancy
  V  V0  1  0.38250381  0.87380163  -0.01067637  1
  V  V1  1  0.60325513  0.00507548  0.12755269  1
  V  V2  1  0.13580592  0.49429670  0.12750279  1
  V  V3  1  0.60618648  0.86499088  0.24748827  1
  V  V4  1  0.09775431  0.12768024  0.00348449  1
  V  V5  1  0.38174926  0.38401143  0.49299959  1
  V  V6  1  0.87416588  0.73651610  0.60678062  1
  V  V7  1  0.49543321  0.23149967  0.26188392  1
  V  V8  1  0.88673812  0.88097590  0.49749067  1
  V  V9  1  0.38674955  0.50503219  0.37828138  1
  V  V10  1  0.02080558  0.13270340  0.17073844  1
  V  V11  1  0.50168589  0.62944489  0.60547272  1
  V  V12  1  0.27486361  -0.01374694  0.24492721  1
  V  V13  1  0.86025632  0.14365960  0.24808505  1
  V  V14  1  0.50098502  0.63797165  0.11603165  1
  V  V15  1  0.23971951  0.62698663  0.37193064  1
  V  V16  1  0.12640977  0.89029988  0.74203350  1
  V  V17  1  0.13736854  0.74870304  0.87433668  1
  V  V18  1  0.53827518  0.74876104  0.77331433  1
  V  V19  1  0.10657525  0.50580357  0.63925476  1
  V  V20  1  0.11201337  0.61905637  0.50536215  1
  V  V21  1  -0.00167283  0.37815560  0.37853087  1
  V  V22  1  0.75681865  0.49664518  0.24824136  1
  V  V23  1  0.24556833  0.74814554  0.49728049  1
  V  V24  1  0.49583931  0.24829919  0.74709627  1
  V  V25  1  0.36748160  0.24524800  0.60269787  1
  V  V26  1  0.00270830  0.48418650  0.00009188  1
  V  V27  1  0.87340334  0.63579786  0.78092758  1
  V  V28  1  0.75426497  0.37087278  0.11055262  1
  V  V29  1  0.36608567  0.62438612  0.76147321  1
  V  V30  1  0.75060237  0.11869056  0.39960798  1
  V  V31  1  0.85150993  0.01145446  0.86644957  1
  V  V32  1  0.87382547  0.88119567  0.00919704  1
  V  V33  1  0.24434936  0.87098298  0.11531889  1
  V  V34  1  0.60906899  0.49641971  0.60634903  1
  V  V35  1  0.38308796  0.64119013  0.24678356  1
  V  V36  1  0.24852453  0.49511038  0.24652396  1
  V  V37  1  0.74471747  0.87027227  0.62105301  1
  V  V38  1  0.00438740  0.88695794  0.88123376  1
  V  V39  1  0.61620690  0.74936332  0.38001767  1
  V  V40  1  0.01013056  0.75697537  0.25757558  1
  V  V41  1  0.37525681  0.75338100  0.62576968  1
  V  V42  1  0.37175891  0.10904244  0.72977434  1
  V  V43  1  0.85875190  0.46933104  0.88029455  1
  V  V44  1  0.75276575  -0.01076036  0.23455042  1
  V  V45  1  -0.00585695  0.63234599  0.11625271  1
  V  V46  1  0.75351926  0.74801498  0.03005433  1
  V  V47  1  0.74561076  0.48171947  0.73478238  1
  V  V48  1  0.88538906  0.25587506  0.10357937  1
  V  V49  1  0.51444591  -0.02832696  0.47348058  1
  V  V50  1  0.87359794  0.63335148  0.24551046  1
  V  V51  1  0.14184183  0.63436255  0.00030548  1
  V  V52  1  0.27547371  0.12218328  0.87859026  1
  V  V53  1  0.75081711  0.63082324  0.37841839  1
  V  V54  1  0.62030912  0.36429169  0.25314225  1
  V  V55  1  0.63592012  0.25069877  0.40206468  1
  V  V56  1  0.88829561  -0.00965589  0.36811061  1
  V  V57  1  0.63222648  0.01050755  0.61091925  1
  V  V58  1  0.59955748  0.37624234  0.76340913  1
  V  V59  1  0.49731881  0.01231176  -0.02087595  1
  V  V60  1  0.24889896  0.39691760  0.62628679  1
  V  V61  1  0.00251797  0.74955047  0.74458186  1
  V  V62  1  0.24956858  0.88071509  0.62428453  1
  V  V63  1  0.61290292  0.49731161  0.11881288  1
  Zn  Zn64  1  0.19442135  0.16966324  0.26915320  1
  Zn  Zn65  1  0.19712704  0.17448320  0.65294706  1
  Zn  Zn66  1  0.18620091  0.68791849  0.18682261  1
  Zn  Zn67  1  0.18928100  0.68295735  0.68930527  1
  Zn  Zn68  1  0.71444873  0.16292123  0.13467085  1
  Zn  Zn69  1  0.51320055  0.13232577  0.59980009  1
  Zn  Zn70  1  0.68098924  0.68525632  0.18475178  1
  Zn  Zn71  1  0.69778611  0.67451834  0.67901274  1
  Zn  Zn72  1  0.30905937  0.31357681  0.31626905  1
  Zn  Zn73  1  0.29453461  0.28771320  0.78614990  1
  Zn  Zn74  1  0.30882978  0.81467962  0.31583853  1
  Zn  Zn75  1  0.31898457  0.82080455  0.80729076  1
  Zn  Zn76  1  0.79711608  0.31587000  0.32591540  1
  Zn  Zn77  1  0.78597790  0.30689433  0.80978438  1
  Zn  Zn78  1  0.81625398  0.80992432  0.30681604  1
  Zn  Zn79  1  0.82553098  0.83444484  0.80070328  1
  Zn  Zn80  1  0.19274891  0.44363847  0.44752133  1
  Zn  Zn81  1  0.14771332  0.44953333  0.91231026  1
  Zn  Zn82  1  0.20494761  0.94566763  0.44768177  1
  Zn  Zn83  1  0.19002785  0.95244009  0.93571726  1
  Zn  Zn84  1  0.68504747  0.44765363  0.42892457  1
  Zn  Zn85  1  0.61990919  0.36616740  0.97750114  1
  Zn  Zn86  1  0.70022554  0.92518638  0.43109591  1
  Zn  Zn87  1  0.69291706  0.94695306  0.95635115  1
  Zn  Zn88  1  0.29327729  0.04564275  0.04892548  1
  Zn  Zn89  1  0.37702883  0.01591724  0.58812169  1
  Zn  Zn90  1  0.32224373  0.70101007  0.06281170  1
  Zn  Zn91  1  0.31612032  0.57207382  0.55997413  1
  Zn  Zn92  1  0.81834777  0.05817368  0.04503404  1
  Zn  Zn93  1  0.83326654  0.05597543  0.57721066  1
  Zn  Zn94  1  0.81059147  0.56032619  0.05763399  1
  Zn  Zn95  1  0.80234738  0.55887428  0.56697904  1
  Zn  Zn96  1  0.44186986  0.44589187  0.20662811  1
  Zn  Zn97  1  0.42186681  0.44130511  0.68426804  1
  Zn  Zn98  1  0.42881049  0.92622140  0.18109463  1
  Zn  Zn99  1  0.49630318  0.93979258  0.69802994  1
  Zn  Zn100  1  0.93852415  0.43885953  0.18158407  1
  Zn  Zn101  1  0.94573030  0.45722843  0.71107439  1
  Zn  Zn102  1  0.95256148  0.94868012  0.19007841  1
  Zn  Zn103  1  0.93511729  0.94283249  0.68528214  1
  Zn  Zn104  1  0.08704437  0.02064547  0.29508250  1
  Zn  Zn105  1  0.09165460  0.06816940  0.82451067  1
  Zn  Zn106  1  0.06105974  0.56819272  0.30967936  1
  Zn  Zn107  1  0.05808341  0.56967251  0.81903571  1
  Zn  Zn108  1  0.58142394  0.06314749  0.31786176  1
  Zn  Zn109  1  0.56587727  0.06649409  0.79056000  1
  Zn  Zn110  1  0.56897453  0.56586845  0.30466002  1
  Zn  Zn111  1  0.52511199  0.54990943  0.77744179  1
  Zn  Zn112  1  0.42960330  0.19732242  0.41612806  1
  Zn  Zn113  1  0.56186871  0.19755428  0.92726391  1
  Zn  Zn114  1  0.43101034  0.69529153  0.43380926  1
  Zn  Zn115  1  0.45034027  0.69062019  0.93443094  1
  Zn  Zn116  1  0.94184592  0.18101595  0.41370021  1
  Zn  Zn117  1  0.94299696  0.16816919  0.93486465  1
  Zn  Zn118  1  0.93469352  0.68521165  0.42930532  1
  Zn  Zn119  1  0.94376978  0.70647105  0.94359805  1
  Zn  Zn120  1  0.07689147  0.30236216  0.07901716  1
  Zn  Zn121  1  -0.00300574  0.28344561  0.55491089  1
  Zn  Zn122  1  0.06390738  0.81408240  0.06588592  1
  Zn  Zn123  1  0.06309717  0.80769648  0.56182871  1
  Zn  Zn124  1  0.53718811  0.19216299  0.08648727  1
  Zn  Zn125  1  0.55563762  0.31960499  0.56236000  1
  Zn  Zn126  1  0.56838968  0.82346640  0.05533327  1
  Zn  Zn127  1  0.56255370  0.81023614  0.55129243  1
  O  O128  1  0.11135847  0.17078668  0.18909335  1
  O  O129  1  0.12254756  0.11525491  0.58591112  1
  O  O130  1  0.11532711  0.62214297  0.11402525  1
  O  O131  1  0.12669522  0.61478558  0.61725727  1
  O  O132  1  0.61280275  0.11079232  0.13492045  1
  O  O133  1  0.63002025  0.10955989  0.60209600  1
  O  O134  1  0.61338646  0.60858728  0.12790815  1
  O  O135  1  0.60713388  0.62288582  0.62106517  1
  O  O136  1  0.36567548  0.39452515  0.38290796  1
  O  O137  1  0.36398795  0.34033493  0.88257171  1
  O  O138  1  0.34246985  0.90355692  0.38161614  1
  O  O139  1  0.36405234  0.88248306  0.88905642  1
  O  O140  1  0.89391367  0.36778922  0.37312555  1
  O  O141  1  0.86782944  0.37121372  0.86334826  1
  O  O142  1  0.87110375  0.88259275  0.38020344  1
  O  O143  1  0.89238817  0.88090438  0.88217937  1
  O  O144  1  0.28331277  -0.03787810  0.36588174  1
  O  O145  1  0.20505842  0.04462122  0.86256498  1
  O  O146  1  0.25078165  0.51017040  0.36339564  1
  O  O147  1  0.25422120  0.49290058  0.88960651  1
  O  O148  1  0.75354072  0.01031696  0.36287968  1
  O  O149  1  0.75035671  0.00148562  0.87564665  1
  O  O150  1  0.74382388  0.51307504  0.35337625  1
  O  O151  1  0.76371407  0.49186731  0.84855281  1
  O  O152  1  0.24093167  0.51089500  0.13829128  1
  O  O153  1  0.26446711  0.49784740  0.62863449  1
  O  O154  1  0.25553739  0.99055103  0.13957463  1
  O  O155  1  0.26639125  0.97637294  0.59864948  1
  O  O156  1  0.74525249  0.49144646  0.12891610  1
  O  O157  1  0.71587490  0.51792082  0.63421656  1
  O  O158  1  0.74711002  1.00198844  0.13399877  1
  O  O159  1  0.73866054  0.98841379  0.61305209  1
  O  O160  1  -0.00098966  0.38137166  0.27200818  1
  O  O161  1  0.00098885  0.34970838  0.71110987  1
  O  O162  1  -0.00602164  0.85473351  0.23756559  1
  O  O163  1  0.01078956  0.86978655  0.75187010  1
  O  O164  1  0.51821742  0.37662475  0.25916840  1
  O  O165  1  0.49032230  0.36441361  0.74240894  1
  O  O166  1  0.50719803  0.87400820  0.25138919  1
  O  O167  1  0.50080868  0.83984715  0.74446469  1
  O  O168  1  0.50762796  0.13276261  0.26733907  1
  O  O169  1  0.49477355  0.13570893  0.72458939  1
  O  O170  1  0.48734829  0.62174157  0.24152320  1
  O  O171  1  0.49385842  0.65440211  0.73662612  1
  O  O172  1  0.97098694  0.14277522  0.26272586  1
  O  O173  1  1.05558208  0.15320552  0.73848019  1
  O  O174  1  0.98906536  0.62554829  0.23919069  1
  O  O175  1  0.98498795  0.63998918  0.76155009  1
  O  O176  1  0.36866803  0.29905514  -0.05681755  1
  O  O177  1  0.37651188  0.26722777  0.49662495  1
  O  O178  1  0.38296501  0.76582648  -0.00743938  1
  O  O179  1  0.35616885  0.74159656  0.51032792  1
  O  O180  1  0.89681461  0.24468051  0.00570214  1
  O  O181  1  0.91290303  0.23415876  0.50486401  1
  O  O182  1  0.86861406  0.77165323  0.00006468  1
  O  O183  1  0.88224042  0.75555105  0.50442023  1
  O  O184  1  0.09611945  0.27549041  0.51450170  1
  O  O185  1  0.13558676  0.21812568  1.03073192  1
  O  O186  1  0.13605968  0.73260723  0.51140478  1
  O  O187  1  0.11973555  0.73962504  0.99200646  1
  O  O188  1  0.63619258  0.26677721  0.49912600  1
  O  O189  1  0.57893884  0.26771602  1.01055503  1
  O  O190  1  0.63130287  0.75333240  0.47814580  1
  O  O191  1  0.65519043  0.76879812  1.00798390  1
  O  O192  1  0.47780322  0.24858805  0.16427785  1
  O  O193  1  0.48546798  0.24782451  0.61673326  1
  O  O194  1  0.51683993  0.73612585  0.11716419  1
  O  O195  1  0.48380885  0.74492198  0.60915702  1
  O  O196  1  0.98508086  0.25483749  0.13748651  1
  O  O197  1  0.96525204  0.30104871  0.66303822  1
  O  O198  1  1.00328343  0.73465069  0.12859131  1
  O  O199  1  0.98615828  0.75473829  0.63681248  1
  O  O200  1  0.01185860  0.27419431  0.37364594  1
  O  O201  1  0.05250739  0.31339744  0.86229856  1
  O  O202  1  -0.00683779  0.74666848  0.35584119  1
  O  O203  1  0.01148522  0.76402269  0.86414606  1
  O  O204  1  0.53387322  0.24554752  0.38060414  1
  O  O205  1  0.48934652  0.23556309  0.84472982  1
  O  O206  1  0.51570580  0.74030687  0.37362070  1
  O  O207  1  0.53106863  0.74126640  0.87317229  1
  O  O208  1  0.16606788  0.08028766  0.52956072  1
  O  O209  1  0.29450173  0.13199806  0.97574140  1
  O  O210  1  0.24183315  0.63086550  0.49037728  1
  O  O211  1  0.23984795  0.63277233  1.01048991  1
  O  O212  1  0.76753102  0.10966347  0.49504457  1
  O  O213  1  0.74872774  0.13989552  1.02990318  1
  O  O214  1  0.76075906  0.61135755  0.47505973  1
  O  O215  1  0.76210657  0.64819873  1.00794799  1
  O  O216  1  0.25000677  0.40887489  -0.00828906  1
  O  O217  1  0.26392148  0.38510986  0.51250244  1
  O  O218  1  0.26077753  0.89542630  0.00658069  1
  O  O219  1  0.23430289  0.85505251  0.51314543  1
  O  O220  1  0.73921419  0.37439513  0.01357668  1
  O  O221  1  0.77915223  0.40174733  0.49787686  1
  O  O222  1  0.76922014  0.87778999  0.01128340  1
  O  O223  1  0.77165861  0.87527281  0.50695724  1
  O  O224  1  0.13557803  0.51201387  0.23898669  1
  O  O225  1  0.11536191  0.51064179  0.74024974  1
  O  O226  1  0.11861778  0.90354506  0.31360228  1
  O  O227  1  0.11666226  0.98800424  0.73852179  1
  O  O228  1  0.63609859  0.49152262  0.24249834  1
  O  O229  1  0.61657256  0.48922476  0.74451221  1
  O  O230  1  0.63596678  0.99052509  0.24263514  1
  O  O231  1  0.60491691  0.99300516  0.71316249  1
  O  O232  1  0.37189207  0.00839455  0.24615987  1
  O  O233  1  0.39870951  0.01078843  0.70631976  1
  O  O234  1  0.36459667  0.51319695  0.26001669  1
  O  O235  1  0.41000380  0.52431903  0.76102972  1
  O  O236  1  0.86481115  0.00355785  0.25342842  1
  O  O237  1  0.87171205  -0.01624482  0.77192268  1
  O  O238  1  0.86238951  0.50670090  0.23916390  1
  O  O239  1  0.91388277  0.52157286  0.80511695  1
  O  O240  1  0.10258607  0.38834192  0.38626395  1
  O  O241  1  0.12287472  0.33098212  0.88029169  1
  O  O242  1  0.11965502  0.88100572  0.38647012  1
  O  O243  1  0.12284902  0.87370476  0.86111310  1
  O  O244  1  0.65281343  0.35812200  0.36408707  1
  O  O245  1  0.59942687  0.37730668  0.86235924  1
  O  O246  1  0.63677969  0.85878803  0.35737542  1
  O  O247  1  0.67076055  0.85132125  0.87090925  1
  O  O248  1  0.33692509  0.14885451  0.14415915  1
  O  O249  1  0.37334224  0.13876338  0.60649804  1
  O  O250  1  0.38343750  0.63672707  0.13976907  1
  O  O251  1  0.38475727  0.63373151  0.63138851  1
  O  O252  1  0.87867524  0.14466881  0.13965519  1
  O  O253  1  0.85947922  0.17595167  0.62956738  1
  O  O254  1  0.88859895  0.61509741  0.13076975  1
  O  O255  1  0.87503093  0.63455866  0.61230180  1
  O  O256  1  0.28939878  0.19850454  0.17166819  1
  O  O257  1  0.26316475  0.25960234  0.61400266  1
  O  O258  1  0.24728081  0.76342955  0.12373391  1
  O  O259  1  0.25702857  0.74940391  0.61625103  1
  O  O260  1  0.76738729  0.26617342  0.12882577  1
  O  O261  1  0.81331104  0.21562771  0.67579611  1
  O  O262  1  0.75712504  0.75059706  0.12945810  1
  O  O263  1  0.76762075  0.75179929  0.62142912  1
  O  O264  1  0.25807256  0.16570594  0.42821152  1
  O  O265  1  0.23928869  0.21189972  0.84740065  1
  O  O266  1  0.25150992  0.74295409  0.38933943  1
  O  O267  1  0.23562137  0.75943702  0.86569209  1
  O  O268  1  0.74920857  0.23063357  0.38515635  1
  O  O269  1  0.71384554  0.23784095  0.87644386  1
  O  O270  1  0.75076934  0.73485992  0.36590201  1
  O  O271  1  0.72659874  0.80033884  0.86958177  1
  O  O272  1  0.01104685  0.11453199  0.06037578  1
  O  O273  1  0.04755437  0.13218098  0.42947284  1
  O  O274  1  -0.00255292  0.62167588  0.00995188  1
  O  O275  1  0.01307116  0.62832587  0.49226639  1
  O  O276  1  0.50516738  0.11439619  -0.00061963  1
  O  O277  1  0.47419387  0.10583422  0.48138966  1
  O  O278  1  0.48169651  0.61938336  0.01991292  1
  O  O279  1  0.49123788  0.62670027  0.50773906  1
  O  O280  1  0.48189235  0.38480194  0.49778951  1
  O  O281  1  0.41591773  0.38020287  1.05622331  1
  O  O282  1  0.49017471  0.87535832  0.48826321  1
  O  O283  1  0.49050722  0.88935187  0.99868804  1
  O  O284  1  0.98693488  0.38429764  0.48123034  1
  O  O285  1  1.01173839  0.38723816  1.01657535  1
  O  O286  1  0.98792646  0.87052887  0.50298559  1
  O  O287  1  1.00328454  0.87108955  0.98368671  1
  O  O288  1  0.48540379  0.51031571  0.36710877  1
  O  O289  1  0.57024535  0.56768552  0.89487375  1
  O  O290  1  0.52468714  0.98472041  0.37554931  1
  O  O291  1  0.51591729  1.01056988  0.88143434  1
  O  O292  1  0.99307201  0.48500188  0.37053673  1
  O  O293  1  1.03445302  0.48563391  0.89888880  1
  O  O294  1  0.98610585  0.99736513  0.35452503  1
  O  O295  1  1.01341731  0.98592474  0.86820848  1
  O  O296  1  0.03681933  0.02804547  0.18883264  1
  O  O297  1  -0.06636038  0.03053066  0.61829946  1
  O  O298  1  0.00968287  0.50878049  0.11738576  1
  O  O299  1  0.00685930  0.49734623  0.62561033  1
  O  O300  1  0.50322490  0.00281466  0.12990143  1
  O  O301  1  0.51118193  -0.00205744  0.59373145  1
  O  O302  1  0.50993021  0.50204215  0.13514344  1
  O  O303  1  0.50103692  0.51835724  0.62584114  1
  O  O304  1  0.26029524  0.39682099  0.24830008  1
  O  O305  1  0.26464324  0.37446556  0.72559696  1
  O  O306  1  0.25981298  0.87899829  0.23272796  1
  O  O307  1  0.23888427  0.87634057  0.73567538  1
  O  O308  1  0.75063113  0.38771525  0.24770126  1
  O  O309  1  0.71419012  0.37770832  0.74950274  1
  O  O310  1  0.75405799  0.88817064  0.24874408  1
  O  O311  1  0.76035538  0.87453740  0.71945195  1
  O  O312  1  0.20057584  0.05593100  0.28048188  1
  O  O313  1  0.27038599  0.11191197  0.71693804  1
  O  O314  1  0.25975660  0.62501747  0.25691552  1
  O  O315  1  0.26678637  0.61774480  0.74537098  1
  O  O316  1  0.75591067  0.11355926  0.24422730  1
  O  O317  1  0.70027684  0.17254499  0.83437932  1
  O  O318  1  0.76109181  0.61626727  0.24274460  1
  O  O319  1  0.77889758  0.60345947  0.74311618  1
  O  O320  1  0.31793882  0.12712388  0.40800328  1
  O  O321  1  0.37247937  0.10651305  0.83483163  1
  O  O322  1  0.36490757  0.61858415  0.36851382  1
  O  O323  1  0.37792478  0.64551043  0.85791230  1
  O  O324  1  0.86383948  0.11306400  0.36435414  1
  O  O325  1  0.87321266  0.11138316  0.87113584  1
  O  O326  1  0.86563310  0.62371415  0.35383069  1
  O  O327  1  0.86149148  0.65254890  0.87624438  1
  O  O328  1  0.12979641  0.39459012  0.12325265  1
  O  O329  1  0.14310986  0.40317955  0.62351660  1
  O  O330  1  0.14297787  0.88067194  0.11050721  1
  O  O331  1  0.13382254  0.86791985  0.63505167  1
  O  O332  1  0.64150881  0.38078165  0.14390886  1
  O  O333  1  0.60704242  0.39527696  0.63021058  1
  O  O334  1  0.61900192  0.88932316  0.14157058  1
  O  O335  1  0.64180918  0.86527869  0.61220422  1
  O  O336  1  0.21876849  0.25220604  0.33355179  1
  O  O337  1  0.10493770  0.20977668  0.72293251  1
  O  O338  1  0.11029164  0.73990385  0.25041890  1
  O  O339  1  0.11739401  0.74894111  0.75460095  1
  O  O340  1  0.61707510  0.26080965  0.25290304  1
  O  O341  1  0.60076825  0.26892018  0.73605457  1
  O  O342  1  0.62545580  0.76203350  0.24901692  1
  O  O343  1  0.63547431  0.73705990  0.74897072  1
  O  O344  1  0.40091954  0.24442305  0.30903166  1
  O  O345  1  0.37996181  0.23516700  0.72376253  1
  O  O346  1  0.37702963  0.73885646  0.26514388  1
  O  O347  1  0.36457059  0.74293995  0.73224227  1
  O  O348  1  0.85399944  0.24285872  0.25756188  1
  O  O349  1  0.84742578  0.23074598  0.74844337  1
  O  O350  1  0.88120797  0.73583356  0.24164764  1
  O  O351  1  0.87835282  0.74173196  0.74538790  1
  O  O352  1  0.37236537  0.50136701  0.48437268  1
  O  O353  1  0.29214895  0.46345137  0.95555134  1
  O  O354  1  0.41877623  1.03717126  0.47996358  1
  O  O355  1  0.39268665  0.99687847  0.99908960  1
  O  O356  1  0.83271089  0.44822897  0.52623095  1
  O  O357  1  0.88956330  0.49850011  0.98164142  1
  O  O358  1  0.88191148  0.99019628  0.47692054  1
  O  O359  1  0.87846320  0.99111215  0.97800775  1
  O  O360  1  0.15779802  0.04499981  0.01156800  1
  O  O361  1  0.12940551  0.01516635  0.49911640  1
  O  O362  1  0.11989672  0.51599309  0.01459017  1
  O  O363  1  0.12862367  0.51463439  0.51258525  1
  O  O364  1  0.60904007  -0.00976315  0.01928897  1
  O  O365  1  0.62168468  -0.01920445  0.50004153  1
  O  O366  1  0.61502907  0.47473221  0.02243977  1
  O  O367  1  0.62136999  0.49479110  0.50766028  1
  O  O368  1  0.37699813  0.38414607  0.11862719  1
  O  O369  1  0.37205125  0.37010430  0.60863138  1
  O  O370  1  0.36373157  0.87356855  0.10496575  1
  O  O371  1  0.36036092  0.85848542  0.62592780  1
  O  O372  1  0.86881625  0.36789890  0.12080382  1
  O  O373  1  0.83276822  0.45035750  0.69685220  1
  O  O374  1  0.90084645  0.89962559  0.10279285  1
  O  O375  1  0.87209984  0.86585673  0.60986049  1
  O  O376  1  0.09598500  0.12350151  0.37256891  1
  O  O377  1  0.05399931  0.14142822  0.90842825  1
  O  O378  1  0.13230233  0.61661603  0.38718436  1
  O  O379  1  0.12314076  0.63255988  0.89258429  1
  O  O380  1  0.64359907  0.13340528  0.38767131  1
  O  O381  1  0.63399104  0.12986412  0.86438012  1
  O  O382  1  0.64031480  0.63705501  0.35970491  1
  O  O383  1  0.63636137  0.59956507  0.90305271  1
