# generated using pymatgen
data_VZnO4
_symmetry_space_group_name_H-M   'P 1'
_cell_length_a   16.87922412
_cell_length_b   16.89613608
_cell_length_c   17.04396699
_cell_angle_alpha   89.33523632
_cell_angle_beta   90.83919272
_cell_angle_gamma   89.91107685
_symmetry_Int_Tables_number   1
_chemical_formula_structural   VZnO4
_chemical_formula_sum   'V64 Zn64 O256'
_cell_volume   4859.97574250
_cell_formula_units_Z   64
loop_
 _symmetry_equiv_pos_site_id
 _symmetry_equiv_pos_as_xyz
  1  'x, y, z'
loop_
 _atom_site_type_symbol
 _atom_site_label
 _atom_site_symmetry_multiplicity
 _atom_site_fract_x
 _atom_site_fract_y
 _atom_site_fract_z
 _atom_site_occupancy
  V  V0  1  0.00376149  0.52818844  -0.01289207  1
  V  V1  1  0.90070001  -0.01673861  0.39479018  1
  V  V2  1  0.87924561  0.12110033  0.26093315  1
  V  V3  1  0.89474741  0.25507948  0.12522887  1
  V  V4  1  -0.00584635  0.63200996  0.60246844  1
  V  V5  1  0.50189155  0.21810874  0.21743632  1
  V  V6  1  0.62981556  0.85803584  0.76732038  1
  V  V7  1  0.25768830  0.52941342  0.25535797  1
  V  V8  1  0.24776002  0.85887708  0.12064136  1
  V  V9  1  0.01355326  0.76575293  0.24043982  1
  V  V10  1  0.86767008  0.40739004  0.49440905  1
  V  V11  1  0.86452633  0.77157969  0.61442519  1
  V  V12  1  0.89616732  0.38275024  -0.01597455  1
  V  V13  1  0.48769644  0.51726659  0.49084732  1
  V  V14  1  0.26931217  0.86150307  0.63138349  1
  V  V15  1  0.24641289  0.13006582  0.87172396  1
  V  V16  1  0.12855087  0.52435029  0.11627332  1
  V  V17  1  0.49187523  0.88744632  0.34105491  1
  V  V18  1  0.62506810  0.37216762  0.76096042  1
  V  V19  1  0.74329194  0.38553827  0.12255327  1
  V  V20  1  0.36839789  0.26383267  0.61525446  1
  V  V21  1  0.72204913  0.87516819  0.13044558  1
  V  V22  1  0.12671984  0.85451906  0.75979070  1
  V  V23  1  0.37509420  0.12985995  0.74886316  1
  V  V24  1  0.23529580  0.62522422  0.87646431  1
  V  V25  1  0.52034962  0.62853510  0.14338719  1
  V  V26  1  0.62784506  0.11731974  0.01299783  1
  V  V27  1  0.87398847  0.88241881  0.02653166  1
  V  V28  1  0.49637942  0.73890465  0.78014617  1
  V  V29  1  -0.00658042  0.26172387  0.74534456  1
  V  V30  1  0.76072059  0.51148836  0.75727755  1
  V  V31  1  0.11685230  0.12500977  0.00230308  1
  V  V32  1  0.49630801  0.63163566  0.63259339  1
  V  V33  1  0.74703649  0.26316185  -0.00884053  1
  V  V34  1  0.74585548  0.11304497  0.88174464  1
  V  V35  1  0.50778907  0.12015662  0.61859258  1
  V  V36  1  0.88650209  0.58187049  0.26381637  1
  V  V37  1  0.06662967  0.36938464  0.34707153  1
  V  V38  1  0.62360005  0.50312362  0.62024504  1
  V  V39  1  0.35287139  0.00360591  0.36852364  1
  V  V40  1  0.87843470  0.63747214  0.75261704  1
  V  V41  1  0.26571470  0.26641757  -0.01309752  1
  V  V42  1  0.22462712  0.74066975  -0.00817136  1
  V  V43  1  0.88169708  0.11509433  0.76164651  1
  V  V44  1  0.75387788  0.36380974  0.62679406  1
  V  V45  1  -0.01453757  0.12402810  0.61361020  1
  V  V46  1  0.50410529  0.25602602  0.76177364  1
  V  V47  1  0.73981327  0.74649995  -0.01790409  1
  V  V48  1  0.38160171  -0.00804995  0.87395964  1
  V  V49  1  0.14895347  0.13446379  0.50729954  1
  V  V50  1  0.24917791  0.00137170  0.75004103  1
  V  V51  1  0.22438287  0.49427577  0.74807473  1
  V  V52  1  0.25182017  0.37821936  0.12382406  1
  V  V53  1  -0.01272273  0.87627701  0.87948598  1
  V  V54  1  0.22353380  0.37894011  0.61435973  1
  V  V55  1  0.11545908  0.26751291  0.86554385  1
  V  V56  1  0.72305156  0.73715845  0.50343008  1
  V  V57  1  0.38458329  0.84364405  -0.00187019  1
  V  V58  1  0.12272435  -0.00199859  0.62475504  1
  V  V59  1  0.45244569  0.35351961  0.39087195  1
  V  V60  1  0.73860620  0.00318927  0.73639710  1
  V  V61  1  0.49778098  0.00138830  0.01077547  1
  V  V62  1  0.40337077  0.87891707  0.51177381  1
  V  V63  1  0.37362952  0.60453740  0.75878770  1
  Zn  Zn64  1  0.19609669  0.19878064  0.16420759  1
  Zn  Zn65  1  0.17907830  0.19449969  0.68129216  1
  Zn  Zn66  1  0.19286384  0.70424455  0.19356439  1
  Zn  Zn67  1  0.19419239  0.67514415  0.66588019  1
  Zn  Zn68  1  0.71244530  0.24439950  0.22041770  1
  Zn  Zn69  1  0.68806149  0.18330148  0.68722446  1
  Zn  Zn70  1  0.71686283  0.71047618  0.19030162  1
  Zn  Zn71  1  0.68492775  0.69324846  0.68710021  1
  Zn  Zn72  1  0.31116085  0.27641305  0.29850438  1
  Zn  Zn73  1  0.30505181  0.31279247  0.79660894  1
  Zn  Zn74  1  0.29037622  0.84892613  0.32604121  1
  Zn  Zn75  1  0.31500600  0.80496493  0.81157179  1
  Zn  Zn76  1  0.85118192  0.37058935  0.28847211  1
  Zn  Zn77  1  0.81495454  0.30959085  0.81128612  1
  Zn  Zn78  1  0.80403100  0.81236288  0.31928308  1
  Zn  Zn79  1  0.81540796  0.81674187  0.80765275  1
  Zn  Zn80  1  0.24764501  0.41223605  0.40814467  1
  Zn  Zn81  1  0.17829453  0.44807789  0.93440808  1
  Zn  Zn82  1  0.19149633  0.92707939  0.46022399  1
  Zn  Zn83  1  0.15635368  0.94996690  0.92757520  1
  Zn  Zn84  1  0.67405643  0.42473181  0.45184742  1
  Zn  Zn85  1  0.67902083  0.45337853  0.93350199  1
  Zn  Zn86  1  0.65178309  0.86479246  0.39695045  1
  Zn  Zn87  1  0.68877176  0.93661371  0.93829046  1
  Zn  Zn88  1  0.27806396  0.04137397  0.04188538  1
  Zn  Zn89  1  0.32435969  0.05410032  0.56670754  1
  Zn  Zn90  1  0.35369472  0.51876490  0.08566179  1
  Zn  Zn91  1  0.31531417  0.55543273  0.57300064  1
  Zn  Zn92  1  0.82515992  0.05269183  0.09061541  1
  Zn  Zn93  1  0.76794772  -0.03091848  0.53455218  1
  Zn  Zn94  1  0.81817365  0.56616255  0.05215184  1
  Zn  Zn95  1  0.80330602  0.57401080  0.56940517  1
  Zn  Zn96  1  0.40193659  0.38981430  0.21410748  1
  Zn  Zn97  1  0.43887319  0.43835137  0.68395949  1
  Zn  Zn98  1  0.39801662  0.94433128  0.17469273  1
  Zn  Zn99  1  0.47183486  0.91808566  0.68591743  1
  Zn  Zn100  1  0.96015510  0.42444377  0.17110223  1
  Zn  Zn101  1  0.96417122  0.43278330  0.64653547  1
  Zn  Zn102  1  0.91553217  0.92100265  0.22403541  1
  Zn  Zn103  1  0.94001696  0.93762456  0.69060687  1
  Zn  Zn104  1  0.06157665  0.06577732  0.32257644  1
  Zn  Zn105  1  0.06215623  0.05570859  0.81831693  1
  Zn  Zn106  1  0.06473417  0.53725217  0.30044185  1
  Zn  Zn107  1  0.05258596  0.57612142  0.80103100  1
  Zn  Zn108  1  0.55146094  0.05141797  0.32601838  1
  Zn  Zn109  1  0.56223355  0.06957470  0.81467858  1
  Zn  Zn110  1  0.51956628  0.51566687  0.28708810  1
  Zn  Zn111  1  0.57017217  0.55682159  0.81849118  1
  Zn  Zn112  1  0.41708551  0.17208128  0.44253127  1
  Zn  Zn113  1  0.44246807  0.18507682  0.93881861  1
  Zn  Zn114  1  0.50821064  0.73197482  0.47012934  1
  Zn  Zn115  1  0.44289671  0.64080921  0.94852257  1
  Zn  Zn116  1  1.00641408  0.18894267  0.40484976  1
  Zn  Zn117  1  0.93535484  0.19002602  0.93603789  1
  Zn  Zn118  1  0.89967975  0.67941711  0.43247800  1
  Zn  Zn119  1  0.93033139  0.70726265  0.93807223  1
  Zn  Zn120  1  0.07548076  0.31630193  0.05100828  1
  Zn  Zn121  1  0.05350266  0.31445562  0.53153764  1
  Zn  Zn122  1  0.05428777  0.80996636  0.06200885  1
  Zn  Zn123  1  0.07789234  0.79295543  0.58422932  1
  Zn  Zn124  1  0.57930260  0.28596215  0.08732589  1
  Zn  Zn125  1  0.54796825  0.32227040  0.56837874  1
  Zn  Zn126  1  0.56330212  0.81315396  0.04693466  1
  Zn  Zn127  1  0.60646160  0.86614190  0.56639304  1
  O  O128  1  0.12227647  0.14553567  0.10037719  1
  O  O129  1  0.11736242  0.11612152  0.61960135  1
  O  O130  1  0.13198169  0.62227298  0.11888725  1
  O  O131  1  0.09343331  0.67703052  0.61189882  1
  O  O132  1  0.63504452  0.11614268  0.10771469  1
  O  O133  1  0.60788419  0.13742376  0.62153402  1
  O  O134  1  0.62381963  0.63979603  0.15699104  1
  O  O135  1  0.61201813  0.60775859  0.64258397  1
  O  O136  1  0.34799669  0.35234031  0.38215697  1
  O  O137  1  0.37895017  0.38562603  0.88264169  1
  O  O138  1  0.39044331  0.87390327  0.39289495  1
  O  O139  1  0.36880769  0.88877548  0.88197386  1
  O  O140  1  0.86449487  0.37534983  0.40001746  1
  O  O141  1  0.87114013  0.37514589  0.88733421  1
  O  O142  1  0.86102717  0.91123233  0.33014834  1
  O  O143  1  0.88968653  0.89066743  0.85650730  1
  O  O144  1  0.24992142  -0.05073533  0.36966463  1
  O  O145  1  0.25750032  0.01303900  0.86731574  1
  O  O146  1  0.24501952  0.51309062  0.35463227  1
  O  O147  1  0.23909173  0.51045158  0.85693897  1
  O  O148  1  0.72226010  0.01207880  0.28934157  1
  O  O149  1  0.75142844  0.01103528  0.86767515  1
  O  O150  1  0.69288966  0.47792179  0.34734962  1
  O  O151  1  0.75462669  0.49573461  0.85431369  1
  O  O152  1  0.24368981  0.49752635  0.12235332  1
  O  O153  1  0.24693418  0.48670870  0.63743257  1
  O  O154  1  0.28341821  0.95900064  0.12100624  1
  O  O155  1  0.24755216  0.99465996  0.63924531  1
  O  O156  1  0.75770235  0.48395628  0.10557364  1
  O  O157  1  0.73340464  0.49946706  0.63390963  1
  O  O158  1  0.75080997  0.97390544  0.13580030  1
  O  O159  1  0.74793159  1.00885646  0.63861213  1
  O  O160  1  0.02596694  0.37093612  0.25292097  1
  O  O161  1  -0.00990686  0.35994432  0.73263620  1
  O  O162  1  0.01513791  0.86773729  0.24528399  1
  O  O163  1  0.02088933  0.88137552  0.76050761  1
  O  O164  1  0.48411336  0.40488401  0.30522266  1
  O  O165  1  0.51183122  0.36693741  0.74395685  1
  O  O166  1  0.46309671  0.87385935  0.24725278  1
  O  O167  1  0.49457409  0.84232747  0.77841431  1
  O  O168  1  0.49871887  0.12440900  0.25572518  1
  O  O169  1  0.49433560  0.14275010  0.74648828  1
  O  O170  1  0.49944339  0.63102356  0.24801434  1
  O  O171  1  0.49209688  0.61057672  0.75225044  1
  O  O172  1  0.97721833  0.15100530  0.29700168  1
  O  O173  1  0.98802105  0.12066029  0.75889994  1
  O  O174  1  0.98648239  0.60875454  0.26100025  1
  O  O175  1  0.98138518  0.63608328  0.73384413  1
  O  O176  1  0.36469100  0.25677780  -0.02268969  1
  O  O177  1  0.36502580  0.24667182  0.51895954  1
  O  O178  1  0.40201527  0.74758515  -0.01830725  1
  O  O179  1  0.40752224  0.77746732  0.51266416  1
  O  O180  1  0.86969283  0.26263569  -0.00042057  1
  O  O181  1  0.82872991  0.20196538  0.46809754  1
  O  O182  1  0.85943167  0.77906299  -0.01099239  1
  O  O183  1  0.84366691  0.75484152  0.50792264  1
  O  O184  1  0.13273867  0.23280886  0.52254103  1
  O  O185  1  0.13190470  0.24345798  0.97631724  1
  O  O186  1  0.11300002  0.83397917  0.47566234  1
  O  O187  1  0.12725028  0.75305320  0.98866980  1
  O  O188  1  0.61665455  0.26983304  0.48299918  1
  O  O189  1  0.64181685  0.23429697  1.00145036  1
  O  O190  1  0.61900441  0.75320341  0.51830949  1
  O  O191  1  0.63480679  0.75369633  0.98747382  1
  O  O192  1  0.49459535  0.21728964  0.11609871  1
  O  O193  1  0.48448752  0.24635872  0.63116895  1
  O  O194  1  0.51396196  0.73127469  0.13313963  1
  O  O195  1  0.50842134  0.72771731  0.65608416  1
  O  O196  1  0.99397223  0.26004140  0.10656204  1
  O  O197  1  1.00827166  0.22819760  0.64486245  1
  O  O198  1  1.00297560  0.74811797  0.14118216  1
  O  O199  1  0.96888066  0.75834794  0.61131181  1
  O  O200  1  0.02191825  0.29964870  0.41428610  1
  O  O201  1  0.00848641  0.25019595  0.86145332  1
  O  O202  1  -0.04726412  0.74544588  0.34234263  1
  O  O203  1  0.00467132  0.77637550  0.87916646  1
  O  O204  1  0.47922566  0.25664617  0.39037264  1
  O  O205  1  0.49945493  0.25096750  0.85975334  1
  O  O206  1  0.53717675  0.80049365  0.38274130  1
  O  O207  1  0.50926469  0.70187299  0.87335685  1
  O  O208  1  0.24798798  0.12472027  0.51098801  1
  O  O209  1  0.24973483  0.14574954  0.98392218  1
  O  O210  1  0.24167643  0.64202956  0.54946517  1
  O  O211  1  0.24038742  0.62880409  0.98003005  1
  O  O212  1  0.72159983  0.07387818  0.46846159  1
  O  O213  1  0.74455956  0.11827842  0.99178077  1
  O  O214  1  0.73198280  0.63749976  0.49729845  1
  O  O215  1  0.76584401  0.64682702  0.99298097  1
  O  O216  1  0.25013749  0.36902617  -0.01655325  1
  O  O217  1  0.24430043  0.38828660  0.51831421  1
  O  O218  1  0.26935597  0.84652849  -0.00464835  1
  O  O219  1  0.25681540  0.85985407  0.53153290  1
  O  O220  1  0.74441743  0.36890728  -0.00998503  1
  O  O221  1  0.75917545  0.38021211  0.51682674  1
  O  O222  1  0.75281271  0.87742319  0.01273177  1
  O  O223  1  0.69120999  0.89593179  0.50074321  1
  O  O224  1  0.14681873  0.50842861  0.22723254  1
  O  O225  1  0.12634632  0.50778334  0.74095238  1
  O  O226  1  0.14170215  1.02332126  0.24446156  1
  O  O227  1  0.13821112  1.00065150  0.74373993  1
  O  O228  1  0.64153456  0.47002598  0.29093920  1
  O  O229  1  0.62811462  0.48514780  0.74208098  1
  O  O230  1  0.67246804  1.05502748  0.25721478  1
  O  O231  1  0.63988269  1.01788127  0.75006934  1
  O  O232  1  0.35285182  -0.00682277  0.26832638  1
  O  O233  1  0.36572215  0.01072504  0.76212904  1
  O  O234  1  0.35496370  0.49502317  0.23798287  1
  O  O235  1  0.37083640  0.50175631  0.74923021  1
  O  O236  1  0.89230691  0.03304420  0.21122254  1
  O  O237  1  0.86439768  0.01185993  0.74891322  1
  O  O238  1  0.88854705  0.47777886  0.25188679  1
  O  O239  1  0.86318731  0.52078105  0.74100292  1
  O  O240  1  0.16707121  0.35117134  0.35206429  1
  O  O241  1  0.12201574  0.36559302  0.87096025  1
  O  O242  1  0.04351578  0.84418851  0.42573629  1
  O  O243  1  0.15134273  0.86328950  0.85847247  1
  O  O244  1  0.63193790  0.31421679  0.42191605  1
  O  O245  1  0.62910420  0.37236226  0.85803867  1
  O  O246  1  0.58970740  0.93754529  0.33410328  1
  O  O247  1  0.61575703  0.89453366  0.85867412  1
  O  O248  1  0.34219820  0.11300670  0.13341001  1
  O  O249  1  0.37169633  0.13748672  0.64050745  1
  O  O250  1  0.41510283  0.61656397  0.12836212  1
  O  O251  1  0.38947016  0.61793130  0.64255548  1
  O  O252  1  0.87369242  0.15162462  0.12840477  1
  O  O253  1  0.88827032  0.12463927  0.64297965  1
  O  O254  1  0.85718996  0.62011282  0.15623659  1
  O  O255  1  0.87767686  0.64060977  0.62597566  1
  O  O256  1  0.25420368  0.26662027  0.09466056  1
  O  O257  1  0.25802459  0.27108748  0.64193941  1
  O  O258  1  0.24906906  0.74066531  0.09531493  1
  O  O259  1  0.27005971  0.76489020  0.65564353  1
  O  O260  1  0.76303282  0.26468067  0.10315678  1
  O  O261  1  0.74886792  0.26422602  0.63258539  1
  O  O262  1  0.74436958  0.76725365  0.09683937  1
  O  O263  1  0.74500576  0.75456532  0.61128768  1
  O  O264  1  0.23490674  0.19070054  0.31768249  1
  O  O265  1  0.23945652  0.24971274  0.87016140  1
  O  O266  1  0.26301793  0.74120684  0.37744626  1
  O  O267  1  0.25890001  0.73401113  0.88193346  1
  O  O268  1  0.76272876  0.22726415  0.45055746  1
  O  O269  1  0.75826786  0.23772456  0.88904353  1
  O  O270  1  0.73284253  0.77859046  0.40169374  1
  O  O271  1  0.74623957  0.77091793  0.88163576  1
  O  O272  1  0.01844930  0.12193296  -0.01891582  1
  O  O273  1  -0.01547818  0.13885769  0.51492306  1
  O  O274  1  -0.01398712  0.62557796  -0.00075807  1
  O  O275  1  -0.01937683  0.63890794  0.50307727  1
  O  O276  1  0.51611449  0.11448645  -0.01069109  1
  O  O277  1  0.48293864  0.12086574  0.52103281  1
  O  O278  1  0.52825524  0.60929547  0.04275792  1
  O  O279  1  0.49925124  0.62638106  0.52482246  1
  O  O280  1  0.49455164  0.39610007  0.48096184  1
  O  O281  1  0.49099299  0.36375189  1.02486522  1
  O  O282  1  0.50014767  0.90322987  0.52324651  1
  O  O283  1  0.48851085  0.89050675  0.99455609  1
  O  O284  1  0.96087643  0.38023537  0.53900497  1
  O  O285  1  0.99718098  0.37997160  0.98764285  1
  O  O286  1  0.97934624  0.84998487  0.46400909  1
  O  O287  1  0.98110037  0.87350176  0.99501208  1
  O  O288  1  0.50842081  0.53846121  0.39645794  1
  O  O289  1  0.43813195  0.42733310  0.87018968  1
  O  O290  1  0.46467263  0.99288309  0.37565944  1
  O  O291  1  0.48334094  1.00649300  0.87069854  1
  O  O292  1  1.05384328  0.46353226  0.38492938  1
  O  O293  1  1.01005783  0.51688375  0.88843278  1
  O  O294  1  1.00114161  0.99061200  0.38189202  1
  O  O295  1  1.04162401  0.97056420  0.88938483  1
  O  O296  1  0.11240851  0.00263441  0.17945898  1
  O  O297  1  0.00988856  0.01292068  0.63287085  1
  O  O298  1  0.02218276  0.50099581  0.11187473  1
  O  O299  1  0.00715475  0.53323409  0.62089641  1
  O  O300  1  0.47989770  0.00245361  0.10639436  1
  O  O301  1  0.49130718  0.02485611  0.64938757  1
  O  O302  1  0.53423083  0.52235392  0.16638707  1
  O  O303  1  0.50776532  0.50307682  0.61760535  1
  O  O304  1  0.25908107  0.35437091  0.22141939  1
  O  O305  1  0.23992783  0.38957729  0.74551857  1
  O  O306  1  0.25900547  0.82839408  0.21859717  1
  O  O307  1  0.25113111  0.88450656  0.74788018  1
  O  O308  1  0.75292653  0.35980999  0.22504955  1
  O  O309  1  0.74097081  0.37960478  0.74322222  1
  O  O310  1  0.73372455  0.82609931  0.22856006  1
  O  O311  1  0.73390606  0.89018223  0.75256795  1
  O  O312  1  0.30098421  0.13291639  0.19216527  1
  O  O313  1  0.25461199  0.12384056  0.75351349  1
  O  O314  1  0.26392790  0.62870200  0.24493964  1
  O  O315  1  0.25861455  0.61021921  0.74272304  1
  O  O316  1  0.78702810  0.16671651  0.26116966  1
  O  O317  1  0.75915281  0.12173858  0.75918802  1
  O  O318  1  0.79014191  0.61910482  0.20863028  1
  O  O319  1  0.75021224  0.61586602  0.74601492  1
  O  O320  1  0.34892661  0.10433583  0.38259598  1
  O  O321  1  0.36703165  0.12573011  0.86254781  1
  O  O322  1  0.32027751  0.69093567  0.40023210  1
  O  O323  1  0.35918208  0.61292148  0.85944733  1
  O  O324  1  0.85988841  0.07423565  0.35868652  1
  O  O325  1  0.86598970  0.12440401  0.86667785  1
  O  O326  1  0.85468007  0.60558137  0.35577621  1
  O  O327  1  0.88005737  0.64680630  0.85067544  1
  O  O328  1  0.14665430  0.38586087  0.10541507  1
  O  O329  1  0.12433152  0.36994077  0.61461484  1
  O  O330  1  0.14876356  0.86870935  0.10208599  1
  O  O331  1  0.13911367  0.87924872  0.64146021  1
  O  O332  1  0.64262286  0.37511131  0.11004564  1
  O  O333  1  0.63163331  0.38443025  0.62858085  1
  O  O334  1  0.62170475  0.87826832  0.12032531  1
  O  O335  1  0.58790724  0.88932235  0.67410737  1
  O  O336  1  0.16849784  0.19905613  0.27416567  1
  O  O337  1  0.11193525  0.24576159  0.76018147  1
  O  O338  1  0.10954110  0.73602278  0.26309000  1
  O  O339  1  0.13393701  0.75810280  0.74454036  1
  O  O340  1  0.59846878  0.25589678  0.23105650  1
  O  O341  1  0.61383634  0.26037953  0.74387992  1
  O  O342  1  0.65811034  0.69694474  0.30402558  1
  O  O343  1  0.62105615  0.75267455  0.76334944  1
  O  O344  1  0.41201892  0.27447838  0.24008328  1
  O  O345  1  0.38564463  0.24949032  0.74598458  1
  O  O346  1  0.38962898  0.69916239  0.37070760  1
  O  O347  1  0.39069510  0.72821222  0.76408581  1
  O  O348  1  0.89069055  0.27830179  0.22395453  1
  O  O349  1  0.88730334  0.23707890  0.75520038  1
  O  O350  1  0.89760540  0.74409808  0.27532655  1
  O  O351  1  0.85157037  0.74337637  0.72747183  1
  O  O352  1  0.38689381  0.51410512  0.49671710  1
  O  O353  1  0.40320374  0.54389564  0.99080119  1
  O  O354  1  0.35483990  0.97984749  0.48940561  1
  O  O355  1  0.38175092  1.01109627  0.98154585  1
  O  O356  1  0.86046406  0.50679477  0.49625271  1
  O  O357  1  0.89530018  0.49293138  1.00120984  1
  O  O358  1  0.87052848  0.97614654  0.48975148  1
  O  O359  1  0.86781823  0.98411027  1.00949783  1
  O  O360  1  0.16078938  0.02586188  0.00732426  1
  O  O361  1  0.13537341  0.00736295  0.52139330  1
  O  O362  1  0.11624419  0.51216952  0.00346272  1
  O  O363  1  0.18424149  0.61677391  0.48566678  1
  O  O364  1  0.60888582  0.00508450  -0.00424184  1
  O  O365  1  0.64462356  0.07952629  0.46145538  1
  O  O366  1  0.52118283  0.42291414  -0.00681298  1
  O  O367  1  0.61494017  0.49904789  0.51579358  1
  O  O368  1  0.35821839  0.40072189  0.10527668  1
  O  O369  1  0.37492050  0.36600502  0.62388579  1
  O  O370  1  0.38019985  0.84874415  0.09920674  1
  O  O371  1  0.37499012  0.88886806  0.62597911  1
  O  O372  1  0.87240602  0.37173439  0.09971528  1
  O  O373  1  0.85131515  0.39079869  0.63350072  1
  O  O374  1  0.87682235  0.87203948  0.12632043  1
  O  O375  1  0.86557633  0.87193449  0.63082754  1
  O  O376  1  0.10949591  0.12355767  0.41050150  1
  O  O377  1  0.13668534  0.13014442  0.87549857  1
  O  O378  1  0.14592036  0.67196989  0.45494193  1
  O  O379  1  0.13855829  0.63381358  0.85366953  1
  O  O380  1  0.61871831  0.12128945  0.39794705  1
  O  O381  1  0.64221938  0.12603752  0.87800865  1
  O  O382  1  0.65226977  0.62944369  0.33442849  1
  O  O383  1  0.60444839  0.53524510  0.91892599  1
