# generated using pymatgen
data_VZnO4
_symmetry_space_group_name_H-M   'P 1'
_cell_length_a   17.03490674
_cell_length_b   17.02437609
_cell_length_c   16.88240764
_cell_angle_alpha   90.30443394
_cell_angle_beta   89.14170918
_cell_angle_gamma   89.32433541
_symmetry_Int_Tables_number   1
_chemical_formula_structural   VZnO4
_chemical_formula_sum   'V64 Zn64 O256'
_cell_volume   4895.08088702
_cell_formula_units_Z   64
loop_
 _symmetry_equiv_pos_site_id
 _symmetry_equiv_pos_as_xyz
  1  'x, y, z'
loop_
 _atom_site_type_symbol
 _atom_site_label
 _atom_site_symmetry_multiplicity
 _atom_site_fract_x
 _atom_site_fract_y
 _atom_site_fract_z
 _atom_site_occupancy
  V  V0  1  0.88874385  0.64983244  0.76675937  1
  V  V1  1  0.00508255  0.11454045  0.12802746  1
  V  V2  1  0.60786042  0.63281465  0.49638152  1
  V  V3  1  0.13141853  0.62913031  0.00443559  1
  V  V4  1  0.04864320  0.50864042  0.54469385  1
  V  V5  1  0.61863904  0.25335382  0.37482600  1
  V  V6  1  0.24556325  0.36476486  0.63107349  1
  V  V7  1  0.76869923  0.87067596  0.11694503  1
  V  V8  1  0.75559027  0.12634800  0.86057888  1
  V  V9  1  0.24304191  0.88222393  0.62404886  1
  V  V10  1  0.60717797  0.50647218  0.61802512  1
  V  V11  1  0.73151368  0.00970559  0.24596501  1
  V  V12  1  0.85584813  0.74115297  0.61034478  1
  V  V13  1  -0.00756557  0.63968163  0.12792160  1
  V  V14  1  0.37075468  0.75389786  0.13033309  1
  V  V15  1  0.73942478  0.24571645  -0.00084803  1
  V  V16  1  0.87874935  0.47746543  0.89162461  1
  V  V17  1  0.73972746  0.00402678  0.73155251  1
  V  V18  1  0.37073847  0.11988837  0.25419263  1
  V  V19  1  0.63092190  0.13571935  0.50544395  1
  V  V20  1  0.88534105  0.47589406  0.36427281  1
  V  V21  1  0.50626267  0.76810177  0.25524093  1
  V  V22  1  0.25215531  -0.01524611  0.24668088  1
  V  V23  1  0.37459555  0.85648205  -0.02020211  1
  V  V24  1  0.49666409  0.11736401  0.10352309  1
  V  V25  1  0.49704599  0.11088741  0.62348418  1
  V  V26  1  0.27573800  0.28212175  -0.01311753  1
  V  V27  1  0.85294776  0.00122495  0.36777724  1
  V  V28  1  0.49623839  0.38181194  0.39127831  1
  V  V29  1  0.00103451  0.47707677  0.01834760  1
  V  V30  1  0.62192789  -0.00389964  0.09754862  1
  V  V31  1  0.10083748  0.88480010  0.26914902  1
  V  V32  1  -0.00852133  0.13436581  0.61173138  1
  V  V33  1  0.75454478  0.37454086  0.12851698  1
  V  V34  1  0.49183810  0.26001406  0.22916886  1
  V  V35  1  0.13094358  0.02659883  0.60221906  1
  V  V36  1  -0.01300330  0.25599923  0.25618138  1
  V  V37  1  0.12713065  0.24452528  0.88164357  1
  V  V38  1  0.86746018  0.63823957  0.25106820  1
  V  V39  1  0.87199210  0.23152771  0.11901247  1
  V  V40  1  0.74342124  0.60566312  0.37326771  1
  V  V41  1  0.62872101  0.49157835  0.13114352  1
  V  V42  1  0.13626706  0.23824887  0.37615165  1
  V  V43  1  0.76040458  0.63096123  0.89395300  1
  V  V44  1  0.63078261  0.26830767  0.86145277  1
  V  V45  1  0.39614445  0.68972843  0.62646020  1
  V  V46  1  0.25330277  0.50392510  0.76170262  1
  V  V47  1  -0.00564428  0.24501601  0.75942072  1
  V  V48  1  0.24388280  0.49046651  0.24688274  1
  V  V49  1  0.50090435  0.62334250  0.13432717  1
  V  V50  1  0.49099568  0.25192543  0.75035065  1
  V  V51  1  0.37303158  0.89854980  0.50166791  1
  V  V52  1  0.35854698  0.40305119  0.50080862  1
  V  V53  1  0.63607614  0.76490252  0.37207440  1
  V  V54  1  -0.00912963  -0.01048935  0.49828215  1
  V  V55  1  0.12861632  0.11049650  -0.00778625  1
  V  V56  1  -0.01252710  -0.00916171  -0.00535558  1
  V  V57  1  0.88161171  -0.00555928  0.85265478  1
  V  V58  1  0.77047161  0.49640875  0.73765079  1
  V  V59  1  0.63159334  0.63449151  0.00732161  1
  V  V60  1  0.40273732  0.03085295  0.87874949  1
  V  V61  1  0.12208714  0.37843352  0.75898207  1
  V  V62  1  0.87170791  0.26872989  0.61671058  1
  V  V63  1  0.23144323  0.01375007  0.76795965  1
  Zn  Zn64  1  0.20300020  0.19450276  0.16316695  1
  Zn  Zn65  1  0.18502001  0.18919407  0.68647838  1
  Zn  Zn66  1  0.17851514  0.68452381  0.18376316  1
  Zn  Zn67  1  0.24672713  0.70903406  0.72952764  1
  Zn  Zn68  1  0.67392193  0.18223035  0.18378300  1
  Zn  Zn69  1  0.68884410  0.19495097  0.67862550  1
  Zn  Zn70  1  0.69014834  0.69329189  0.18857068  1
  Zn  Zn71  1  0.69777348  0.66309322  0.68812809  1
  Zn  Zn72  1  0.32130025  0.29998622  0.32140825  1
  Zn  Zn73  1  0.31396411  0.18949373  0.81113372  1
  Zn  Zn74  1  0.33033651  0.81877613  0.30972495  1
  Zn  Zn75  1  0.42392938  0.79781414  0.78793159  1
  Zn  Zn76  1  0.80376291  0.30242507  0.30325926  1
  Zn  Zn77  1  0.81210141  0.31627528  0.80712954  1
  Zn  Zn78  1  0.80692071  0.82568827  0.31068943  1
  Zn  Zn79  1  0.78399033  0.82538582  0.81602235  1
  Zn  Zn80  1  0.17406757  0.42201300  0.44449948  1
  Zn  Zn81  1  0.17171182  0.44258184  0.93792413  1
  Zn  Zn82  1  0.19444445  0.94580759  0.42711111  1
  Zn  Zn83  1  0.19352376  0.93339783  0.96005638  1
  Zn  Zn84  1  0.68007049  0.43978924  0.44395141  1
  Zn  Zn85  1  0.69465122  0.44135557  0.95030333  1
  Zn  Zn86  1  0.62632727  0.97082416  0.40624190  1
  Zn  Zn87  1  0.69259959  0.92743549  0.93256816  1
  Zn  Zn88  1  0.31435132  0.04446280  0.06118710  1
  Zn  Zn89  1  0.32947087  0.06964385  0.57395507  1
  Zn  Zn90  1  0.32007821  0.55966131  0.06166839  1
  Zn  Zn91  1  0.25268956  0.55505271  0.56259748  1
  Zn  Zn92  1  0.80512559  0.05923658  0.05383465  1
  Zn  Zn93  1  0.81263527  0.08311898  0.54513442  1
  Zn  Zn94  1  0.81676897  0.55861183  0.07079124  1
  Zn  Zn95  1  0.82697796  0.43277358  0.55059932  1
  Zn  Zn96  1  0.45682819  0.46536332  0.22478992  1
  Zn  Zn97  1  0.40029132  0.49202959  0.65318384  1
  Zn  Zn98  1  0.43873698  0.94146194  0.17954387  1
  Zn  Zn99  1  0.42050550  0.95289612  0.70185745  1
  Zn  Zn100  1  0.91915777  0.43417868  0.18702679  1
  Zn  Zn101  1  0.95319040  0.44481428  0.69707812  1
  Zn  Zn102  1  0.92955053  0.94095318  0.19314496  1
  Zn  Zn103  1  0.86573157  0.93745342  0.64699400  1
  Zn  Zn104  1  0.06121185  0.06018456  0.31894476  1
  Zn  Zn105  1  0.05564638  0.06433064  0.80623585  1
  Zn  Zn106  1  0.04312987  0.53270050  0.28204455  1
  Zn  Zn107  1  0.10104092  0.59493213  0.78577814  1
  Zn  Zn108  1  0.56088415  0.08211318  0.29604128  1
  Zn  Zn109  1  0.57585730  0.07972106  0.80895236  1
  Zn  Zn110  1  0.56620238  0.56125285  0.31151577  1
  Zn  Zn111  1  0.59600765  0.55231614  0.81546600  1
  Zn  Zn112  1  0.45416281  0.06455415  0.42911072  1
  Zn  Zn113  1  0.44873347  0.20971648  0.94026762  1
  Zn  Zn114  1  0.45822132  0.75212741  0.46282772  1
  Zn  Zn115  1  0.45900196  0.69377556  0.95210411  1
  Zn  Zn116  1  0.91563485  0.17990775  0.43751463  1
  Zn  Zn117  1  0.93396428  0.18036808  0.94055811  1
  Zn  Zn118  1  0.89799723  0.61499741  0.47769134  1
  Zn  Zn119  1  0.98692547  0.62099131  0.90644435  1
  Zn  Zn120  1  0.07207866  0.30054429  0.07859901  1
  Zn  Zn121  1  0.05644648  0.31985434  0.56144097  1
  Zn  Zn122  1  0.05823710  0.80912358  0.06359911  1
  Zn  Zn123  1  0.08315325  0.82882820  0.55491108  1
  Zn  Zn124  1  0.56009383  0.31551883  0.06100345  1
  Zn  Zn125  1  0.56117731  0.32585824  0.56366762  1
  Zn  Zn126  1  0.55875147  0.81751098  0.06030403  1
  Zn  Zn127  1  0.50884591  0.82266169  0.62204988  1
  O  O128  1  0.10950012  0.12852569  0.10622973  1
  O  O129  1  0.11763005  0.13201230  0.61448619  1
  O  O130  1  0.10173804  0.62325145  0.12611922  1
  O  O131  1  0.14691502  0.67680342  0.51922140  1
  O  O132  1  0.61033071  0.10808901  0.12148288  1
  O  O133  1  0.60579662  0.15172489  0.61433594  1
  O  O134  1  0.62591850  0.61983736  0.12168295  1
  O  O135  1  0.63346070  0.62244273  0.60201543  1
  O  O136  1  0.37688670  0.36549425  0.39743037  1
  O  O137  1  0.45062464  0.40182256  0.84539473  1
  O  O138  1  0.36925562  0.85111093  0.40914514  1
  O  O139  1  0.36831465  0.83683968  0.88051351  1
  O  O140  1  0.85791330  0.37984366  0.36324470  1
  O  O141  1  0.87593903  0.37987331  0.87966160  1
  O  O142  1  0.85287492  0.90265552  0.38675637  1
  O  O143  1  0.86413991  0.89860822  0.86764028  1
  O  O144  1  0.24294681  0.01310724  0.34803194  1
  O  O145  1  0.21905623  -0.00245374  0.86441527  1
  O  O146  1  0.23326972  0.48751257  0.35231721  1
  O  O147  1  0.23495189  0.49741574  0.86156826  1
  O  O148  1  0.74031147  0.00312192  0.35397452  1
  O  O149  1  0.75962724  0.01549566  0.85664768  1
  O  O150  1  0.73453627  0.50553724  0.36575330  1
  O  O151  1  0.76767097  0.50338867  0.88118742  1
  O  O152  1  0.25858885  0.48715852  0.14240919  1
  O  O153  1  0.24342665  0.47914928  0.64785104  1
  O  O154  1  0.24552447  1.00682867  0.14462176  1
  O  O155  1  0.23524545  1.02380701  0.61067980  1
  O  O156  1  0.74644411  0.48093265  0.12351437  1
  O  O157  1  0.78772820  0.50593316  0.63956291  1
  O  O158  1  0.73682434  0.99645821  0.12294367  1
  O  O159  1  0.76746237  1.02158092  0.63294890  1
  O  O160  1  -0.01488465  0.35337057  0.23691246  1
  O  O161  1  0.01657431  0.35491093  0.74359057  1
  O  O162  1  0.00146505  0.89239317  0.26679024  1
  O  O163  1  0.03671188  0.78062674  0.71123348  1
  O  O164  1  0.48085402  0.35707566  0.20619277  1
  O  O165  1  0.49069617  0.38731265  0.78468334  1
  O  O166  1  0.50060045  0.86601420  0.24310505  1
  O  O167  1  0.48460862  0.86356247  0.72318923  1
  O  O168  1  0.48492111  0.13344307  0.22949330  1
  O  O169  1  0.51221058  0.14861212  0.73661855  1
  O  O170  1  0.50619768  0.63144141  0.23853386  1
  O  O171  1  0.56001526  0.69248091  0.80000088  1
  O  O172  1  1.00390990  0.11916936  0.23038489  1
  O  O173  1  1.00694583  0.14214500  0.73469569  1
  O  O174  1  0.98401702  0.61827282  0.23825847  1
  O  O175  1  0.99112631  0.63454195  0.78760779  1
  O  O176  1  0.37396255  0.29012419  -0.03484939  1
  O  O177  1  0.33302765  0.21874589  0.48914269  1
  O  O178  1  0.37781501  0.74728186  0.01469652  1
  O  O179  1  0.37012400  0.74046473  0.54269890  1
  O  O180  1  0.86539698  0.24585839  0.01200420  1
  O  O181  1  0.87815381  0.25828987  0.51666712  1
  O  O182  1  0.86368087  0.75166032  0.00862099  1
  O  O183  1  0.87112483  0.71884144  0.51263607  1
  O  O184  1  0.11112720  0.26382908  0.47713630  1
  O  O185  1  0.11429375  0.23512283  0.98684067  1
  O  O186  1  0.12810561  0.74472252  0.48433789  1
  O  O187  1  0.12696077  0.73001872  1.01651810  1
  O  O188  1  0.59811643  0.25232478  0.48309406  1
  O  O189  1  0.63563255  0.25198323  0.99017857  1
  O  O190  1  0.62430053  0.73824334  0.47773695  1
  O  O191  1  0.62697655  0.73427767  1.00761698  1
  O  O192  1  0.50954911  0.23301330  0.12321193  1
  O  O193  1  0.50697105  0.28811781  0.65759963  1
  O  O194  1  0.50090307  0.74053005  0.13594099  1
  O  O195  1  0.49436753  0.70604788  0.63675659  1
  O  O196  1  0.98434883  0.23260149  0.12871172  1
  O  O197  1  0.99662466  0.24589055  0.62938618  1
  O  O198  1  0.98759303  0.73840547  0.12394223  1
  O  O199  1  1.05974306  0.74730800  0.64853704  1
  O  O200  1  -0.04258016  0.23860981  0.35176991  1
  O  O201  1  0.00380458  0.24044238  0.86472684  1
  O  O202  1  0.12542445  0.67410681  0.32580155  1
  O  O203  1  -0.08356762  0.76543807  0.96136975  1
  O  O204  1  0.49948271  0.28432639  0.34813328  1
  O  O205  1  0.52436513  0.25131333  0.86277387  1
  O  O206  1  0.51109196  0.75460998  0.36125879  1
  O  O207  1  0.50813605  0.74097823  0.85246422  1
  O  O208  1  0.28111807  0.17021026  0.50421671  1
  O  O209  1  0.22619204  0.09870846  0.99912873  1
  O  O210  1  0.22434590  0.66648498  0.53041388  1
  O  O211  1  0.22889491  0.60389366  1.01402584  1
  O  O212  1  0.72662331  0.15901258  0.51851779  1
  O  O213  1  0.75286999  0.13922516  0.98525524  1
  O  O214  1  0.73932398  0.62458924  0.47161433  1
  O  O215  1  0.74883829  0.62314845  1.00293160  1
  O  O216  1  0.23515158  0.37308199  0.00111402  1
  O  O217  1  0.25428008  0.36932762  0.51619387  1
  O  O218  1  0.27637074  0.88024352  0.00967005  1
  O  O219  1  0.25828814  0.89028042  0.51030544  1
  O  O220  1  0.74743281  0.35426593  0.01161305  1
  O  O221  1  0.74042434  0.37665260  0.51092033  1
  O  O222  1  0.75585642  0.88260517  0.01581035  1
  O  O223  1  0.67675132  0.88018828  0.56519328  1
  O  O224  1  0.14133618  0.47611943  0.23704641  1
  O  O225  1  0.10773498  0.47612051  0.76928979  1
  O  O226  1  0.12909142  0.98597430  0.25278684  1
  O  O227  1  0.13262155  1.01824803  0.73175399  1
  O  O228  1  0.63097855  0.50539516  0.23119463  1
  O  O229  1  0.65531559  0.52695123  0.72392117  1
  O  O230  1  0.63067599  1.00404093  0.23886087  1
  O  O231  1  0.64134110  1.00973624  0.74100578  1
  O  O232  1  0.36610956  0.00872543  0.24254909  1
  O  O233  1  0.35915748  0.00296937  0.78712119  1
  O  O234  1  0.34735720  0.50660214  0.25433795  1
  O  O235  1  0.35233740  0.51093455  0.75843836  1
  O  O236  1  0.87108228  0.01360446  0.26774473  1
  O  O237  1  0.88652839  0.00249946  0.75139666  1
  O  O238  1  0.86760634  0.50546628  0.26059104  1
  O  O239  1  0.87934746  0.50275625  0.77122591  1
  O  O240  1  0.11798895  0.35382127  0.37901549  1
  O  O241  1  0.12222258  0.35411975  0.86986759  1
  O  O242  1  0.13083553  0.86977671  0.36500096  1
  O  O243  1  0.13468409  0.84858873  0.89566331  1
  O  O244  1  0.60216820  0.37305167  0.39079375  1
  O  O245  1  0.63607635  0.36683446  0.88216654  1
  O  O246  1  0.63820811  0.86243680  0.38143622  1
  O  O247  1  0.67902165  0.85745980  0.85010578  1
  O  O248  1  0.39242824  0.10908899  0.11921266  1
  O  O249  1  0.39716690  0.13412377  0.63237884  1
  O  O250  1  0.39730824  0.62778593  0.11627920  1
  O  O251  1  0.36037819  0.59436579  0.61255920  1
  O  O252  1  0.88170342  0.12777804  0.11527266  1
  O  O253  1  0.88915123  0.14350423  0.62370607  1
  O  O254  1  0.87557826  0.62492622  0.14115679  1
  O  O255  1  0.89467680  0.65258989  0.66095457  1
  O  O256  1  0.26901925  0.23001534  0.07212852  1
  O  O257  1  0.26234116  0.26675895  0.64741347  1
  O  O258  1  0.27535171  0.73149220  0.14639244  1
  O  O259  1  0.23024964  0.78538372  0.63973986  1
  O  O260  1  0.75087299  0.24307153  0.11230042  1
  O  O261  1  0.77601274  0.25800923  0.64431170  1
  O  O262  1  0.74726579  0.77370034  0.13501947  1
  O  O263  1  0.75822458  0.74420648  0.63681319  1
  O  O264  1  0.23468966  0.24391062  0.36111383  1
  O  O265  1  0.23568714  0.24092841  0.88893359  1
  O  O266  1  0.27604958  0.70586284  0.36658664  1
  O  O267  1  0.19162047  0.80440329  0.86284556  1
  O  O268  1  0.71652982  0.26181967  0.36430533  1
  O  O269  1  0.75020770  0.24839470  0.87971834  1
  O  O270  1  0.73586822  0.74302803  0.35889271  1
  O  O271  1  0.75627118  0.72752669  0.88466540  1
  O  O272  1  0.00419957  0.11273052  0.00504733  1
  O  O273  1  -0.00515363  0.12615107  0.50923423  1
  O  O274  1  -0.00325274  0.61629575  0.02105655  1
  O  O275  1  0.00561523  0.58700110  0.49671685  1
  O  O276  1  0.50138407  0.13289221  0.00465884  1
  O  O277  1  0.50426933  0.12128393  0.51701775  1
  O  O278  1  0.52251929  0.62471753  0.01625762  1
  O  O279  1  0.50963738  0.63939207  0.48745867  1
  O  O280  1  0.47830003  0.38989525  0.49659665  1
  O  O281  1  0.49167983  0.39814913  1.00496334  1
  O  O282  1  0.47219966  0.85928258  0.52060871  1
  O  O283  1  0.47668835  0.86565764  0.99761633  1
  O  O284  1  1.01619377  0.41705655  0.51726505  1
  O  O285  1  1.01237403  0.37812320  1.02262345  1
  O  O286  1  1.01146353  0.89208372  0.49781004  1
  O  O287  1  1.00634969  0.89303692  1.00721612  1
  O  O288  1  0.49191724  0.47189505  0.33708482  1
  O  O289  1  0.48641113  0.54332219  0.86228064  1
  O  O290  1  0.52513186  1.00279327  0.36810178  1
  O  O291  1  0.50057300  1.01785196  0.86616421  1
  O  O292  1  0.98636127  0.47809788  0.36059427  1
  O  O293  1  0.98362154  0.49697801  0.90139162  1
  O  O294  1  0.97713567  1.01260126  0.39541978  1
  O  O295  1  0.98849425  1.00435481  0.87859845  1
  O  O296  1  -0.01191805  0.01050953  0.11146197  1
  O  O297  1  0.01733382  0.02360089  0.61607371  1
  O  O298  1  -0.01580393  0.50194523  0.12005972  1
  O  O299  1  0.02465142  0.51716565  0.64472257  1
  O  O300  1  0.51071885  0.00581184  0.11465164  1
  O  O301  1  0.50023147  0.01330414  0.64016639  1
  O  O302  1  0.51303601  0.51427098  0.13533294  1
  O  O303  1  0.51228196  0.51145127  0.64638756  1
  O  O304  1  0.26471044  0.38709557  0.25125822  1
  O  O305  1  0.23349207  0.38473241  0.74989487  1
  O  O306  1  0.25868701  0.88346529  0.25294477  1
  O  O307  1  0.25193251  0.91674332  0.72568952  1
  O  O308  1  0.73499875  0.35418552  0.22446830  1
  O  O309  1  0.75593445  0.39947380  0.75395877  1
  O  O310  1  0.75916098  0.90012352  0.23285707  1
  O  O311  1  0.76826139  0.90445579  0.72885583  1
  O  O312  1  0.27213078  0.13833390  0.23317147  1
  O  O313  1  0.25249005  0.11844199  0.75025403  1
  O  O314  1  0.22796458  0.59294059  0.24886803  1
  O  O315  1  0.20681149  0.60335125  0.74020060  1
  O  O316  1  0.74766743  0.10917530  0.23192331  1
  O  O317  1  0.75339930  0.12488990  0.75459644  1
  O  O318  1  0.75931248  0.62786761  0.25454090  1
  O  O319  1  0.77282925  0.61603378  0.76977977  1
  O  O320  1  0.38287683  0.12090351  0.35400833  1
  O  O321  1  0.38011588  0.13128443  0.88775275  1
  O  O322  1  0.32335568  0.65456689  0.38832210  1
  O  O323  1  0.43478814  0.59916401  0.86688996  1
  O  O324  1  0.84540503  0.09001588  0.42980349  1
  O  O325  1  0.86262706  0.12047006  0.87269372  1
  O  O326  1  0.85786297  0.60949909  0.36279850  1
  O  O327  1  0.86921533  0.61424589  0.88299548  1
  O  O328  1  0.14843220  0.29417053  0.15781278  1
  O  O329  1  0.13740683  0.36045541  0.64130500  1
  O  O330  1  0.12577275  0.84809987  0.15742131  1
  O  O331  1  0.13701413  0.90889879  0.61605171  1
  O  O332  1  0.62905605  0.38737582  0.11702885  1
  O  O333  1  0.62832708  0.40797280  0.61061786  1
  O  O334  1  0.62349444  0.89382687  0.11606010  1
  O  O335  1  0.63544894  0.86958872  0.62461189  1
  O  O336  1  0.09125398  0.24239406  0.27044988  1
  O  O337  1  0.12079347  0.24960999  0.76637647  1
  O  O338  1  0.12306840  0.78587482  0.21556871  1
  O  O339  1  0.16597655  0.75596671  0.80643365  1
  O  O340  1  0.60031729  0.23896862  0.25718353  1
  O  O341  1  0.63405386  0.26398022  0.75938526  1
  O  O342  1  0.61432731  0.74940368  0.25879248  1
  O  O343  1  0.61186046  0.73310295  0.76045145  1
  O  O344  1  0.38774741  0.24016361  0.24690592  1
  O  O345  1  0.39327783  0.25805189  0.76919695  1
  O  O346  1  0.39580649  0.74929971  0.24324046  1
  O  O347  1  0.35829806  0.72660573  0.72172721  1
  O  O348  1  0.87020645  0.24216411  0.22721252  1
  O  O349  1  0.89378125  0.25922460  0.74664791  1
  O  O350  1  0.87367897  0.73589760  0.26666524  1
  O  O351  1  0.87070865  0.74546393  0.78406270  1
  O  O352  1  0.34010963  0.49831976  0.48805731  1
  O  O353  1  0.39135323  0.48463596  0.99915678  1
  O  O354  1  0.37704248  1.00107635  0.48960543  1
  O  O355  1  0.37174680  0.98670092  0.96908921  1
  O  O356  1  0.86474525  0.50280060  0.46946349  1
  O  O357  1  0.88007441  0.49044366  1.00029583  1
  O  O358  1  0.89546902  0.98772349  0.54021561  1
  O  O359  1  0.88467342  1.00443095  0.98607997  1
  O  O360  1  0.10548559  0.00647995  -0.01245200  1
  O  O361  1  0.11437123  0.01067072  0.49908300  1
  O  O362  1  0.10199367  0.50561918  0.00612914  1
  O  O363  1  0.15227755  0.51051350  0.51459589  1
  O  O364  1  0.63280552  0.00141718  -0.00232850  1
  O  O365  1  0.64030942  0.03496996  0.49791944  1
  O  O366  1  0.63450770  0.51328121  0.02014583  1
  O  O367  1  0.61444868  0.51867379  0.50578716  1
  O  O368  1  0.42530167  0.42507421  0.03945307  1
  O  O369  1  0.36454795  0.38993099  0.60883158  1
  O  O370  1  0.37971630  0.85520732  0.12576917  1
  O  O371  1  0.35359297  0.90236822  0.61430104  1
  O  O372  1  0.85753399  0.35810943  0.12415092  1
  O  O373  1  0.89074677  0.37271150  0.62797222  1
  O  O374  1  0.86993489  0.87960340  0.12212284  1
  O  O375  1  0.89893069  0.83058091  0.63053672  1
  O  O376  1  0.11117944  0.14009357  0.37760027  1
  O  O377  1  0.11675644  0.13269516  0.88248127  1
  O  O378  1  0.10524252  0.61286360  0.36115276  1
  O  O379  1  0.10713147  0.62352552  0.90174706  1
  O  O380  1  0.61056002  0.14720091  0.38678914  1
  O  O381  1  0.64825111  0.14552886  0.86893740  1
  O  O382  1  0.62906665  0.62665629  0.37651193  1
  O  O383  1  0.64784516  0.61015965  0.89680421  1
