# generated using pymatgen
data_VZnO4
_symmetry_space_group_name_H-M   'P 1'
_cell_length_a   16.95437758
_cell_length_b   16.91870890
_cell_length_c   16.91892166
_cell_angle_alpha   90.39484245
_cell_angle_beta   89.98797006
_cell_angle_gamma   90.31375054
_symmetry_Int_Tables_number   1
_chemical_formula_structural   VZnO4
_chemical_formula_sum   'V64 Zn64 O256'
_cell_volume   4852.93995678
_cell_formula_units_Z   64
loop_
 _symmetry_equiv_pos_site_id
 _symmetry_equiv_pos_as_xyz
  1  'x, y, z'
loop_
 _atom_site_type_symbol
 _atom_site_label
 _atom_site_symmetry_multiplicity
 _atom_site_fract_x
 _atom_site_fract_y
 _atom_site_fract_z
 _atom_site_occupancy
  V  V0  1  0.37757259  0.34694723  0.50462792  1
  V  V1  1  0.88555701  0.02062968  0.85713767  1
  V  V2  1  0.74856464  0.85872224  0.62310102  1
  V  V3  1  -0.01476984  0.74945382  0.24548928  1
  V  V4  1  0.87778071  0.00801647  0.37628411  1
  V  V5  1  0.87538701  0.38161727  0.51244442  1
  V  V6  1  0.81912147  0.45257368  0.32455039  1
  V  V7  1  0.86918603  0.62523478  0.24163252  1
  V  V8  1  0.14245344  0.11155718  0.01412369  1
  V  V9  1  0.88960194  0.23733822  0.63268074  1
  V  V10  1  0.63217129  0.39752453  0.75234651  1
  V  V11  1  0.10230265  0.54836058  0.11328244  1
  V  V12  1  0.13152703  0.24467596  0.89742614  1
  V  V13  1  0.26103634  -0.01542920  0.75529174  1
  V  V14  1  0.86911607  0.25293942  0.11778687  1
  V  V15  1  0.00644787  0.63689886  0.62586147  1
  V  V16  1  0.13267699  0.36869491  0.22854159  1
  V  V17  1  0.50297142  0.65132279  0.61182526  1
  V  V18  1  0.62372252  0.74390189  0.38709646  1
  V  V19  1  0.00168568  0.36833656  0.85521564  1
  V  V20  1  0.27150816  -0.00640197  0.25013373  1
  V  V21  1  0.49568331  -0.00655512  0.51249929  1
  V  V22  1  0.12141134  0.13563368  0.49163307  1
  V  V23  1  0.63272807  0.87715373  0.76236661  1
  V  V24  1  0.49391111  0.42016070  0.87583565  1
  V  V25  1  0.38816812  0.13532663  0.25168366  1
  V  V26  1  0.10918437  0.72246697  0.37942598  1
  V  V27  1  0.36716163  0.50266340  0.37097904  1
  V  V28  1  0.86776541  0.86590543  0.50042545  1
  V  V29  1  0.11846152  -0.00664393  0.63117806  1
  V  V30  1  0.63538972  0.01704410  0.62629861  1
  V  V31  1  0.75857499  0.63422858  0.39030465  1
  V  V32  1  0.52162899  0.65685146  0.12923523  1
  V  V33  1  0.74999098  0.25429578  0.50816306  1
  V  V34  1  0.88049506  0.38649796  -0.00327588  1
  V  V35  1  0.87195504  0.62644528  0.74787347  1
  V  V36  1  0.00495852  0.77022754  0.75767655  1
  V  V37  1  0.61685658  0.11706402  -0.00417299  1
  V  V38  1  0.74700598  0.61587729  0.86605201  1
  V  V39  1  0.00044166  -0.00302522  0.50107530  1
  V  V40  1  0.00015565  0.24173444  0.25473678  1
  V  V41  1  0.11109099  0.66185878  -0.02982241  1
  V  V42  1  0.74295370  0.12327349  0.38649352  1
  V  V43  1  0.50775390  0.75701030  0.78004523  1
  V  V44  1  0.01327050  0.50204375  0.50990641  1
  V  V45  1  0.26794466  0.87565958  0.60340160  1
  V  V46  1  0.62300040  0.25800024  0.36647214  1
  V  V47  1  0.37456648  0.62188560  0.75194535  1
  V  V48  1  0.76019979  0.85908244  0.13081268  1
  V  V49  1  0.50529723  0.49810603  0.51564102  1
  V  V50  1  -0.00140895  0.11709391  0.11781141  1
  V  V51  1  0.50513455  0.08091068  0.13307385  1
  V  V52  1  0.61847511  0.45972453  0.13748868  1
  V  V53  1  0.25708116  0.85612909  0.12656132  1
  V  V54  1  0.74740752  0.75462809  -0.02205860  1
  V  V55  1  0.74757258  0.00967775  0.24456303  1
  V  V56  1  0.25875809  0.38168309  0.63419648  1
  V  V57  1  0.25027325  0.72193708  0.49314047  1
  V  V58  1  0.62540489  0.86928802  0.25949613  1
  V  V59  1  0.10787148  0.88562097  0.25872354  1
  V  V60  1  0.50548856  0.37677853  0.36334507  1
  V  V61  1  0.88198408  0.89178066  -0.00855875  1
  V  V62  1  0.25276984  0.13303768  0.37409455  1
  V  V63  1  0.01773022  0.37383869  0.37922087  1
  Zn  Zn64  1  0.18710622  0.18307670  0.19119891  1
  Zn  Zn65  1  0.19572592  0.16091307  0.68275248  1
  Zn  Zn66  1  0.13756518  0.72382672  0.15862538  1
  Zn  Zn67  1  0.18090545  0.69181866  0.67703255  1
  Zn  Zn68  1  0.68246847  0.18631729  0.18319737  1
  Zn  Zn69  1  0.66762144  0.22464507  0.67764134  1
  Zn  Zn70  1  0.69483735  0.68553993  0.19709956  1
  Zn  Zn71  1  0.68327090  0.68838360  0.68600842  1
  Zn  Zn72  1  0.32472595  0.31445747  0.30971545  1
  Zn  Zn73  1  0.28985614  0.35194304  0.84547146  1
  Zn  Zn74  1  0.28093173  0.80773998  0.32065780  1
  Zn  Zn75  1  0.29855476  0.78442632  0.75306573  1
  Zn  Zn76  1  0.81944365  0.29214535  0.31271997  1
  Zn  Zn77  1  0.81690858  0.31460054  0.81043108  1
  Zn  Zn78  1  0.80933831  0.81741099  0.32137852  1
  Zn  Zn79  1  0.82705809  0.81833292  0.80528657  1
  Zn  Zn80  1  0.19669859  0.43023059  0.45296968  1
  Zn  Zn81  1  0.12906006  0.45218463  0.92870443  1
  Zn  Zn82  1  0.18650690  0.94135381  0.42655767  1
  Zn  Zn83  1  0.24533715  0.96135512  0.95572115  1
  Zn  Zn84  1  0.71062773  0.46818189  0.48794568  1
  Zn  Zn85  1  0.69999730  0.43080449  0.93111834  1
  Zn  Zn86  1  0.68225075  0.93796299  0.44661628  1
  Zn  Zn87  1  0.70998417  0.94670362  0.94151854  1
  Zn  Zn88  1  0.32176887  0.05283134  0.07522697  1
  Zn  Zn89  1  0.30050461  0.06267922  0.56173330  1
  Zn  Zn90  1  0.26575765  0.63536018  0.08732242  1
  Zn  Zn91  1  0.33194909  0.55662345  0.56269813  1
  Zn  Zn92  1  0.81160671  0.07483084  0.05922501  1
  Zn  Zn93  1  0.81272453  0.06342719  0.56781676  1
  Zn  Zn94  1  0.81505924  0.57086461  0.04856204  1
  Zn  Zn95  1  0.81982272  0.56599444  0.57378412  1
  Zn  Zn96  1  0.43891135  0.50707482  0.18871445  1
  Zn  Zn97  1  0.42926027  0.43020705  0.69600424  1
  Zn  Zn98  1  0.43602287  0.82048444  0.21474935  1
  Zn  Zn99  1  0.44621390  0.93383380  0.69468410  1
  Zn  Zn100  1  0.94573520  0.43566719  0.18325834  1
  Zn  Zn101  1  0.93429395  0.44237589  0.69141290  1
  Zn  Zn102  1  0.93223352  0.93865523  0.19446445  1
  Zn  Zn103  1  0.92911906  0.94673413  0.68432888  1
  Zn  Zn104  1  0.06267916  0.06592070  0.31690996  1
  Zn  Zn105  1  0.09857755  0.02100033  0.85618664  1
  Zn  Zn106  1  0.05962958  0.54336403  0.29573955  1
  Zn  Zn107  1  0.01860040  0.58565163  0.84750011  1
  Zn  Zn108  1  0.56413202  0.05524392  0.32705599  1
  Zn  Zn109  1  0.68483768  0.05971728  0.81203080  1
  Zn  Zn110  1  0.57335759  0.56057011  0.30924424  1
  Zn  Zn111  1  0.57102944  0.56905766  0.78752066  1
  Zn  Zn112  1  0.45071825  0.16420335  0.43351839  1
  Zn  Zn113  1  0.47037178  0.18282479  0.95674676  1
  Zn  Zn114  1  0.41504928  0.71356879  0.38631604  1
  Zn  Zn115  1  0.46870091  0.62671767  0.92882769  1
  Zn  Zn116  1  0.93633281  0.18806491  0.44315362  1
  Zn  Zn117  1  0.94734374  0.18955508  0.93786238  1
  Zn  Zn118  1  0.93651720  0.67938868  0.43610638  1
  Zn  Zn119  1  0.93066597  0.70972031  0.93401527  1
  Zn  Zn120  1  0.05343452  0.31054567  0.05966964  1
  Zn  Zn121  1  0.06878821  0.31718540  0.57179598  1
  Zn  Zn122  1  0.06017973  0.83613149  0.06382813  1
  Zn  Zn123  1  0.06274175  0.81398090  0.55184938  1
  Zn  Zn124  1  0.58259177  0.32132073  0.03500666  1
  Zn  Zn125  1  0.57080569  0.32903972  0.56221895  1
  Zn  Zn126  1  0.57882628  0.82303681  0.07188782  1
  Zn  Zn127  1  0.56493110  0.82759838  0.55317398  1
  O  O128  1  0.11204212  0.12721492  0.12286180  1
  O  O129  1  0.13967732  0.10244138  0.59809063  1
  O  O130  1  0.08052529  0.64809006  0.09201021  1
  O  O131  1  0.10519071  0.61835366  0.63111193  1
  O  O132  1  0.60255614  0.12487837  0.12976926  1
  O  O133  1  0.63737248  0.11668793  0.64367423  1
  O  O134  1  0.62115168  0.64649387  0.11974711  1
  O  O135  1  0.60117878  0.63037825  0.63306475  1
  O  O136  1  0.38989255  0.36963465  0.38714233  1
  O  O137  1  0.39635417  0.39146343  0.86950397  1
  O  O138  1  0.39032494  0.80174121  0.31685927  1
  O  O139  1  0.37673826  0.86203925  0.91742214  1
  O  O140  1  0.87994543  0.38234602  0.37738886  1
  O  O141  1  0.89334304  0.36401409  0.88047384  1
  O  O142  1  0.86028585  0.89601227  0.39252306  1
  O  O143  1  0.87030585  0.89393088  0.88492922  1
  O  O144  1  0.23933891  0.01319385  0.35381397  1
  O  O145  1  0.20806406  -0.03085984  0.84776745  1
  O  O146  1  0.26888407  0.48994234  0.39028737  1
  O  O147  1  0.20558267  0.51940878  0.81450863  1
  O  O148  1  0.75463548  0.01480181  0.38585191  1
  O  O149  1  0.76651197  0.01085729  0.87062856  1
  O  O150  1  0.75309020  0.50720885  0.38332887  1
  O  O151  1  0.75720229  0.51837059  0.87882403  1
  O  O152  1  0.19350649  0.55996578  0.15375475  1
  O  O153  1  0.26091644  0.48029056  0.61367077  1
  O  O154  1  0.25337587  0.98455926  0.14491232  1
  O  O155  1  0.24123040  0.98828624  0.63147422  1
  O  O156  1  0.71792996  0.50339856  0.08974944  1
  O  O157  1  0.74675253  0.48639967  0.59298379  1
  O  O158  1  0.75244577  1.00956989  0.14511579  1
  O  O159  1  0.73883151  0.99571572  0.61966212  1
  O  O160  1  0.01597496  0.36742719  0.26383880  1
  O  O161  1  -0.00954964  0.36594344  0.75534154  1
  O  O162  1  0.00035307  0.86871623  0.25738309  1
  O  O163  1  -0.00762878  0.86684926  0.72977202  1
  O  O164  1  0.49605320  0.36437804  0.26869480  1
  O  O165  1  0.51119465  0.39346161  0.76861510  1
  O  O166  1  0.52840703  0.88199935  0.25391282  1
  O  O167  1  0.52096751  0.87060508  0.75949256  1
  O  O168  1  0.49231916  0.10714770  0.25139091  1
  O  O169  1  0.37106933  0.14773143  0.81465498  1
  O  O170  1  0.50085097  0.60834375  0.22150227  1
  O  O171  1  0.49519212  0.64732801  0.73963235  1
  O  O172  1  1.00458402  0.13834575  0.24849170  1
  O  O173  1  1.03756180  0.16771920  0.74136918  1
  O  O174  1  0.98000078  0.64059459  0.25716487  1
  O  O175  1  0.99169044  0.63862527  0.74213318  1
  O  O176  1  0.37830811  0.25782314  0.00050693  1
  O  O177  1  0.38888083  0.24806704  0.49211218  1
  O  O178  1  0.38560147  0.80938749  -0.03421332  1
  O  O179  1  0.34656547  0.74344501  0.47827509  1
  O  O180  1  0.88145789  0.25309403  0.01405866  1
  O  O181  1  0.87057519  0.26058993  0.50451206  1
  O  O182  1  0.85981268  0.77691243  -0.00665061  1
  O  O183  1  0.88139744  0.76898614  0.49163737  1
  O  O184  1  0.12110893  0.23243879  0.50487531  1
  O  O185  1  0.13321056  0.24794993  1.00067912  1
  O  O186  1  0.12384733  0.74377050  0.48451325  1
  O  O187  1  0.10408694  0.76202591  0.98854146  1
  O  O188  1  0.64681839  0.26355267  0.49616453  1
  O  O189  1  0.58067366  0.21877417  0.98899852  1
  O  O190  1  0.62882610  0.75740330  0.48621775  1
  O  O191  1  0.64972923  0.76405604  1.00201899  1
  O  O192  1  0.39625618  0.29612479  0.06167890  1
  O  O193  1  0.51003940  0.21588672  0.61085984  1
  O  O194  1  0.50379531  0.76129594  0.13627381  1
  O  O195  1  0.49823344  0.75135397  0.60507789  1
  O  O196  1  0.99506878  0.24130354  0.13673876  1
  O  O197  1  0.98853024  0.25467456  0.61830030  1
  O  O198  1  0.99247733  0.76178309  0.14769125  1
  O  O199  1  1.00236403  0.73768966  0.61506106  1
  O  O200  1  -0.01358294  0.25987887  0.36337394  1
  O  O201  1  0.01916995  0.25283908  0.87487667  1
  O  O202  1  0.00587039  0.74866291  0.37467566  1
  O  O203  1  -0.00252298  0.77062158  0.85799056  1
  O  O204  1  0.52010539  0.24759954  0.38465285  1
  O  O205  1  0.49911242  0.22149382  0.83478886  1
  O  O206  1  0.52670309  0.73037411  0.37093109  1
  O  O207  1  0.51218634  0.73516504  0.87620664  1
  O  O208  1  0.24250336  0.11841767  0.48014853  1
  O  O209  1  0.23898175  0.13006838  1.03457215  1
  O  O210  1  0.24938417  0.62512417  0.51484026  1
  O  O211  1  0.21026466  0.63592006  0.99288391  1
  O  O212  1  0.75596749  0.14012697  0.49273399  1
  O  O213  1  0.71487761  0.11826707  1.01805281  1
  O  O214  1  0.76462226  0.62564328  0.48948563  1
  O  O215  1  0.76248961  0.64554624  0.97854940  1
  O  O216  1  0.24004790  0.41134698  -0.06075302  1
  O  O217  1  0.27321810  0.36079411  0.50568727  1
  O  O218  1  0.24017458  0.87242710  0.02921904  1
  O  O219  1  0.25490302  0.89360570  0.50250275  1
  O  O220  1  0.77891778  0.36737691  -0.01913742  1
  O  O221  1  0.76919253  0.36333401  0.48948715  1
  O  O222  1  0.75556340  0.87255965  0.01731323  1
  O  O223  1  0.75876455  0.87732763  0.50910443  1
  O  O224  1  0.14895463  0.45519540  0.27543475  1
  O  O225  1  0.17593629  0.52005877  0.74849820  1
  O  O226  1  0.11138675  0.98609421  0.25139979  1
  O  O227  1  0.10933732  1.00383152  0.72920785  1
  O  O228  1  0.63100782  0.49376778  0.23251509  1
  O  O229  1  0.63282039  0.49390434  0.72636708  1
  O  O230  1  0.64461606  0.98800127  0.27272768  1
  O  O231  1  0.63052804  0.98693167  0.73728294  1
  O  O232  1  0.36816015  -0.00644407  0.25908908  1
  O  O233  1  0.36053152  -0.02382305  0.76436426  1
  O  O234  1  0.37182063  0.47338478  0.27043126  1
  O  O235  1  0.37126873  0.52193785  0.74495374  1
  O  O236  1  0.85995582  -0.00269006  0.27041068  1
  O  O237  1  0.87589373  0.01473758  0.75530522  1
  O  O238  1  0.87898212  0.50833907  0.25582117  1
  O  O239  1  0.88308643  0.52413064  0.75118106  1
  O  O240  1  0.11412316  0.35929335  0.39562253  1
  O  O241  1  0.11466329  0.35299565  0.87095540  1
  O  O242  1  0.12748953  0.86668791  0.35957877  1
  O  O243  1  0.17267797  0.81425049  0.86787311  1
  O  O244  1  0.61518075  0.36281670  0.37688641  1
  O  O245  1  0.61562768  0.39810313  0.86166285  1
  O  O246  1  0.64271140  0.86114938  0.36939419  1
  O  O247  1  0.64564727  0.88636334  0.85965345  1
  O  O248  1  0.39395229  0.11194308  0.14324982  1
  O  O249  1  0.36318657  0.13801929  0.63898291  1
  O  O250  1  0.35976190  0.59850431  0.14288145  1
  O  O251  1  0.39748207  0.62435765  0.63340474  1
  O  O252  1  0.88880368  0.13933759  0.11877564  1
  O  O253  1  0.87998199  0.13723583  0.61848266  1
  O  O254  1  0.86373956  0.61883847  0.14180404  1
  O  O255  1  0.88910281  0.62689703  0.63510581  1
  O  O256  1  0.25169162  0.27866990  0.16441012  1
  O  O257  1  0.27172138  0.23759255  0.63920066  1
  O  O258  1  0.24616112  0.74691729  0.13488450  1
  O  O259  1  0.23689794  0.76754760  0.59632493  1
  O  O260  1  0.77101339  0.24236547  0.13671998  1
  O  O261  1  0.76213812  0.24875769  0.60969371  1
  O  O262  1  0.76134382  0.75899791  0.12723191  1
  O  O263  1  0.74679359  0.75970456  0.61831172  1
  O  O264  1  0.25293164  0.23208554  0.35977609  1
  O  O265  1  0.22642661  0.25469597  0.85934709  1
  O  O266  1  0.22431808  0.73378241  0.38270853  1
  O  O267  1  0.23710590  0.78093920  0.87099312  1
  O  O268  1  0.74805039  0.23953171  0.38258868  1
  O  O269  1  0.73965954  0.21667640  0.84106561  1
  O  O270  1  0.74905174  0.73877172  0.37908798  1
  O  O271  1  0.74998834  0.75870868  0.87671321  1
  O  O272  1  0.01275706  0.12527901  0.01560902  1
  O  O273  1  0.01349761  0.11568555  0.48884526  1
  O  O274  1  0.00316920  0.62644054  -0.04088803  1
  O  O275  1  -0.00740161  0.60896509  0.51045045  1
  O  O276  1  0.49873858  0.09556179  0.02470196  1
  O  O277  1  0.49550590  0.15784585  0.56682796  1
  O  O278  1  0.47960046  0.62741504  0.04020238  1
  O  O279  1  0.49728739  0.60660985  0.51333364  1
  O  O280  1  0.49277392  0.37436830  0.49556932  1
  O  O281  1  0.51391457  0.37776845  0.96720966  1
  O  O282  1  0.49956819  0.89673690  0.48652657  1
  O  O283  1  0.51972790  0.89097411  0.99285232  1
  O  O284  1  0.99220804  0.37609475  0.49356997  1
  O  O285  1  0.99079330  0.36977259  0.98584419  1
  O  O286  1  0.98413505  0.89053811  0.50148102  1
  O  O287  1  0.98008442  0.88857960  1.00941062  1
  O  O288  1  0.50059248  0.48495993  0.37490689  1
  O  O289  1  0.50559858  0.52542393  0.87829307  1
  O  O290  1  0.50597771  1.05936487  0.42604799  1
  O  O291  1  0.54578125  0.95902977  0.96936995  1
  O  O292  1  1.00717888  0.47964296  0.38389914  1
  O  O293  1  1.02855993  0.47247150  0.86461991  1
  O  O294  1  0.98280650  1.00650017  0.38021536  1
  O  O295  1  0.98745597  1.00587200  0.86937219  1
  O  O296  1  -0.01110871  0.01974319  0.13847809  1
  O  O297  1  0.00652898  0.00473120  0.60837475  1
  O  O298  1  0.02984293  0.51372876  0.18299668  1
  O  O299  1  0.00039677  0.49821986  0.61293267  1
  O  O300  1  0.51056477  -0.01422550  0.13632694  1
  O  O301  1  0.51923635  -0.00661185  0.62376791  1
  O  O302  1  0.51907405  0.47521960  0.11677733  1
  O  O303  1  0.49820826  0.48588940  0.61514635  1
  O  O304  1  0.24416442  0.33766313  0.22206239  1
  O  O305  1  0.27884779  0.37620366  0.73398599  1
  O  O306  1  0.23602363  0.88399496  0.25013981  1
  O  O307  1  0.24290799  0.87505940  0.71781185  1
  O  O308  1  0.76674194  0.38963665  0.26847979  1
  O  O309  1  0.72956609  0.36900209  0.76425198  1
  O  O310  1  0.75651633  0.88644851  0.24312859  1
  O  O311  1  0.74530210  0.86810306  0.73385938  1
  O  O312  1  0.26538981  0.11404720  0.24856794  1
  O  O313  1  0.24668929  0.08624128  0.74895559  1
  O  O314  1  0.32685010  0.62040775  0.22524361  1
  O  O315  1  0.27875581  0.66882341  0.73384130  1
  O  O316  1  0.74590468  0.11378787  0.26640533  1
  O  O317  1  0.71480345  0.17492917  0.77929526  1
  O  O318  1  0.76498731  0.62504685  0.26223749  1
  O  O319  1  0.76250603  0.63589181  0.75171401  1
  O  O320  1  0.36367219  0.12279471  0.36141277  1
  O  O321  1  0.37163697  0.13546790  0.88713427  1
  O  O322  1  0.38711273  0.60121708  0.37451920  1
  O  O323  1  0.38267425  0.63615086  0.85277677  1
  O  O324  1  0.86362679  0.11590878  0.38069293  1
  O  O325  1  0.87871484  0.12011851  0.88227069  1
  O  O326  1  0.86421162  0.62259463  0.36688893  1
  O  O327  1  0.86620083  0.63930494  0.85729442  1
  O  O328  1  0.11463898  0.38292571  0.13118854  1
  O  O329  1  0.16105827  0.35295746  0.62269537  1
  O  O330  1  0.13115904  0.85539505  0.15150000  1
  O  O331  1  0.12559477  0.89332553  0.60743593  1
  O  O332  1  0.63069973  0.35767017  0.12814062  1
  O  O333  1  0.61304774  0.32477863  0.66683703  1
  O  O334  1  0.65021587  0.87566222  0.14635952  1
  O  O335  1  0.64092775  0.88073142  0.62613409  1
  O  O336  1  0.11040837  0.25731927  0.24804802  1
  O  O337  1  0.10127268  0.20588430  0.74668223  1
  O  O338  1  0.10198834  0.75017656  0.26537724  1
  O  O339  1  0.10535193  0.75316657  0.73729374  1
  O  O340  1  0.63482422  0.24733543  0.26838274  1
  O  O341  1  0.57007215  0.22709463  0.81499053  1
  O  O342  1  0.63920432  0.76370804  0.26202921  1
  O  O343  1  0.61635968  0.76521921  0.74721288  1
  O  O344  1  0.38839687  0.23400266  0.25007482  1
  O  O345  1  0.34869530  0.21050047  0.66011030  1
  O  O346  1  0.34212796  0.69099787  0.24284562  1
  O  O347  1  0.40859447  0.76875752  0.75613243  1
  O  O348  1  0.89349684  0.25977160  0.23549086  1
  O  O349  1  0.87050263  0.25362050  0.73024559  1
  O  O350  1  0.87809427  0.74463875  0.25999220  1
  O  O351  1  0.89002312  0.74436442  0.74380767  1
  O  O352  1  0.39240133  0.48432528  0.48913657  1
  O  O353  1  0.29356916  0.44252042  1.00305350  1
  O  O354  1  0.39902188  1.02127632  0.52882275  1
  O  O355  1  0.34590738  1.00527997  0.97782773  1
  O  O356  1  0.88882190  0.48395246  0.50086270  1
  O  O357  1  0.88004235  0.48684824  1.00839889  1
  O  O358  1  0.88529142  1.00322383  0.49413583  1
  O  O359  1  0.86254490  0.99465936  0.99743990  1
  O  O360  1  0.14058629  0.01201206  -0.00476981  1
  O  O361  1  0.10615775  0.00038710  0.48975748  1
  O  O362  1  0.10540671  0.50857683  0.02058238  1
  O  O363  1  0.11174113  0.49084242  0.50135699  1
  O  O364  1  0.61699140  -0.01343603  0.00978300  1
  O  O365  1  0.61812154  0.00403668  0.51813323  1
  O  O366  1  0.65706359  0.49579780  0.03119968  1
  O  O367  1  0.60243137  0.48570166  0.49318728  1
  O  O368  1  0.28561015  0.40799655  0.06755846  1
  O  O369  1  0.37762662  0.36389227  0.61203921  1
  O  O370  1  0.35646030  0.85872155  0.14020621  1
  O  O371  1  0.36622279  0.87911830  0.61946284  1
  O  O372  1  0.88887158  0.36591421  0.11252194  1
  O  O373  1  0.87884498  0.36947796  0.61361917  1
  O  O374  1  0.86153024  0.88799912  0.11990055  1
  O  O375  1  0.85978113  0.88488313  0.61083323  1
  O  O376  1  0.13586083  0.12634651  0.38102857  1
  O  O377  1  0.12663009  0.13285635  0.90201622  1
  O  O378  1  0.10757848  0.62347037  0.36614629  1
  O  O379  1  0.12190333  0.64168201  0.86931079  1
  O  O380  1  0.64051564  0.13580463  0.38007043  1
  O  O381  1  0.60972379  0.09389821  0.89754712  1
  O  O382  1  0.64629964  0.63201326  0.36903305  1
  O  O383  1  0.64753273  0.62690344  0.85552353  1
