# generated using pymatgen
data_VZnO4
_symmetry_space_group_name_H-M   'P 1'
_cell_length_a   16.95092175
_cell_length_b   16.96484029
_cell_length_c   16.90992410
_cell_angle_alpha   90.14740081
_cell_angle_beta   90.23688436
_cell_angle_gamma   89.71780430
_symmetry_Int_Tables_number   1
_chemical_formula_structural   VZnO4
_chemical_formula_sum   'V64 Zn64 O256'
_cell_volume   4862.66508824
_cell_formula_units_Z   64
loop_
 _symmetry_equiv_pos_site_id
 _symmetry_equiv_pos_as_xyz
  1  'x, y, z'
loop_
 _atom_site_type_symbol
 _atom_site_label
 _atom_site_symmetry_multiplicity
 _atom_site_fract_x
 _atom_site_fract_y
 _atom_site_fract_z
 _atom_site_occupancy
  V  V0  1  -0.01572798  0.01703619  -0.00420214  1
  V  V1  1  0.87090012  0.02300809  0.37254892  1
  V  V2  1  0.11067120  0.00054850  0.13543607  1
  V  V3  1  -0.00150121  0.49933232  -0.02010555  1
  V  V4  1  0.11278370  0.24434122  0.38521126  1
  V  V5  1  0.37418645  -0.00863732  0.38470495  1
  V  V6  1  0.25139272  0.48622655  0.25433672  1
  V  V7  1  0.61784125  0.37175683  0.74387856  1
  V  V8  1  0.22267761  -0.02516118  0.76173148  1
  V  V9  1  0.12577019  0.40295600  0.75111743  1
  V  V10  1  0.50699373  -0.00516757  0.50308354  1
  V  V11  1  0.75553088  0.75434710  0.00567744  1
  V  V12  1  0.14851044  0.13182297  0.00955188  1
  V  V13  1  0.39232444  0.49403766  0.37520499  1
  V  V14  1  0.75876791  0.50086232  0.75525106  1
  V  V15  1  0.00048346  0.39053479  0.37965717  1
  V  V16  1  0.75723739  0.41442418  0.12524053  1
  V  V17  1  0.46178636  0.61214040  0.62783355  1
  V  V18  1  0.11488238  0.48582112  0.13041670  1
  V  V19  1  0.87175584  0.37320243  -0.01102564  1
  V  V20  1  0.74669650  0.88291919  0.62277738  1
  V  V21  1  0.24481544  0.38254644  0.62480205  1
  V  V22  1  0.61536864  0.84742167  0.26851620  1
  V  V23  1  0.87755234  0.74630236  0.63956172  1
  V  V24  1  0.00880811  0.63176746  0.12208858  1
  V  V25  1  0.39007800  0.75380298  0.14584662  1
  V  V26  1  0.24188852  0.12789538  0.39377613  1
  V  V27  1  0.39785884  0.24330151  0.12124111  1
  V  V28  1  0.62170143  0.13406046  0.47627660  1
  V  V29  1  0.47949903  0.75455067  0.75231676  1
  V  V30  1  0.24092953  0.62605376  0.37505644  1
  V  V31  1  0.85461210  0.50746294  0.38395997  1
  V  V32  1  0.50868209  0.13702135  0.63355103  1
  V  V33  1  0.25307117  -0.00202965  0.24968209  1
  V  V34  1  0.37827018  0.36207767  0.49008275  1
  V  V35  1  0.76635254  0.62532973  0.87033732  1
  V  V36  1  0.60414014  -0.01776013  0.12371600  1
  V  V37  1  0.37415931  0.90011148  0.02141280  1
  V  V38  1  0.87102588  0.86207385  0.48577349  1
  V  V39  1  0.74824396  0.01256506  0.25191389  1
  V  V40  1  0.62257900  0.61826601  0.00708931  1
  V  V41  1  0.50881526  0.36137775  0.88922406  1
  V  V42  1  0.37429573  0.24691692  0.64440546  1
  V  V43  1  0.12973680  0.23656506  0.86187124  1
  V  V44  1  0.01932306  0.76174965  0.75604237  1
  V  V45  1  0.75977290  0.86170603  0.13906123  1
  V  V46  1  0.36278157  0.78525831  0.58824137  1
  V  V47  1  0.88373325  0.87003939  -0.01039280  1
  V  V48  1  -0.01133320  0.23881359  0.24169969  1
  V  V49  1  0.62890654  0.14851854  -0.01388758  1
  V  V50  1  0.01807648  0.75356281  0.25906858  1
  V  V51  1  0.12834686  0.76086599  0.90940896  1
  V  V52  1  -0.00399967  0.00775456  0.50172678  1
  V  V53  1  0.74774035  0.25050178  0.47827766  1
  V  V54  1  0.63023612  0.51781538  0.60239203  1
  V  V55  1  0.87027800  0.62033302  0.24652639  1
  V  V56  1  0.63459817  0.36030514  0.24416763  1
  V  V57  1  0.63252443  0.75943234  0.85959255  1
  V  V58  1  0.25090531  0.35756425  0.11561532  1
  V  V59  1  0.75317274  0.37613486  0.60492518  1
  V  V60  1  0.43789157  -0.00086533  0.86145530  1
  V  V61  1  0.25895779  0.64517526  0.86500560  1
  V  V62  1  0.76875942  -0.00237298  0.75978508  1
  V  V63  1  0.87824502  0.24112618  0.62645655  1
  Zn  Zn64  1  0.17704903  0.18114172  0.20259892  1
  Zn  Zn65  1  0.20590700  0.18380529  0.69062680  1
  Zn  Zn66  1  0.19205496  0.67304197  0.19019209  1
  Zn  Zn67  1  0.22854832  0.75737055  0.72271274  1
  Zn  Zn68  1  0.65943418  0.18072292  0.16759976  1
  Zn  Zn69  1  0.68721632  0.19238500  0.67223650  1
  Zn  Zn70  1  0.65814116  0.64288139  0.22176642  1
  Zn  Zn71  1  0.70580375  0.69055965  0.68017233  1
  Zn  Zn72  1  0.30093791  0.29591231  0.30440986  1
  Zn  Zn73  1  0.30209044  0.31412547  0.81586516  1
  Zn  Zn74  1  0.29962787  0.81796350  0.31450063  1
  Zn  Zn75  1  0.31599205  0.83971952  0.85275247  1
  Zn  Zn76  1  0.81972512  0.32851701  0.30621978  1
  Zn  Zn77  1  0.80222287  0.31054469  0.80763836  1
  Zn  Zn78  1  0.86373622  0.82596005  0.28686856  1
  Zn  Zn79  1  0.81370557  0.81799575  0.81113344  1
  Zn  Zn80  1  0.20279353  0.40646871  0.42594952  1
  Zn  Zn81  1  0.17710599  0.43306828  0.94005972  1
  Zn  Zn82  1  0.18659824  0.94633846  0.44401114  1
  Zn  Zn83  1  0.18366530  0.94249745  0.96098370  1
  Zn  Zn84  1  0.63555032  0.50132403  0.38153536  1
  Zn  Zn85  1  0.68758493  0.43808373  0.93537444  1
  Zn  Zn86  1  0.69187822  0.93864712  0.43691634  1
  Zn  Zn87  1  0.64397656  0.96630047  0.91973629  1
  Zn  Zn88  1  0.32026606  0.07530003  0.08496823  1
  Zn  Zn89  1  0.32041198  0.06448904  0.56867641  1
  Zn  Zn90  1  0.31095049  0.54792280  0.06655095  1
  Zn  Zn91  1  0.30308947  0.55093651  0.55208088  1
  Zn  Zn92  1  0.78065017  0.03153640  0.04151520  1
  Zn  Zn93  1  0.80788502  0.06601498  0.56018784  1
  Zn  Zn94  1  0.82602583  0.56894975  0.05602748  1
  Zn  Zn95  1  0.84093960  0.54480221  0.58353339  1
  Zn  Zn96  1  0.42543618  0.38151609  0.22158815  1
  Zn  Zn97  1  0.46150083  0.42098447  0.64015538  1
  Zn  Zn98  1  0.43323961  0.92058507  0.21206037  1
  Zn  Zn99  1  0.44743601  0.93903985  0.67663997  1
  Zn  Zn100  1  0.93573773  0.42903467  0.20057056  1
  Zn  Zn101  1  0.92024256  0.39151944  0.71581691  1
  Zn  Zn102  1  0.93564932  0.94316624  0.18613249  1
  Zn  Zn103  1  0.92955507  0.94063251  0.69384950  1
  Zn  Zn104  1  0.05561961  0.06843842  0.31664213  1
  Zn  Zn105  1  0.09058192  0.03444941  0.84190387  1
  Zn  Zn106  1  0.06832500  0.56300326  0.30619595  1
  Zn  Zn107  1  0.07340613  0.58821133  0.80926800  1
  Zn  Zn108  1  0.57030788  0.03497662  0.31795822  1
  Zn  Zn109  1  0.58489408  0.10634109  0.81964868  1
  Zn  Zn110  1  0.53282277  0.51879902  0.22750706  1
  Zn  Zn111  1  0.58642607  0.58520369  0.79082134  1
  Zn  Zn112  1  0.41756803  0.16553389  0.45136516  1
  Zn  Zn113  1  0.44073113  0.17973737  0.94571033  1
  Zn  Zn114  1  0.40385165  0.67262539  0.44240244  1
  Zn  Zn115  1  0.44845656  0.69399567  0.93405461  1
  Zn  Zn116  1  0.93353650  0.19251637  0.44374446  1
  Zn  Zn117  1  0.95261777  0.21101504  0.94065501  1
  Zn  Zn118  1  0.93743383  0.69210281  0.42294219  1
  Zn  Zn119  1  0.94807093  0.68920435  0.93629272  1
  Zn  Zn120  1  0.05474779  0.31356377  0.06016418  1
  Zn  Zn121  1  0.05950527  0.31551462  0.56054259  1
  Zn  Zn122  1  0.06582277  0.82042637  0.07563217  1
  Zn  Zn123  1  0.02437258  0.85917522  0.58966471  1
  Zn  Zn124  1  0.57887234  0.31408259  0.07170777  1
  Zn  Zn125  1  0.56502605  0.31217159  0.55449974  1
  Zn  Zn126  1  0.57189530  0.79085965  0.07875750  1
  Zn  Zn127  1  0.55110942  0.81865653  0.59556128  1
  O  O128  1  0.13131153  0.11205660  0.11745790  1
  O  O129  1  0.11327010  0.12546592  0.61666222  1
  O  O130  1  0.11498398  0.60609760  0.12411508  1
  O  O131  1  0.07232482  0.65664385  0.54335007  1
  O  O132  1  0.62489449  0.08285783  0.12236076  1
  O  O133  1  0.61040055  0.13898728  0.60621044  1
  O  O134  1  0.63300753  0.63246651  0.10741140  1
  O  O135  1  0.64421069  0.61653452  0.61791720  1
  O  O136  1  0.37020843  0.36934311  0.38567137  1
  O  O137  1  0.39087829  0.38559148  0.86806827  1
  O  O138  1  0.36168802  0.89314382  0.38409749  1
  O  O139  1  0.39362177  0.91053080  0.90504600  1
  O  O140  1  0.88366295  0.40070906  0.37262773  1
  O  O141  1  0.85602601  0.37189749  0.88813490  1
  O  O142  1  0.85510707  0.87793873  0.38494970  1
  O  O143  1  0.87512609  0.87300781  0.89102655  1
  O  O144  1  0.25667582  0.00766869  0.38359900  1
  O  O145  1  0.22801809  -0.00372915  0.86161871  1
  O  O146  1  0.24497049  0.49186891  0.36309031  1
  O  O147  1  0.24575495  0.53087883  0.90431767  1
  O  O148  1  0.75474127  0.00390805  0.35972165  1
  O  O149  1  0.74434855  -0.01736115  0.85600104  1
  O  O150  1  0.75632401  0.50943142  0.38014936  1
  O  O151  1  0.75150717  0.51147981  0.86304417  1
  O  O152  1  0.24374702  0.48612350  0.13430897  1
  O  O153  1  0.24197807  0.48141402  0.61798799  1
  O  O154  1  0.24557619  1.00565653  0.14710543  1
  O  O155  1  0.25849855  1.02257627  0.65925358  1
  O  O156  1  0.75230467  0.51323651  0.12661393  1
  O  O157  1  0.74464244  0.49282214  0.62448445  1
  O  O158  1  0.74104365  0.97495098  0.13692543  1
  O  O159  1  0.76305639  0.98922758  0.63309915  1
  O  O160  1  -0.00401152  0.36081796  0.27193825  1
  O  O161  1  0.02866217  0.38315295  0.72999348  1
  O  O162  1  -0.01895731  0.85184567  0.24307693  1
  O  O163  1  -0.01870224  0.85961364  0.75622588  1
  O  O164  1  0.53634739  0.40322292  0.21708353  1
  O  O165  1  0.51671351  0.38382468  0.73695578  1
  O  O166  1  0.51567502  0.86266858  0.26872794  1
  O  O167  1  0.51385659  0.84332206  0.70852662  1
  O  O168  1  0.50177271  0.12971296  0.25206461  1
  O  O169  1  0.51377683  0.12962353  0.73217941  1
  O  O170  1  0.45000051  0.53776682  0.14429177  1
  O  O171  1  0.50706148  0.64686843  0.73193056  1
  O  O172  1  0.99387400  0.13637142  0.24888890  1
  O  O173  1  1.05585874  0.11086370  0.65916273  1
  O  O174  1  1.00768514  0.63296969  0.23732862  1
  O  O175  1  1.00465774  0.65794133  0.75210373  1
  O  O176  1  0.37922024  0.23849464  0.01982234  1
  O  O177  1  0.38079672  0.25972989  0.50025114  1
  O  O178  1  0.41138807  0.78078275  0.01164344  1
  O  O179  1  0.37139705  0.77003278  0.48847464  1
  O  O180  1  0.88305955  0.27410486  0.00630530  1
  O  O181  1  0.85096126  0.24415005  0.50834107  1
  O  O182  1  0.86705231  0.75659887  -0.00543167  1
  O  O183  1  0.87926923  0.75939181  0.49436779  1
  O  O184  1  0.11749639  0.24675150  0.48674810  1
  O  O185  1  0.12213958  0.23098154  1.01108040  1
  O  O186  1  0.13395235  0.78212702  0.46276087  1
  O  O187  1  0.12451498  0.74733895  1.00803934  1
  O  O188  1  0.63138832  0.24518776  0.48901790  1
  O  O189  1  0.65599131  0.22550092  1.05351619  1
  O  O190  1  0.57816251  0.73535995  0.51387093  1
  O  O191  1  0.64405535  0.74518812  0.98941464  1
  O  O192  1  0.49837511  0.25402499  0.12570562  1
  O  O193  1  0.49031567  0.24601931  0.62249449  1
  O  O194  1  0.48892622  0.73501030  0.13931729  1
  O  O195  1  0.44812450  0.73142777  0.63377970  1
  O  O196  1  1.00054542  0.25956985  0.14297907  1
  O  O197  1  0.97535834  0.25351535  0.60574690  1
  O  O198  1  1.00530112  0.73264520  0.12152204  1
  O  O199  1  0.98815853  0.76192453  0.63623464  1
  O  O200  1  0.00355099  0.24869630  0.37484238  1
  O  O201  1  0.03093678  0.26279638  0.88317264  1
  O  O202  1  0.01726234  0.74336224  0.35976587  1
  O  O203  1  0.02122295  0.75080597  0.87404703  1
  O  O204  1  0.47806013  0.18549498  0.29287012  1
  O  O205  1  0.48628241  0.26548263  0.87577999  1
  O  O206  1  0.55093020  0.75914447  0.44168811  1
  O  O207  1  0.51954102  0.74831708  0.85457159  1
  O  O208  1  0.24648522  0.11698191  0.49497707  1
  O  O209  1  0.24649721  0.11862333  1.00589959  1
  O  O210  1  0.26501597  0.62243168  0.47635845  1
  O  O211  1  0.24469884  0.58041367  0.97266794  1
  O  O212  1  0.73139637  0.13791382  0.49884679  1
  O  O213  1  0.69733392  0.06766519  0.97735898  1
  O  O214  1  0.71803241  0.68260341  0.46472209  1
  O  O215  1  0.75340798  0.63472541  0.98772202  1
  O  O216  1  0.24129828  0.37538038  0.01592994  1
  O  O217  1  0.26414264  0.36801983  0.51273667  1
  O  O218  1  0.27569676  0.88981436  0.00356160  1
  O  O219  1  0.20034071  0.89125725  0.55368130  1
  O  O220  1  0.76135588  0.39121492  0.01270026  1
  O  O221  1  0.73784264  0.36267818  0.50471029  1
  O  O222  1  0.76100341  0.86147182  0.00804314  1
  O  O223  1  0.76210979  0.88559474  0.51100045  1
  O  O224  1  0.13594572  0.49412037  0.23710229  1
  O  O225  1  0.13019008  0.50208866  0.75526757  1
  O  O226  1  0.11496122  1.00210248  0.23848248  1
  O  O227  1  0.12263915  0.98154494  0.74630808  1
  O  O228  1  0.60914274  0.56653727  0.28895848  1
  O  O229  1  0.64116394  0.49813004  0.73693472  1
  O  O230  1  0.64083112  0.97597416  0.25007226  1
  O  O231  1  0.66499480  1.05516340  0.74427737  1
  O  O232  1  0.36142575  -0.00411935  0.26732002  1
  O  O233  1  0.40552548  -0.00876125  0.76618765  1
  O  O234  1  0.36398533  0.47458975  0.26592827  1
  O  O235  1  0.40063893  0.46967870  0.85337343  1
  O  O236  1  0.85922120  -0.00313569  0.25747753  1
  O  O237  1  0.86864186  0.01321206  0.75693984  1
  O  O238  1  0.88274818  0.51291553  0.26400447  1
  O  O239  1  0.85753534  0.48814701  0.73762792  1
  O  O240  1  0.11521747  0.35769117  0.37684476  1
  O  O241  1  0.13546125  0.37326940  0.85148876  1
  O  O242  1  0.15695947  0.83099535  0.41252539  1
  O  O243  1  0.12892888  0.86255497  0.89958147  1
  O  O244  1  0.63589626  0.39044409  0.34022758  1
  O  O245  1  0.61444761  0.38344952  0.85792222  1
  O  O246  1  0.64392815  0.86681384  0.36503574  1
  O  O247  1  0.63712936  0.85631133  0.87664475  1
  O  O248  1  0.37302420  0.14851027  0.14995109  1
  O  O249  1  0.39133839  0.14134731  0.61822443  1
  O  O250  1  0.34226062  0.65724110  0.10753379  1
  O  O251  1  0.37197855  0.57586780  0.64571314  1
  O  O252  1  0.84507802  0.13725012  0.10254480  1
  O  O253  1  0.86015724  0.14299659  0.63185842  1
  O  O254  1  0.89809478  0.61114757  0.13754772  1
  O  O255  1  0.86754941  0.64847981  0.61410764  1
  O  O256  1  0.23674606  0.25932445  0.13700141  1
  O  O257  1  0.27014232  0.24626293  0.62350758  1
  O  O258  1  0.27831448  0.71569225  0.11350995  1
  O  O259  1  0.27768777  0.74474299  0.62224543  1
  O  O260  1  0.81185147  0.19550445  0.13220489  1
  O  O261  1  0.75463600  0.26746614  0.61966290  1
  O  O262  1  0.75090793  0.75360156  0.10967552  1
  O  O263  1  0.76587055  0.76899817  0.62667195  1
  O  O264  1  0.23489315  0.23511646  0.37327490  1
  O  O265  1  0.23037482  0.25785980  0.88160977  1
  O  O266  1  0.25664764  0.72253033  0.35341410  1
  O  O267  1  0.24230516  0.75539426  0.88548025  1
  O  O268  1  0.75726917  0.26023746  0.38162775  1
  O  O269  1  0.79083513  0.20109148  0.86399915  1
  O  O270  1  0.71340120  0.71094349  0.39830053  1
  O  O271  1  0.75005318  0.74125831  0.87735940  1
  O  O272  1  -0.02615487  0.11619822  0.00168318  1
  O  O273  1  -0.01785376  0.10722725  0.50554089  1
  O  O274  1  -0.00755554  0.61004168  0.01384715  1
  O  O275  1  0.02184592  0.62650163  0.49965510  1
  O  O276  1  0.53182330  0.12557397  -0.00400100  1
  O  O277  1  0.51221010  0.12680344  0.49893939  1
  O  O278  1  0.52420166  0.63682252  -0.00807598  1
  O  O279  1  0.46501150  0.62096188  0.52839082  1
  O  O280  1  0.47863727  0.38184059  0.52304305  1
  O  O281  1  0.52381547  0.37073393  0.98674992  1
  O  O282  1  0.51247220  0.89719019  0.51419366  1
  O  O283  1  0.47700068  0.83696647  1.01221525  1
  O  O284  1  0.99829986  0.37288021  0.48055405  1
  O  O285  1  0.98683965  0.38910397  0.99811516  1
  O  O286  1  0.97392582  0.88645602  0.48653385  1
  O  O287  1  0.98379536  0.87647432  1.01179857  1
  O  O288  1  0.48958563  0.48845996  0.36914242  1
  O  O289  1  0.47840418  0.48157964  0.86567887  1
  O  O290  1  0.48428577  1.00405294  0.38503976  1
  O  O291  1  0.54287797  1.00526104  0.86316295  1
  O  O292  1  1.01456403  0.49009252  0.37430482  1
  O  O293  1  1.01140542  0.51443168  0.88332603  1
  O  O294  1  0.97521269  1.00510782  0.37504305  1
  O  O295  1  0.99801042  1.00102268  0.89733333  1
  O  O296  1  0.00497768  0.00139950  0.11727101  1
  O  O297  1  -0.00104484  -0.02463444  0.60557494  1
  O  O298  1  0.01136578  0.49665622  0.13518376  1
  O  O299  1  -0.00680103  0.52704760  0.63099166  1
  O  O300  1  0.51002023  -0.01639413  0.15705415  1
  O  O301  1  0.49625236  0.02218738  0.60849053  1
  O  O302  1  0.47206399  0.50811525  0.07099732  1
  O  O303  1  0.52222021  0.51817871  0.63303135  1
  O  O304  1  0.24484563  0.38027586  0.24023527  1
  O  O305  1  0.24166156  0.37370445  0.73455379  1
  O  O306  1  0.23154549  0.90071634  0.27278537  1
  O  O307  1  0.25597783  0.87545082  0.75597806  1
  O  O308  1  0.74733666  0.38126140  0.23209989  1
  O  O309  1  0.73887394  0.38826840  0.74539853  1
  O  O310  1  0.75943637  0.85930045  0.24144858  1
  O  O311  1  0.76275476  0.88851609  0.73579520  1
  O  O312  1  0.23307961  0.10314733  0.27359584  1
  O  O313  1  0.25900011  0.08060656  0.72410734  1
  O  O314  1  0.25181160  0.59625055  0.25550212  1
  O  O315  1  0.25789490  0.64660351  0.76501680  1
  O  O316  1  0.73583948  0.10806646  0.23705420  1
  O  O317  1  0.73188011  0.10893374  0.74328912  1
  O  O318  1  0.77340846  0.63368986  0.23892200  1
  O  O319  1  0.75247834  0.61326522  0.75876694  1
  O  O320  1  0.35202183  0.11582731  0.37602355  1
  O  O321  1  0.40027084  0.08583403  0.89423011  1
  O  O322  1  0.37000305  0.59632629  0.36577060  1
  O  O323  1  0.35816551  0.64810453  0.89113939  1
  O  O324  1  0.86535679  0.12063635  0.37557624  1
  O  O325  1  0.85570087  0.16216163  0.86930116  1
  O  O326  1  0.88341463  0.61487505  0.36205068  1
  O  O327  1  0.86463987  0.63130193  0.87696036  1
  O  O328  1  0.12955809  0.38271728  0.12316691  1
  O  O329  1  0.14083083  0.36126233  0.62866773  1
  O  O330  1  0.13318342  0.90462703  0.10829168  1
  O  O331  1  0.14851659  0.83810046  0.57081503  1
  O  O332  1  0.65337144  0.38134160  0.12643052  1
  O  O333  1  0.63342412  0.38893973  0.62620343  1
  O  O334  1  0.63620651  0.86408897  0.14800860  1
  O  O335  1  0.64798165  0.87481609  0.61892792  1
  O  O336  1  0.10673518  0.24094484  0.27001221  1
  O  O337  1  0.12879856  0.22381522  0.76042964  1
  O  O338  1  0.11694285  0.75048415  0.23179549  1
  O  O339  1  0.11861399  0.77293518  0.74457284  1
  O  O340  1  0.63085672  0.25958130  0.24300241  1
  O  O341  1  0.63445145  0.27302440  0.73888075  1
  O  O342  1  0.63144502  0.74932309  0.25657825  1
  O  O343  1  0.64116589  0.74717590  0.75874410  1
  O  O344  1  0.38916070  0.27521252  0.23997817  1
  O  O345  1  0.37357399  0.25181816  0.74391372  1
  O  O346  1  0.37270899  0.76115702  0.24409340  1
  O  O347  1  0.38617301  0.77211011  0.77873468  1
  O  O348  1  0.88705986  0.25203477  0.25946104  1
  O  O349  1  0.87715024  0.27979121  0.72693231  1
  O  O350  1  0.89986357  0.72560190  0.25338375  1
  O  O351  1  0.87216539  0.74656462  0.74121924  1
  O  O352  1  0.36842292  0.48169339  0.48104556  1
  O  O353  1  0.41315845  0.50864652  1.01966357  1
  O  O354  1  0.38950648  1.01010102  0.49305418  1
  O  O355  1  0.39189551  0.99564609  1.04239560  1
  O  O356  1  0.87850921  0.51794824  0.48306577  1
  O  O357  1  0.89036661  0.49492283  0.99515740  1
  O  O358  1  0.87016217  1.00018962  0.48313633  1
  O  O359  1  0.87885495  0.98510325  1.00872821  1
  O  O360  1  0.10712063  0.02116422  0.00686509  1
  O  O361  1  0.09284429  -0.00420498  0.47725745  1
  O  O362  1  0.10444835  0.49063745  0.01346075  1
  O  O363  1  0.04698880  0.50095837  0.58995294  1
  O  O364  1  0.59982436  -0.04931133  0.02739320  1
  O  O365  1  0.61416621  0.01631330  0.48650979  1
  O  O366  1  0.63195419  0.51912833  -0.00876149  1
  O  O367  1  0.62785280  0.50675486  0.50338415  1
  O  O368  1  0.35743538  0.35879073  0.12186022  1
  O  O369  1  0.36391830  0.36239923  0.62351517  1
  O  O370  1  0.37488552  0.86256636  0.12905790  1
  O  O371  1  0.37088964  0.88301259  0.61181961  1
  O  O372  1  0.86074538  0.38867093  0.12038681  1
  O  O373  1  0.85511126  0.38241738  0.61215588  1
  O  O374  1  0.86087823  0.87303297  0.12120331  1
  O  O375  1  0.87108309  0.86364577  0.61012402  1
  O  O376  1  0.12932006  0.12945406  0.38346619  1
  O  O377  1  0.12344402  0.13066405  0.89573613  1
  O  O378  1  0.14068584  0.61655648  0.37523483  1
  O  O379  1  0.14354091  0.65249880  0.87508757  1
  O  O380  1  0.61637576  0.12650144  0.37698034  1
  O  O381  1  0.63132111  0.18289177  0.88935090  1
  O  O382  1  0.51869681  0.70478046  0.39773568  1
  O  O383  1  0.64226216  0.63728947  0.87934835  1
