# generated using pymatgen
data_VZnO4
_symmetry_space_group_name_H-M   'P 1'
_cell_length_a   16.91494119
_cell_length_b   16.88636583
_cell_length_c   16.89529688
_cell_angle_alpha   89.98352763
_cell_angle_beta   89.99636526
_cell_angle_gamma   89.82693968
_symmetry_Int_Tables_number   1
_chemical_formula_structural   VZnO4
_chemical_formula_sum   'V64 Zn64 O256'
_cell_volume   4825.81327173
_cell_formula_units_Z   64
loop_
 _symmetry_equiv_pos_site_id
 _symmetry_equiv_pos_as_xyz
  1  'x, y, z'
loop_
 _atom_site_type_symbol
 _atom_site_label
 _atom_site_symmetry_multiplicity
 _atom_site_fract_x
 _atom_site_fract_y
 _atom_site_fract_z
 _atom_site_occupancy
  V  V0  1  0.26442179  0.12453896  0.87169363  1
  V  V1  1  0.74209952  0.64034829  0.87274116  1
  V  V2  1  0.41173723  0.87953701  0.01592333  1
  V  V3  1  0.00119441  0.63085865  0.61710648  1
  V  V4  1  0.61526913  0.25558636  0.37243195  1
  V  V5  1  0.10033814  0.36253297  0.24518796  1
  V  V6  1  0.12374304  0.74998417  0.87662400  1
  V  V7  1  0.60488497  0.26145369  0.87765886  1
  V  V8  1  0.60648920  0.37348171  0.74379638  1
  V  V9  1  0.25322313  0.24818580  0.00426462  1
  V  V10  1  0.49366689  0.50240145  -0.00336727  1
  V  V11  1  0.12789748  0.10319872  0.49744475  1
  V  V12  1  0.48281403  0.12191679  0.13115396  1
  V  V13  1  0.61462965  0.12063601  0.50419182  1
  V  V14  1  -0.00252024  0.26258935  0.75183718  1
  V  V15  1  0.12109481  0.49896772  0.61227001  1
  V  V16  1  0.25129664  0.37464698  0.14083893  1
  V  V17  1  0.75719251  0.37767605  0.61569620  1
  V  V18  1  0.47854487  0.61571679  0.13890628  1
  V  V19  1  0.63871046  0.50514316  0.12072250  1
  V  V20  1  0.11403225  0.85548672  0.25799231  1
  V  V21  1  0.37832007  0.37466782  -0.01335609  1
  V  V22  1  0.63443795  0.62886438  0.50066186  1
  V  V23  1  0.88231550  0.63647579  0.74492819  1
  V  V24  1  0.38379009  -0.01141890  0.36789325  1
  V  V25  1  0.63570956  0.75922453  0.35691933  1
  V  V26  1  0.75861543  0.25181670  0.48839823  1
  V  V27  1  0.88730819  0.73520706  0.14948322  1
  V  V28  1  -0.00249224  0.36219681  0.39197205  1
  V  V29  1  0.24455841  0.00374649  0.73847316  1
  V  V30  1  0.24559398  0.74044318  0.48978834  1
  V  V31  1  0.37433251  0.37190392  0.48776114  1
  V  V32  1  0.86619853  0.02219194  0.37054557  1
  V  V33  1  0.11813654  0.24652326  0.87835325  1
  V  V34  1  0.85934048  0.36075585  0.01728215  1
  V  V35  1  0.23437452  0.25377873  0.50723443  1
  V  V36  1  0.88274930  0.48195032  0.87174255  1
  V  V37  1  0.87551429  0.24803696  0.62529779  1
  V  V38  1  0.75954602  0.75809275  0.50574425  1
  V  V39  1  0.64583296  0.37889953  0.24191485  1
  V  V40  1  0.13721953  0.37814285  0.74766069  1
  V  V41  1  0.62614504  0.12303986  0.00787888  1
  V  V42  1  0.37720843  0.86862194  0.51303088  1
  V  V43  1  -0.00054481  0.49767332  0.00411705  1
  V  V44  1  0.48356993  0.25906508  0.24440559  1
  V  V45  1  0.61962569  0.50700371  0.61921479  1
  V  V46  1  0.25633491  0.11712923  0.36766894  1
  V  V47  1  0.75827964  0.86840369  0.14334027  1
  V  V48  1  0.00705002  0.11754937  0.62129254  1
  V  V49  1  0.26320156  0.51500131  0.75448672  1
  V  V50  1  0.25969340  0.86442071  0.14280492  1
  V  V51  1  0.92273370  0.09017266  0.80297624  1
  V  V52  1  0.71994443  0.02044967  0.74033708  1
  V  V53  1  0.88686324  0.88646412  0.49252409  1
  V  V54  1  0.11609286  0.50831629  0.12729330  1
  V  V55  1  0.50840653  0.91485059  0.84690099  1
  V  V56  1  0.88789891  0.50018262  0.38475829  1
  V  V57  1  0.75268791  0.49567519  0.75016213  1
  V  V58  1  0.49242824  0.51713323  0.48363370  1
  V  V59  1  0.74326867  0.88896896  0.63360260  1
  V  V60  1  0.74043670  0.13935525  0.86109582  1
  V  V61  1  0.01893300  0.11109317  0.12673525  1
  V  V62  1  0.48315856  0.74313424  0.25776926  1
  V  V63  1  0.75951917  0.61683310  0.35192870  1
  Zn  Zn64  1  0.19112329  0.19138950  0.19194030  1
  Zn  Zn65  1  0.19113070  0.18700699  0.68802888  1
  Zn  Zn66  1  0.20041101  0.68608443  0.18577646  1
  Zn  Zn67  1  0.20305892  0.67218108  0.66345147  1
  Zn  Zn68  1  0.67847220  0.17111079  0.20946371  1
  Zn  Zn69  1  0.67569311  0.19940377  0.67514171  1
  Zn  Zn70  1  0.69590030  0.68750554  0.16599549  1
  Zn  Zn71  1  0.70248860  0.68764874  0.68556287  1
  Zn  Zn72  1  0.30044528  0.31155152  0.32575791  1
  Zn  Zn73  1  0.29291596  0.33980311  0.83132186  1
  Zn  Zn74  1  0.30256704  0.80330168  0.33102151  1
  Zn  Zn75  1  0.31122420  0.85096681  0.86767477  1
  Zn  Zn76  1  0.81822565  0.31886232  0.31318156  1
  Zn  Zn77  1  0.80679783  0.31306731  0.80635259  1
  Zn  Zn78  1  0.82173858  0.81302940  0.31273472  1
  Zn  Zn79  1  0.71419535  0.85101355  0.85000860  1
  Zn  Zn80  1  0.17876956  0.43600648  0.42535625  1
  Zn  Zn81  1  0.18732135  0.43841100  0.93601831  1
  Zn  Zn82  1  0.19768816  0.92814894  0.43920290  1
  Zn  Zn83  1  0.20488044  0.95011322  0.98675370  1
  Zn  Zn84  1  0.69017484  0.44054801  0.42872346  1
  Zn  Zn85  1  0.68375544  0.43735590  0.93749616  1
  Zn  Zn86  1  0.68832081  0.94286906  0.42749639  1
  Zn  Zn87  1  0.63030278  0.90471164  0.99629089  1
  Zn  Zn88  1  0.32026957  0.04673044  0.06789583  1
  Zn  Zn89  1  0.31352336  0.05155337  0.55712798  1
  Zn  Zn90  1  0.30361751  0.54859577  0.07006929  1
  Zn  Zn91  1  0.30369561  0.54649780  0.56135272  1
  Zn  Zn92  1  0.79800922  -0.02896512  -0.00576000  1
  Zn  Zn93  1  0.80827854  0.06954743  0.55300640  1
  Zn  Zn94  1  0.81679072  0.57253264  0.05119557  1
  Zn  Zn95  1  0.81596570  0.56341624  0.56185384  1
  Zn  Zn96  1  0.44928297  0.42497647  0.17911795  1
  Zn  Zn97  1  0.42658782  0.43589215  0.66143472  1
  Zn  Zn98  1  0.44101497  0.93929787  0.19644194  1
  Zn  Zn99  1  0.38971391  0.91371994  0.71391150  1
  Zn  Zn100  1  0.91686855  0.44093505  0.18799152  1
  Zn  Zn101  1  0.94080292  0.43952064  0.67881359  1
  Zn  Zn102  1  0.93253407  0.92460580  0.19751256  1
  Zn  Zn103  1  0.91347754  0.94988098  0.67127375  1
  Zn  Zn104  1  0.07144713  0.04135074  0.31906037  1
  Zn  Zn105  1  0.09805624  0.02706033  0.86826460  1
  Zn  Zn106  1  0.01460912  0.54199324  0.28426930  1
  Zn  Zn107  1  0.06433573  0.56222044  0.81263207  1
  Zn  Zn108  1  0.54598371  0.08175549  0.33064922  1
  Zn  Zn109  1  0.54788450  0.08843093  0.79674717  1
  Zn  Zn110  1  0.57904557  0.56527042  0.30799962  1
  Zn  Zn111  1  0.56538811  0.54827645  0.81502186  1
  Zn  Zn112  1  0.43019901  0.18833668  0.43615696  1
  Zn  Zn113  1  0.44005054  0.18811850  0.94781960  1
  Zn  Zn114  1  0.46283252  0.72280466  0.45863125  1
  Zn  Zn115  1  0.37583767  0.67475170  0.98294514  1
  Zn  Zn116  1  0.94237699  0.18185849  0.43915079  1
  Zn  Zn117  1  0.84992435  0.15366295  1.00055761  1
  Zn  Zn118  1  0.93321326  0.68349823  0.44067443  1
  Zn  Zn119  1  0.93299636  0.67111311  0.92914665  1
  Zn  Zn120  1  0.05595810  0.32060385  0.05437046  1
  Zn  Zn121  1  0.06627805  0.30998394  0.56762762  1
  Zn  Zn122  1  0.07958734  0.79238231  0.08601368  1
  Zn  Zn123  1  0.05893911  0.80181876  0.55760353  1
  Zn  Zn124  1  0.56330550  0.31218485  0.06818511  1
  Zn  Zn125  1  0.56482536  0.33302372  0.54455313  1
  Zn  Zn126  1  0.55486009  0.82341924  0.12809949  1
  Zn  Zn127  1  0.57579125  0.82923793  0.55038311  1
  O  O128  1  0.12642257  0.10900867  0.13434882  1
  O  O129  1  0.11222901  0.12795301  0.62076241  1
  O  O130  1  0.13327221  0.60687467  0.12810361  1
  O  O131  1  0.10955447  0.60989397  0.63609305  1
  O  O132  1  0.64471460  0.14732349  0.10457207  1
  O  O133  1  0.61359973  0.13807479  0.60467430  1
  O  O134  1  0.61851633  0.60852769  0.12777709  1
  O  O135  1  0.63993786  0.61618091  0.61475922  1
  O  O136  1  0.35419994  0.39364506  0.39073305  1
  O  O137  1  0.38479575  0.37135064  0.88689780  1
  O  O138  1  0.36867747  0.88345169  0.38316774  1
  O  O139  1  0.42656897  0.86986917  0.89561831  1
  O  O140  1  0.88970819  0.38772360  0.36711241  1
  O  O141  1  0.87410038  0.38061538  0.87209403  1
  O  O142  1  0.88095780  0.87399170  0.39089448  1
  O  O143  1  0.94298183  0.88356965  0.82386651  1
  O  O144  1  0.26011703  0.01101997  0.38451074  1
  O  O145  1  0.24367979  0.03019931  0.90158210  1
  O  O146  1  0.23927455  0.52644005  0.37113215  1
  O  O147  1  0.25298883  0.48492190  0.85425894  1
  O  O148  1  0.76782950  -0.00390548  0.37040063  1
  O  O149  1  0.73553692  0.02780832  0.84630626  1
  O  O150  1  0.75864374  0.51134770  0.36748069  1
  O  O151  1  0.75800362  0.49706670  0.86094264  1
  O  O152  1  0.22696339  0.48077165  0.11962371  1
  O  O153  1  0.22681862  0.50720999  0.64295807  1
  O  O154  1  0.24060771  0.96974437  0.09371746  1
  O  O155  1  0.24509868  1.00519663  0.63822351  1
  O  O156  1  0.73643921  0.50742148  0.10656602  1
  O  O157  1  0.74546977  0.49365637  0.62931633  1
  O  O158  1  0.76518191  0.96416273  0.10723187  1
  O  O159  1  0.75562818  1.00180386  0.63376425  1
  O  O160  1  -0.00136139  0.36560130  0.24215785  1
  O  O161  1  0.00824880  0.36601951  0.74574843  1
  O  O162  1  0.01456523  0.86214832  0.24679165  1
  O  O163  1  -0.02486076  0.88358527  0.75736513  1
  O  O164  1  0.51497922  0.36093452  0.24575287  1
  O  O165  1  0.50953066  0.39412900  0.73478608  1
  O  O166  1  0.50162183  0.84500820  0.23269412  1
  O  O167  1  0.49593965  0.89672368  0.74775811  1
  O  O168  1  0.50962228  0.14676267  0.24039461  1
  O  O169  1  0.46651019  0.13931586  0.72720148  1
  O  O170  1  0.50310641  0.62542790  0.24617385  1
  O  O171  1  0.48010515  0.62317516  0.76342363  1
  O  O172  1  1.02751957  0.11567235  0.23345834  1
  O  O173  1  0.99121737  0.14156649  0.73663412  1
  O  O174  1  1.02390026  0.66492054  0.29456758  1
  O  O175  1  0.98611493  0.61527008  0.74723073  1
  O  O176  1  0.36362574  0.26385280  0.00369482  1
  O  O177  1  0.37613893  0.26929164  0.49854649  1
  O  O178  1  0.40176907  0.77627480  0.01066100  1
  O  O179  1  0.36155550  0.75490703  0.49327701  1
  O  O180  1  0.87286562  0.25963853  0.00925078  1
  O  O181  1  0.86206719  0.25237642  0.50399248  1
  O  O182  1  0.87512901  0.77687754  -0.04762877  1
  O  O183  1  0.86426884  0.75934207  0.49546950  1
  O  O184  1  0.13220639  0.24107521  0.50161481  1
  O  O185  1  0.13553086  0.26806569  0.98408344  1
  O  O186  1  0.14463637  0.75299657  0.50729626  1
  O  O187  1  0.11982936  0.76263783  0.98213380  1
  O  O188  1  0.62765213  0.25704552  0.48373004  1
  O  O189  1  0.61912710  0.25971816  0.97988239  1
  O  O190  1  0.63970544  0.74611465  0.48796726  1
  O  O191  1  0.58206714  0.72773098  0.95933089  1
  O  O192  1  0.49774064  0.24544637  0.13789240  1
  O  O193  1  0.49271629  0.25936460  0.61832958  1
  O  O194  1  0.49497657  0.72290639  0.14217788  1
  O  O195  1  0.54963015  0.76064100  0.67133107  1
  O  O196  1  1.02977370  0.21588026  0.11141567  1
  O  O197  1  0.99326092  0.24718288  0.63241223  1
  O  O198  1  0.98190880  0.74864161  0.10664362  1
  O  O199  1  1.00867864  0.73103516  0.63265435  1
  O  O200  1  -0.01021322  0.26358925  0.37612580  1
  O  O201  1  0.01434382  0.24570145  0.86238311  1
  O  O202  1  0.02766884  0.69907630  0.36203303  1
  O  O203  1  0.01796163  0.73260997  0.88307728  1
  O  O204  1  0.51035618  0.25184605  0.36228211  1
  O  O205  1  0.50580183  0.24912470  0.86976133  1
  O  O206  1  0.52445084  0.73553368  0.36019187  1
  O  O207  1  0.53198546  0.72368321  0.90714848  1
  O  O208  1  0.23742926  0.12718555  0.50328387  1
  O  O209  1  0.25607507  0.14697197  1.00484830  1
  O  O210  1  0.26118267  0.65644155  0.56010789  1
  O  O211  1  0.28131031  0.62171547  0.99125360  1
  O  O212  1  0.73617962  0.14950024  0.50461398  1
  O  O213  1  0.73400183  0.13661595  0.96955671  1
  O  O214  1  0.74984579  0.64229541  0.50299775  1
  O  O215  1  0.76183763  0.63692678  0.97197490  1
  O  O216  1  0.26322848  0.37153542  0.00221032  1
  O  O217  1  0.24276124  0.35730037  0.48641248  1
  O  O218  1  0.28537344  0.87125677  -0.02365873  1
  O  O219  1  0.26121683  0.85301829  0.50009289  1
  O  O220  1  0.76200267  0.37494799  -0.01143091  1
  O  O221  1  0.73973587  0.36646911  0.50795647  1
  O  O222  1  0.73969816  0.88972371  -0.04659291  1
  O  O223  1  0.75535147  0.86576276  0.49649207  1
  O  O224  1  0.10389571  0.48995054  0.23208683  1
  O  O225  1  0.13009260  0.48543295  0.75494863  1
  O  O226  1  0.13647829  0.97073696  0.26168090  1
  O  O227  1  0.14850689  0.99401582  0.77106347  1
  O  O228  1  0.62880499  0.48758889  0.23679020  1
  O  O229  1  0.63241307  0.49395112  0.73790609  1
  O  O230  1  0.63633724  1.01148972  0.26121404  1
  O  O231  1  0.62169248  1.02098031  0.73199647  1
  O  O232  1  0.37173416  -0.00513164  0.26757762  1
  O  O233  1  0.35161861  0.00817359  0.76672027  1
  O  O234  1  0.37021792  0.48740590  0.26601423  1
  O  O235  1  0.36008059  0.49397910  0.73321333  1
  O  O236  1  0.88617747  0.00071989  0.26720503  1
  O  O237  1  0.86888830  0.02246225  0.75012700  1
  O  O238  1  0.90262304  0.51592505  0.26896913  1
  O  O239  1  0.86785176  0.49170004  0.75689160  1
  O  O240  1  0.10197935  0.38585762  0.35646030  1
  O  O241  1  0.13366395  0.36165552  0.85742025  1
  O  O242  1  0.13534888  0.87521622  0.36051340  1
  O  O243  1  0.09775207  0.84579286  0.85479904  1
  O  O244  1  0.63212301  0.36840055  0.35829978  1
  O  O245  1  0.62187109  0.37220098  0.85498699  1
  O  O246  1  0.63346225  0.85763385  0.37233748  1
  O  O247  1  0.60074644  0.87660356  0.87801682  1
  O  O248  1  0.38318597  0.12326266  0.12384642  1
  O  O249  1  0.38582716  0.12699331  0.62403939  1
  O  O250  1  0.37932261  0.60462714  0.14455611  1
  O  O251  1  0.46143193  0.64920583  0.69659368  1
  O  O252  1  0.91902623  0.13525860  0.13208054  1
  O  O253  1  0.88703125  0.14100363  0.60995444  1
  O  O254  1  0.87325466  0.63533080  0.12463449  1
  O  O255  1  0.88738987  0.61357196  0.63554317  1
  O  O256  1  0.23709374  0.26469535  0.11286658  1
  O  O257  1  0.25152276  0.24375107  0.60763630  1
  O  O258  1  0.25793464  0.76341305  0.12118957  1
  O  O259  1  0.20937275  0.80154508  0.65641671  1
  O  O260  1  0.79879296  0.19097317  0.19296459  1
  O  O261  1  0.75724625  0.26089958  0.61722140  1
  O  O262  1  0.77596569  0.75371078  0.12151337  1
  O  O263  1  0.74514602  0.76789418  0.61337195  1
  O  O264  1  0.25842502  0.22757707  0.39489407  1
  O  O265  1  0.24571576  0.24605228  0.88516185  1
  O  O266  1  0.24825858  0.72042746  0.39084157  1
  O  O267  1  0.22651021  0.76022676  0.88699369  1
  O  O268  1  0.74884339  0.26032229  0.38595190  1
  O  O269  1  0.72693312  0.24541813  0.85116538  1
  O  O270  1  0.74848133  0.74005529  0.37961324  1
  O  O271  1  0.73619761  0.73763475  0.84340672  1
  O  O272  1  0.02809755  0.09358585  0.02542515  1
  O  O273  1  0.01581128  0.12849684  0.51053340  1
  O  O274  1  -0.01426707  0.59849591  -0.00284685  1
  O  O275  1  -0.00475620  0.62733930  0.51629836  1
  O  O276  1  0.51337196  0.13880599  0.02220397  1
  O  O277  1  0.51576710  0.13185680  0.48337848  1
  O  O278  1  0.47700175  0.60707930  0.02018389  1
  O  O279  1  0.52533466  0.62928434  0.49522952  1
  O  O280  1  0.48264004  0.39939103  0.49572915  1
  O  O281  1  0.48314667  0.38212015  1.01683138  1
  O  O282  1  0.48191278  0.83899316  0.49574149  1
  O  O283  1  0.51467914  0.88666146  1.03719746  1
  O  O284  1  1.00513370  0.36964241  0.49098265  1
  O  O285  1  0.97594995  0.38505227  1.00431844  1
  O  O286  1  0.98414041  0.87448685  0.51769627  1
  O  O287  1  0.91190583  0.83697665  0.97454543  1
  O  O288  1  0.51696227  0.50924481  0.38696671  1
  O  O289  1  0.49964764  0.50791765  0.89699782  1
  O  O290  1  0.48602741  0.99936798  0.37474607  1
  O  O291  1  0.50352926  1.01387652  0.86742280  1
  O  O292  1  0.99188150  0.49883646  0.39298213  1
  O  O293  1  0.98708194  0.49686630  0.87797010  1
  O  O294  1  0.97831853  1.00830174  0.37004870  1
  O  O295  1  0.98365102  1.04035162  0.86243047  1
  O  O296  1  0.00210955  0.00887937  0.13737791  1
  O  O297  1  -0.00557545  0.01956615  0.63201964  1
  O  O298  1  0.00395089  0.49669391  0.11358453  1
  O  O299  1  0.01300653  0.50559746  0.62473120  1
  O  O300  1  0.50566244  0.02450371  0.14621446  1
  O  O301  1  0.44764057  0.09685724  0.66219428  1
  O  O302  1  0.50760217  0.50670183  0.12580904  1
  O  O303  1  0.51458143  0.50312640  0.60623150  1
  O  O304  1  0.23630923  0.37041069  0.24307734  1
  O  O305  1  0.23930608  0.36789513  0.73678107  1
  O  O306  1  0.26160078  0.86797012  0.24332261  1
  O  O307  1  0.28197998  0.89738539  0.76859371  1
  O  O308  1  0.74544993  0.37350355  0.24373033  1
  O  O309  1  0.73975398  0.38223851  0.73492026  1
  O  O310  1  0.75139196  0.87434832  0.24412202  1
  O  O311  1  0.73960194  0.89798284  0.74007757  1
  O  O312  1  0.24750876  0.13050903  0.26855582  1
  O  O313  1  0.24905823  0.11886510  0.76349167  1
  O  O314  1  0.25042064  0.60594581  0.26570532  1
  O  O315  1  0.25723551  0.61648812  0.74945908  1
  O  O316  1  0.69414024  0.05026795  0.23364077  1
  O  O317  1  0.73668679  0.12860959  0.74302095  1
  O  O318  1  0.75169120  0.62572147  0.25494011  1
  O  O319  1  0.76301119  0.61121480  0.74689540  1
  O  O320  1  0.36495634  0.10909188  0.38614980  1
  O  O321  1  0.36345710  0.13719122  0.88195802  1
  O  O322  1  0.38771787  0.54466242  0.30753164  1
  O  O323  1  0.37743300  0.68029781  0.85254862  1
  O  O324  1  0.86473012  0.12328058  0.38291906  1
  O  O325  1  0.85130413  0.14382530  0.86400871  1
  O  O326  1  0.86474435  0.61730130  0.37863612  1
  O  O327  1  0.86443811  0.61154020  0.85798593  1
  O  O328  1  0.12377565  0.37767930  0.13391630  1
  O  O329  1  0.11809535  0.38637426  0.63729745  1
  O  O330  1  0.14197884  0.86638710  0.14224393  1
  O  O331  1  0.14896519  0.84481282  0.64827978  1
  O  O332  1  0.62806275  0.38201190  0.13477009  1
  O  O333  1  0.63148578  0.38579000  0.62752069  1
  O  O334  1  0.65876896  0.84907434  0.10084062  1
  O  O335  1  0.64597754  0.89211041  0.60694254  1
  O  O336  1  0.12340131  0.26484778  0.24940945  1
  O  O337  1  0.11825022  0.25822381  0.75216499  1
  O  O338  1  0.13942533  0.75524446  0.25130811  1
  O  O339  1  0.13479118  0.73794957  0.77390015  1
  O  O340  1  0.63156645  0.26104940  0.25858653  1
  O  O341  1  0.61196301  0.26931838  0.74362108  1
  O  O342  1  0.63485914  0.74316567  0.25619720  1
  O  O343  1  0.60133238  0.74697584  0.72506571  1
  O  O344  1  0.38552581  0.26323147  0.26005484  1
  O  O345  1  0.43395261  0.28817517  0.65386432  1
  O  O346  1  0.38710326  0.73864496  0.27632265  1
  O  O347  1  0.37047666  0.74224994  0.81160318  1
  O  O348  1  0.84886269  0.22668936  0.23697796  1
  O  O349  1  0.88334297  0.25797959  0.73756853  1
  O  O350  1  0.88769122  0.74184072  0.25132741  1
  O  O351  1  0.87295599  0.73209584  0.74765701  1
  O  O352  1  0.39609144  0.54516377  0.48607146  1
  O  O353  1  0.38174542  0.48315923  1.00748992  1
  O  O354  1  0.37498399  0.97645629  0.49750603  1
  O  O355  1  0.38526218  0.98163224  1.00019064  1
  O  O356  1  0.86266735  0.49639855  0.48352993  1
  O  O357  1  0.87530494  0.49112470  0.98279290  1
  O  O358  1  0.87074910  0.99341810  0.48956258  1
  O  O359  1  0.87467119  1.04643120  1.00369712  1
  O  O360  1  0.09971091  -0.04531056  -0.04362544  1
  O  O361  1  0.13101159  0.00449397  0.50572915  1
  O  O362  1  0.10748871  0.48558928  0.00591612  1
  O  O363  1  0.13620066  0.49639908  0.51402702  1
  O  O364  1  0.62541855  0.02514797  0.00342809  1
  O  O365  1  0.63446313  0.02242742  0.48826080  1
  O  O366  1  0.60622816  0.48632613  0.01260752  1
  O  O367  1  0.62925010  0.51054415  0.50296438  1
  O  O368  1  0.35289721  0.38231464  0.13378290  1
  O  O369  1  0.34955750  0.42863361  0.57395873  1
  O  O370  1  0.36929656  0.88339912  0.12158307  1
  O  O371  1  0.37501107  0.86772122  0.61342968  1
  O  O372  1  0.85842352  0.37932453  0.11747091  1
  O  O373  1  0.86514790  0.36827314  0.62353355  1
  O  O374  1  0.87116856  0.85482646  0.13143944  1
  O  O375  1  0.85229033  0.88218250  0.60731605  1
  O  O376  1  0.13532986  0.11239704  0.39046215  1
  O  O377  1  0.13771214  0.14425006  0.87631162  1
  O  O378  1  0.20146513  0.57359316  0.31802138  1
  O  O379  1  0.12296871  0.64028458  0.87932828  1
  O  O380  1  0.63190988  0.15015800  0.37384787  1
  O  O381  1  0.62136579  0.14608640  0.87121476  1
  O  O382  1  0.64833316  0.62937868  0.38084798  1
  O  O383  1  0.64553925  0.60979089  0.86368416  1
