# generated using pymatgen
data_VZnO4
_symmetry_space_group_name_H-M   'P 1'
_cell_length_a   16.96987584
_cell_length_b   16.97430197
_cell_length_c   16.92687216
_cell_angle_alpha   90.11195663
_cell_angle_beta   89.91716991
_cell_angle_gamma   90.24146116
_symmetry_Int_Tables_number   1
_chemical_formula_structural   VZnO4
_chemical_formula_sum   'V64 Zn64 O256'
_cell_volume   4875.75829728
_cell_formula_units_Z   64
loop_
 _symmetry_equiv_pos_site_id
 _symmetry_equiv_pos_as_xyz
  1  'x, y, z'
loop_
 _atom_site_type_symbol
 _atom_site_label
 _atom_site_symmetry_multiplicity
 _atom_site_fract_x
 _atom_site_fract_y
 _atom_site_fract_z
 _atom_site_occupancy
  V  V0  1  0.11808087  0.63133055  0.51181526  1
  V  V1  1  0.62081826  0.23590075  0.87406064  1
  V  V2  1  0.60227668  0.63553024  -0.01741630  1
  V  V3  1  0.62085387  0.00052002  0.62769490  1
  V  V4  1  -0.00058696  0.74332497  0.24494818  1
  V  V5  1  0.49893124  -0.00336337  0.48645238  1
  V  V6  1  0.62318300  0.25366779  0.36142695  1
  V  V7  1  0.51114380  0.38887235  0.87228886  1
  V  V8  1  0.26893896  0.87139615  0.62891079  1
  V  V9  1  0.48071555  0.26389602  0.23671384  1
  V  V10  1  0.13273935  0.23446905  0.36259417  1
  V  V11  1  0.36459171  0.38421930  0.51322080  1
  V  V12  1  0.76316566  0.12608929  0.37903230  1
  V  V13  1  0.50204392  0.62171579  0.14642750  1
  V  V14  1  0.49872736  0.38536977  0.37851367  1
  V  V15  1  0.15094891  -0.00747779  0.60207366  1
  V  V16  1  0.24940322  0.63001822  0.36232187  1
  V  V17  1  0.00498768  0.38653971  0.89119252  1
  V  V18  1  0.10515627  0.01966667  0.12470692  1
  V  V19  1  0.61322038  0.87475883  0.74847928  1
  V  V20  1  0.02912903  0.24722748  0.76067421  1
  V  V21  1  0.49151679  0.87912296  0.88454891  1
  V  V22  1  0.24861900  0.23310336  0.49825543  1
  V  V23  1  0.48891792  0.74201695  0.73653339  1
  V  V24  1  0.36150739  0.50810744  0.87550860  1
  V  V25  1  0.12993790  0.86754126  0.22844321  1
  V  V26  1  0.79214139  0.94689737  0.67915903  1
  V  V27  1  0.37124407  0.74276916  0.13338128  1
  V  V28  1  0.74940985  0.23509394  -0.00208285  1
  V  V29  1  0.35858302  0.61757282  0.73604244  1
  V  V30  1  0.37742350  0.12799675  0.77578610  1
  V  V31  1  0.74198209  0.48965297  0.26675983  1
  V  V32  1  0.85192103  0.85818019  -0.00890833  1
  V  V33  1  0.87380240  0.09768032  0.22523817  1
  V  V34  1  -0.02552631  0.28703514  0.26493592  1
  V  V35  1  0.86320132  0.88130973  0.48460900  1
  V  V36  1  0.12575750  0.76233221  0.87758825  1
  V  V37  1  0.89138172  0.50706952  0.40243757  1
  V  V38  1  0.00986611  0.09646804  0.64744186  1
  V  V39  1  0.53852588  0.11358815  0.12751426  1
  V  V40  1  0.61612934  0.76216429  0.36352861  1
  V  V41  1  0.74943742  0.63625019  0.38447420  1
  V  V42  1  0.62207195  0.89847247  0.24673107  1
  V  V43  1  0.61825198  0.62904781  0.51738767  1
  V  V44  1  0.75174240  0.38825632  0.10641895  1
  V  V45  1  0.35011625  0.86520230  0.00214440  1
  V  V46  1  0.14278651  0.39613657  0.26640562  1
  V  V47  1  0.36741385  0.50820084  0.37167399  1
  V  V48  1  -0.00803869  0.61665787  0.11133054  1
  V  V49  1  0.47415273  0.13238578  0.62384456  1
  V  V50  1  0.01126856  0.86634264  0.37262867  1
  V  V51  1  0.62057384  0.14321755  0.50283730  1
  V  V52  1  0.00805358  0.00239896  0.48606879  1
  V  V53  1  0.14167749  0.61870788  -0.00982198  1
  V  V54  1  0.62114316  0.46183088  0.65623585  1
  V  V55  1  0.38121301  0.87313570  0.47983805  1
  V  V56  1  -0.00546401  0.74539037  0.73813639  1
  V  V57  1  0.25795226  -0.00214484  0.77515374  1
  V  V58  1  0.25936239  0.25486651  -0.01862443  1
  V  V59  1  0.13496157  0.49902230  0.13044770  1
  V  V60  1  0.37967782  0.38541650  0.01437289  1
  V  V61  1  0.25920454  0.74132321  0.49988689  1
  V  V62  1  0.86525355  0.63259773  0.25206710  1
  V  V63  1  0.74895306  0.75751317  0.51678632  1
  Zn  Zn64  1  0.09523196  0.22918631  0.15429701  1
  Zn  Zn65  1  0.19651052  0.16920634  0.69182203  1
  Zn  Zn66  1  0.18414788  0.68619944  0.17774780  1
  Zn  Zn67  1  0.18286286  0.69886793  0.69576036  1
  Zn  Zn68  1  0.70848642  0.20178232  0.18948705  1
  Zn  Zn69  1  0.67867918  0.20463129  0.68228400  1
  Zn  Zn70  1  0.72158974  0.79598224  0.14812478  1
  Zn  Zn71  1  0.69654848  0.69312060  0.70291046  1
  Zn  Zn72  1  0.31159210  0.31893775  0.31598395  1
  Zn  Zn73  1  0.34393037  0.30685408  0.82381948  1
  Zn  Zn74  1  0.31260414  0.81247383  0.30546214  1
  Zn  Zn75  1  0.31564553  0.80179315  0.81808235  1
  Zn  Zn76  1  0.80424217  0.33234230  0.37199011  1
  Zn  Zn77  1  0.81629446  0.27170671  0.80199399  1
  Zn  Zn78  1  0.80694020  0.81900123  0.31198302  1
  Zn  Zn79  1  0.81301041  0.80783030  0.80691341  1
  Zn  Zn80  1  0.18198995  0.44530480  0.45818755  1
  Zn  Zn81  1  0.19201287  0.43790778  0.94907392  1
  Zn  Zn82  1  0.19190831  0.92098726  0.42626501  1
  Zn  Zn83  1  0.17923284  0.93167947  0.95871089  1
  Zn  Zn84  1  0.67852392  0.44679418  0.44015552  1
  Zn  Zn85  1  0.70046235  0.44865577  0.92226718  1
  Zn  Zn86  1  0.67954823  0.95031736  0.43024903  1
  Zn  Zn87  1  0.66509938  0.76580921  0.88796305  1
  Zn  Zn88  1  0.28837450  0.05111283  0.02423665  1
  Zn  Zn89  1  0.33151119  0.06772716  0.42706187  1
  Zn  Zn90  1  0.31825802  0.56605636  0.06671661  1
  Zn  Zn91  1  0.45090289  0.55631071  0.56208528  1
  Zn  Zn92  1  0.83436767  0.06541277  0.03155273  1
  Zn  Zn93  1  0.86040336  0.12153589  0.72635594  1
  Zn  Zn94  1  0.71043424  0.60223937  0.12960792  1
  Zn  Zn95  1  0.79955687  0.44164598  0.55215293  1
  Zn  Zn96  1  0.44426101  0.44871958  0.19357910  1
  Zn  Zn97  1  0.44267371  0.43634571  0.69597712  1
  Zn  Zn98  1  0.46043010  0.92323969  0.15625000  1
  Zn  Zn99  1  0.43561159  0.94880766  0.68430856  1
  Zn  Zn100  1  0.92873665  0.45470567  0.19835321  1
  Zn  Zn101  1  0.87268618  0.46227274  0.79462222  1
  Zn  Zn102  1  0.94676305  0.93166603  0.17291621  1
  Zn  Zn103  1  0.96485318  0.89819735  0.65858818  1
  Zn  Zn104  1  0.05005137  0.05970091  0.29641159  1
  Zn  Zn105  1  0.10707516  -0.10834071  0.76406938  1
  Zn  Zn106  1  0.06912887  0.56901945  0.32532692  1
  Zn  Zn107  1  0.03779269  0.57181947  0.81595422  1
  Zn  Zn108  1  0.50910855  0.09443433  0.32376075  1
  Zn  Zn109  1  0.55335550  0.06197471  0.81371440  1
  Zn  Zn110  1  0.56438014  0.57185009  0.32712619  1
  Zn  Zn111  1  0.55972234  0.56271006  0.80950683  1
  Zn  Zn112  1  0.43660744  0.20655183  0.44041651  1
  Zn  Zn113  1  0.44848549  0.19983249  0.95625584  1
  Zn  Zn114  1  0.44007760  0.69223797  0.43401217  1
  Zn  Zn115  1  0.43375135  0.69654776  0.92527535  1
  Zn  Zn116  1  0.95849224  0.18200530  0.42386432  1
  Zn  Zn117  1  0.92271492  0.22970591  0.90370287  1
  Zn  Zn118  1  0.93421472  0.69692325  0.44394901  1
  Zn  Zn119  1  0.94021298  0.69075211  0.92681886  1
  Zn  Zn120  1  -0.07853898  0.31574358  0.07124886  1
  Zn  Zn121  1  0.09546507  0.26769277  0.58068613  1
  Zn  Zn122  1  0.05109636  0.79822441  0.05650806  1
  Zn  Zn123  1  0.07891439  0.80557965  0.55889454  1
  Zn  Zn124  1  0.57257689  0.33035952  0.05598109  1
  Zn  Zn125  1  0.54478500  0.31779530  0.56893104  1
  Zn  Zn126  1  0.55878232  0.80035554  0.06602216  1
  Zn  Zn127  1  0.55729082  0.81110830  0.56318564  1
  O  O128  1  0.11068925  0.11717447  0.14709015  1
  O  O129  1  0.13002914  0.09335646  0.62331636  1
  O  O130  1  0.10883732  0.62559238  0.11021857  1
  O  O131  1  0.13302299  0.64521156  0.61041682  1
  O  O132  1  0.63765743  0.13371096  0.13117189  1
  O  O133  1  0.61863799  0.12603192  0.61553780  1
  O  O134  1  0.60242306  0.63469524  0.10750781  1
  O  O135  1  0.63567039  0.63817789  0.61625019  1
  O  O136  1  0.37863776  0.38916330  0.38288244  1
  O  O137  1  0.38492177  0.39179049  0.88214043  1
  O  O138  1  0.37640598  0.87408322  0.38096692  1
  O  O139  1  0.38129825  0.86691947  0.88896555  1
  O  O140  1  0.89088873  0.40800554  0.39037239  1
  O  O141  1  0.88127189  0.35765429  0.83392916  1
  O  O142  1  0.88516699  0.87494138  0.38158563  1
  O  O143  1  0.88563788  0.86610209  0.88167248  1
  O  O144  1  0.26463089  -0.00779526  0.36747938  1
  O  O145  1  0.24280957  -0.01435624  0.87253810  1
  O  O146  1  0.26148636  0.51736482  0.38452626  1
  O  O147  1  0.26309643  0.49416992  0.87141273  1
  O  O148  1  0.74325065  0.02814861  0.37653407  1
  O  O149  1  0.76221071  -0.15610954  0.92012815  1
  O  O150  1  0.75883300  0.52263347  0.38049104  1
  O  O151  1  0.78634005  0.51043295  0.86488256  1
  O  O152  1  0.23329577  0.51954866  0.13196233  1
  O  O153  1  0.21915627  0.44081755  0.70933905  1
  O  O154  1  0.23645437  1.03498185  0.29478475  1
  O  O155  1  0.25229998  0.98647192  0.60380107  1
  O  O156  1  0.75268125  0.49727734  0.15890237  1
  O  O157  1  0.71182975  0.48068394  0.61454220  1
  O  O158  1  0.72074063  1.00153601  0.09478626  1
  O  O159  1  0.72924833  1.00827147  0.62296306  1
  O  O160  1  0.00072624  0.38556274  0.26028846  1
  O  O161  1  0.03111426  0.33925682  0.73060480  1
  O  O162  1  0.00071623  0.86152276  0.25093469  1
  O  O163  1  -0.00247074  0.86951773  0.76157589  1
  O  O164  1  0.49303194  0.37481976  0.26917756  1
  O  O165  1  0.48987362  0.36786883  0.77424124  1
  O  O166  1  0.51893788  0.88810726  0.24612316  1
  O  O167  1  0.50270661  0.87625074  0.74796610  1
  O  O168  1  0.50065422  0.15183163  0.22485859  1
  O  O169  1  0.48022619  0.11422973  0.73620434  1
  O  O170  1  0.50645967  0.62522534  0.24714076  1
  O  O171  1  0.50354617  0.64177548  0.74595907  1
  O  O172  1  0.96402336  0.13220111  0.26628756  1
  O  O173  1  1.01376979  0.07308690  0.74103215  1
  O  O174  1  0.99554612  0.63869580  0.26000488  1
  O  O175  1  1.01647687  0.64459247  0.73311460  1
  O  O176  1  0.36878004  0.27407381  -0.00185658  1
  O  O177  1  0.35324968  0.26349990  0.49498235  1
  O  O178  1  0.37817361  0.75824790  0.00306620  1
  O  O179  1  0.37421028  0.76564743  0.49837786  1
  O  O180  1  0.86082072  0.25106834  -0.00599746  1
  O  O181  1  0.91390198  0.26572038  0.51029962  1
  O  O182  1  0.86101082  0.75141680  -0.01537636  1
  O  O183  1  0.86259904  0.77212790  0.50158832  1
  O  O184  1  0.13261357  0.24570462  0.47083285  1
  O  O185  1  0.14473152  0.27090830  0.99714191  1
  O  O186  1  0.15412833  0.75343373  0.49183011  1
  O  O187  1  0.11162468  0.73012054  0.98549135  1
  O  O188  1  0.60855468  0.24383405  0.49807731  1
  O  O189  1  0.64220410  0.25898122  0.99487106  1
  O  O190  1  0.63709597  0.75751284  0.49882882  1
  O  O191  1  0.62809409  0.73999559  0.99176099  1
  O  O192  1  0.50787180  0.28544651  0.14331567  1
  O  O193  1  0.48828238  0.23117234  0.61871773  1
  O  O194  1  0.48596509  0.73377623  0.12107931  1
  O  O195  1  0.48602893  0.76082290  0.63658044  1
  O  O196  1  0.98465518  0.26247087  0.15865137  1
  O  O197  1  1.02587468  0.20716275  0.64831819  1
  O  O198  1  0.99514804  0.73137648  0.13728364  1
  O  O199  1  1.00221056  0.78174539  0.63638932  1
  O  O200  1  0.01861409  0.25485644  0.36245505  1
  O  O201  1  0.02026717  0.27920128  0.87207106  1
  O  O202  1  -0.00235872  0.76228517  0.36225927  1
  O  O203  1  0.01705432  0.73518362  0.85805375  1
  O  O204  1  0.50383556  0.26246938  0.35748252  1
  O  O205  1  0.51809866  0.26747857  0.89214967  1
  O  O206  1  0.51766319  0.75699030  0.38426363  1
  O  O207  1  0.49681385  0.76752527  0.85061795  1
  O  O208  1  0.25936150  0.13581723  0.48577190  1
  O  O209  1  0.26706373  0.15654170  1.00845422  1
  O  O210  1  0.25475273  0.64179496  0.50236879  1
  O  O211  1  0.23929856  0.62340001  0.99597520  1
  O  O212  1  0.71982832  0.13201988  0.48614664  1
  O  O213  1  0.75117790  0.13546126  0.99785452  1
  O  O214  1  0.74389600  0.65067444  0.49909227  1
  O  O215  1  0.70734032  0.58344285  1.00880398  1
  O  O216  1  0.26707064  0.37083697  0.00022161  1
  O  O217  1  0.26104751  0.37534384  0.49941509  1
  O  O218  1  0.25184547  0.85314577  0.00054240  1
  O  O219  1  0.26816318  0.86891864  0.49793900  1
  O  O220  1  0.76214209  0.39979935  0.00719794  1
  O  O221  1  0.75619373  0.37323993  0.47073108  1
  O  O222  1  0.76643848  0.84632914  0.05066478  1
  O  O223  1  0.75879046  0.87785217  0.48752526  1
  O  O224  1  0.12223782  0.50352648  0.24724154  1
  O  O225  1  0.08312027  0.48547394  0.65055446  1
  O  O226  1  0.10872535  0.98135098  0.22798781  1
  O  O227  1  0.16109815  0.98667166  0.73200841  1
  O  O228  1  0.64365154  0.50592183  0.27778473  1
  O  O229  1  0.63010946  0.49332786  0.75269398  1
  O  O230  1  0.63591685  0.99403471  0.24766177  1
  O  O231  1  0.61453731  0.99661718  0.73454304  1
  O  O232  1  0.35856663  0.00360792  0.19706914  1
  O  O233  1  0.36474230  0.00643585  0.75461155  1
  O  O234  1  0.37662118  0.50016192  0.27318927  1
  O  O235  1  0.37806291  0.50979420  0.76039967  1
  O  O236  1  0.87834444  -0.00207077  0.23545150  1
  O  O237  1  0.84186927  0.00547413  0.74232546  1
  O  O238  1  0.86885654  0.52082705  0.27575319  1
  O  O239  1  0.87668412  0.52169361  0.69163683  1
  O  O240  1  0.12974149  0.39328935  0.36733315  1
  O  O241  1  0.10293454  0.40853327  0.88749730  1
  O  O242  1  0.11450402  0.87328052  0.35307302  1
  O  O243  1  0.11660882  0.86532393  0.88992797  1
  O  O244  1  0.60570429  0.36529117  0.38829994  1
  O  O245  1  0.61433582  0.38842402  0.88268206  1
  O  O246  1  0.63514745  0.87105868  0.36056489  1
  O  O247  1  0.61512608  0.87059927  0.85163098  1
  O  O248  1  0.34005109  0.06481439  0.16084032  1
  O  O249  1  0.37835167  0.11916060  0.61852122  1
  O  O250  1  0.38885369  0.63116848  0.12524711  1
  O  O251  1  0.38168729  0.60909383  0.63912575  1
  O  O252  1  0.87238899  0.11395057  0.12588441  1
  O  O253  1  0.91154991  0.10207968  0.62448896  1
  O  O254  1  0.88972679  0.61385323  0.15142612  1
  O  O255  1  0.83541852  0.58945879  0.68390916  1
  O  O256  1  0.17240852  0.26749165  0.07288254  1
  O  O257  1  0.21458323  0.24002605  0.59913092  1
  O  O258  1  0.26937970  0.73256082  0.12163260  1
  O  O259  1  0.25728903  0.76666165  0.61415463  1
  O  O260  1  0.75420491  0.27261629  0.10648317  1
  O  O261  1  0.74647182  0.29019534  0.60704559  1
  O  O262  1  0.76513601  0.69976809  0.13071867  1
  O  O263  1  0.74896179  0.75996621  0.61448154  1
  O  O264  1  0.23881753  0.25184254  0.37547945  1
  O  O265  1  0.25506281  0.25674452  0.88166164  1
  O  O266  1  0.26938376  0.73734390  0.38554369  1
  O  O267  1  0.22535149  0.74827188  0.86489291  1
  O  O268  1  0.72728983  0.23939123  0.37572004  1
  O  O269  1  0.73642218  0.25757738  0.89105497  1
  O  O270  1  0.74347414  0.74858141  0.38338096  1
  O  O271  1  0.73360073  0.72788168  0.80722125  1
  O  O272  1  0.08378402  0.13218818  -0.04741518  1
  O  O273  1  0.01014098  0.10257003  0.48912136  1
  O  O274  1  -0.02003228  0.62206778  0.01211814  1
  O  O275  1  0.02205756  0.65963457  0.49933549  1
  O  O276  1  0.49513023  0.15337675  0.04614268  1
  O  O277  1  0.50241987  0.11590811  0.50766171  1
  O  O278  1  0.50204619  0.62680788  -0.00997885  1
  O  O279  1  0.51273742  0.63990451  0.50929541  1
  O  O280  1  0.47822546  0.35764932  0.48418837  1
  O  O281  1  0.48669110  0.37987513  0.99259177  1
  O  O282  1  0.49198275  0.88710081  0.50244175  1
  O  O283  1  0.51056807  0.86764300  0.98263269  1
  O  O284  1  0.95845820  0.31863739  0.53629981  1
  O  O285  1  0.97722209  0.38202051  0.98710332  1
  O  O286  1  1.00672515  0.86936745  0.47989492  1
  O  O287  1  0.96453309  0.85060709  0.99570776  1
  O  O288  1  0.49527181  0.49002442  0.38050677  1
  O  O289  1  0.49243883  0.49289736  0.87442059  1
  O  O290  1  0.51801623  1.00024759  0.38928223  1
  O  O291  1  0.50032420  0.97825501  0.86861568  1
  O  O292  1  0.98889039  0.53102948  0.39326956  1
  O  O293  1  0.97685733  0.48214143  0.84272551  1
  O  O294  1  1.00985880  0.98440097  0.37889789  1
  O  O295  1  0.94828687  1.04561938  0.89427448  1
  O  O296  1  0.01110133  -0.00151009  0.09806358  1
  O  O297  1  0.02369168  -0.01321213  0.60245835  1
  O  O298  1  0.00907182  0.51677179  0.13557630  1
  O  O299  1  0.05473063  0.43158215  0.60906494  1
  O  O300  1  0.51767543  0.01522666  0.12497829  1
  O  O301  1  0.50719626  0.01289814  0.61463147  1
  O  O302  1  0.49773791  0.52064954  0.12730872  1
  O  O303  1  0.52133157  0.49240062  0.62751293  1
  O  O304  1  0.24079566  0.38787172  0.25580531  1
  O  O305  1  0.21963196  0.37226825  0.73176733  1
  O  O306  1  0.22812589  0.86521714  0.24475929  1
  O  O307  1  0.27250553  0.88119868  0.73524741  1
  O  O308  1  0.75339429  0.39204211  0.27937988  1
  O  O309  1  0.81787797  0.29662209  0.63820948  1
  O  O310  1  0.73949974  0.86347673  0.23696148  1
  O  O311  1  0.73411870  0.88254323  0.73950848  1
  O  O312  1  0.26670800  0.10182958  0.28631214  1
  O  O313  1  0.26408366  0.10574135  0.76126148  1
  O  O314  1  0.24433703  0.63425076  0.26431578  1
  O  O315  1  0.25969497  0.62678417  0.73925934  1
  O  O316  1  0.77915199  0.13974172  0.26394002  1
  O  O317  1  0.77320847  0.18852089  0.73997818  1
  O  O318  1  0.76025576  0.62579030  0.26531090  1
  O  O319  1  0.76976331  0.59146309  0.72368905  1
  O  O320  1  0.40747017  0.12488793  0.36847319  1
  O  O321  1  0.39647513  0.13076370  0.87354486  1
  O  O322  1  0.37216949  0.61475162  0.38435163  1
  O  O323  1  0.37718127  0.61278044  0.86427006  1
  O  O324  1  0.85806720  0.13616102  0.40439848  1
  O  O325  1  0.92373988  0.09548009  0.94385556  1
  O  O326  1  0.86466790  0.63487307  0.37533820  1
  O  O327  1  0.87391934  0.61310676  0.86011063  1
  O  O328  1  0.12418155  0.39960385  0.14261290  1
  O  O329  1  0.11048354  0.38373860  0.56859838  1
  O  O330  1  0.11293490  0.86674683  0.12657317  1
  O  O331  1  0.14949490  0.88192937  0.62008706  1
  O  O332  1  0.65104989  0.38720529  0.12076725  1
  O  O333  1  0.61040190  0.36007019  0.64913716  1
  O  O334  1  0.62550084  0.85680100  0.13930413  1
  O  O335  1  0.61602748  0.89633044  0.62519596  1
  O  O336  1  0.12219940  0.27963148  0.25869090  1
  O  O337  1  0.12440422  0.21364210  0.76910303  1
  O  O338  1  0.10931965  0.75614518  0.24128252  1
  O  O339  1  0.11837624  0.76864781  0.75979712  1
  O  O340  1  0.62443222  0.25572381  0.26098759  1
  O  O341  1  0.62822489  0.25261719  0.77501740  1
  O  O342  1  0.62371265  0.74712811  0.26774052  1
  O  O343  1  0.60720842  0.77250587  0.72668386  1
  O  O344  1  0.38137993  0.26353049  0.24267497  1
  O  O345  1  0.36207714  0.22509471  0.75048909  1
  O  O346  1  0.37792139  0.75752999  0.23363470  1
  O  O347  1  0.37928940  0.73031245  0.75235510  1
  O  O348  1  0.87879166  0.28091057  0.28833987  1
  O  O349  1  0.92778821  0.19791379  0.78956286  1
  O  O350  1  0.88466979  0.74059083  0.25739744  1
  O  O351  1  0.89473584  0.75011387  0.75312314  1
  O  O352  1  0.38259323  0.48872229  0.49308879  1
  O  O353  1  0.36837782  0.49578775  0.98764920  1
  O  O354  1  0.39077498  0.98966212  0.49057477  1
  O  O355  1  0.35986833  0.96973777  1.00987055  1
  O  O356  1  0.86792896  0.51875629  0.50149030  1
  O  O357  1  0.80902391  0.58679126  0.89455304  1
  O  O358  1  0.90373016  0.97961750  0.49609442  1
  O  O359  1  0.84732298  0.96010484  0.98732122  1
  O  O360  1  0.17703898  0.00365680  0.04775553  1
  O  O361  1  0.12536777  -0.01356247  0.49607191  1
  O  O362  1  0.12677693  0.51158115  0.01782098  1
  O  O363  1  0.12409317  0.53116187  0.50016363  1
  O  O364  1  0.66901493  -0.01850893  0.04805168  1
  O  O365  1  0.61409478  0.00896359  0.50957644  1
  O  O366  1  0.64608495  0.52668593  -0.00377824  1
  O  O367  1  0.62493461  0.53081877  0.49471860  1
  O  O368  1  0.37982995  0.39508050  0.11305171  1
  O  O369  1  0.38144701  0.38400981  0.61205832  1
  O  O370  1  0.38174234  0.85681425  0.11038658  1
  O  O371  1  0.36960719  0.88519883  0.60960584  1
  O  O372  1  0.85945882  0.38875345  0.13618819  1
  O  O373  1  0.85178102  0.36785276  0.63328936  1
  O  O374  1  0.88889549  0.86672649  0.09733679  1
  O  O375  1  0.85860125  0.89613212  0.61565826  1
  O  O376  1  0.12360256  0.13703655  0.34555388  1
  O  O377  1  0.09493313  0.07790674  0.90591006  1
  O  O378  1  0.14802172  0.63061405  0.38704222  1
  O  O379  1  0.11823886  0.60880377  0.89012226  1
  O  O380  1  0.60589488  0.14597561  0.38324901  1
  O  O381  1  0.60901206  0.13612166  0.87890098  1
  O  O382  1  0.63252920  0.64451304  0.39129491  1
  O  O383  1  0.61848023  0.63126136  0.88082467  1
