# generated using pymatgen
data_VZnO4
_symmetry_space_group_name_H-M   'P 1'
_cell_length_a   16.97840775
_cell_length_b   16.84583763
_cell_length_c   16.92433388
_cell_angle_alpha   89.80370240
_cell_angle_beta   90.23764371
_cell_angle_gamma   90.03022756
_symmetry_Int_Tables_number   1
_chemical_formula_structural   VZnO4
_chemical_formula_sum   'V64 Zn64 O256'
_cell_volume   4840.55113739
_cell_formula_units_Z   64
loop_
 _symmetry_equiv_pos_site_id
 _symmetry_equiv_pos_as_xyz
  1  'x, y, z'
loop_
 _atom_site_type_symbol
 _atom_site_label
 _atom_site_symmetry_multiplicity
 _atom_site_fract_x
 _atom_site_fract_y
 _atom_site_fract_z
 _atom_site_occupancy
  V  V0  1  0.76357000  0.75698539  0.00626786  1
  V  V1  1  0.74953652  0.61494981  0.87801385  1
  V  V2  1  0.00312342  0.86742183  0.40122827  1
  V  V3  1  0.38664866  0.49151941  0.36722795  1
  V  V4  1  0.74034945  0.49449401  0.25369054  1
  V  V5  1  0.87580287  0.03019315  0.37522452  1
  V  V6  1  0.26002681  0.38135228  0.11178261  1
  V  V7  1  0.51416425  0.87762895  0.37632633  1
  V  V8  1  0.49769642  0.62873374  0.11613103  1
  V  V9  1  0.24154020  0.01193656  0.73774591  1
  V  V10  1  0.75492085  0.35152883  0.62207269  1
  V  V11  1  0.50808256  0.63082761  0.62638714  1
  V  V12  1  0.36959424  0.24448512  0.63199846  1
  V  V13  1  -0.01361553  0.02031368  0.50974016  1
  V  V14  1  -0.00343696  0.61931624  0.12608343  1
  V  V15  1  0.24955050  0.62263882  0.38870165  1
  V  V16  1  -0.00911437  0.26021313  0.75513204  1
  V  V17  1  0.49756055  0.39415657  0.88844419  1
  V  V18  1  0.37626629  0.75606664  0.60306750  1
  V  V19  1  0.13756108  -0.01598361  0.09350921  1
  V  V20  1  0.86697802  0.48188389  0.39457756  1
  V  V21  1  0.88041549  0.62428259  0.26637831  1
  V  V22  1  0.11433052  0.49496170  0.11050659  1
  V  V23  1  0.86619486  0.85110335  0.51016655  1
  V  V24  1  0.46481922  0.00494832  0.48788996  1
  V  V25  1  -0.00715276  0.38935782  0.89102968  1
  V  V26  1  0.72126863  0.74133319  0.50899859  1
  V  V27  1  0.51090234  0.12253135  0.61563574  1
  V  V28  1  0.50553822  -0.01800610  -0.01348436  1
  V  V29  1  0.12071942  0.86098037  0.74567639  1
  V  V30  1  0.01799307  0.62624740  0.61739539  1
  V  V31  1  0.36573115  0.64269453  0.75481012  1
  V  V32  1  0.00287870  0.48068876  0.50943186  1
  V  V33  1  0.36316998  -0.00064341  0.86357757  1
  V  V34  1  0.12723007  0.11845884  0.49616754  1
  V  V35  1  -0.00212248  0.76046939  0.26776391  1
  V  V36  1  0.75795752  0.00189869  0.24692365  1
  V  V37  1  0.63073290  -0.01529473  0.13366872  1
  V  V38  1  0.62865761  0.76285479  0.87403379  1
  V  V39  1  0.22252449  0.48287028  0.26379068  1
  V  V40  1  0.87604770  0.64774228  0.73815862  1
  V  V41  1  -0.00818711  0.14536462  0.63068283  1
  V  V42  1  0.62104950  0.35852187  0.25649891  1
  V  V43  1  0.47496395  0.24443919  0.24719097  1
  V  V44  1  0.88287854  0.00121632  0.87682710  1
  V  V45  1  0.01630373  0.12482407  0.10406894  1
  V  V46  1  0.27297736  0.25042872  -0.00745695  1
  V  V47  1  0.14267790  0.38801961  0.74656099  1
  V  V48  1  0.62041609  0.50091819  0.11445341  1
  V  V49  1  0.38238544  0.37543650  0.50944666  1
  V  V50  1  0.52686233  0.74889989  0.25594788  1
  V  V51  1  0.76737750  0.49237661  0.74586012  1
  V  V52  1  0.61891049  0.38859773  0.75142468  1
  V  V53  1  0.64063145  0.12657420  -0.00012270  1
  V  V54  1  0.49521011  0.12560337  0.12298344  1
  V  V55  1  0.73213829  0.91484999  0.62113536  1
  V  V56  1  0.73633917  0.62949726  0.38412208  1
  V  V57  1  0.50750035  0.23657247  0.75557757  1
  V  V58  1  0.51349547  0.50303536  0.50697343  1
  V  V59  1  0.24163761  0.25938235  0.49233603  1
  V  V60  1  0.15191442  0.89418931  0.25509073  1
  V  V61  1  0.13247770  0.23988626  0.88000646  1
  V  V62  1  0.24987296  0.87484725  0.60478177  1
  V  V63  1  0.75375003  0.26740664  0.01411924  1
  Zn  Zn64  1  0.20796707  0.16838274  0.12904549  1
  Zn  Zn65  1  0.17648610  0.20045515  0.68045048  1
  Zn  Zn66  1  0.14972471  0.65988998  0.24712015  1
  Zn  Zn67  1  0.19433348  0.68680062  0.67609116  1
  Zn  Zn68  1  0.69382552  0.17793025  0.18092655  1
  Zn  Zn69  1  0.68552082  0.17513316  0.69865620  1
  Zn  Zn70  1  0.68567307  0.68417178  0.19038618  1
  Zn  Zn71  1  0.68635828  0.67955526  0.69143112  1
  Zn  Zn72  1  0.31329752  0.31532178  0.31464993  1
  Zn  Zn73  1  0.32158630  0.31495203  0.81567830  1
  Zn  Zn74  1  0.32511495  0.80174108  0.32659511  1
  Zn  Zn75  1  0.33573648  0.83929889  0.77916032  1
  Zn  Zn76  1  0.81232296  0.31053147  0.30653417  1
  Zn  Zn77  1  0.80813274  0.31412551  0.82743560  1
  Zn  Zn78  1  0.81550471  0.81211849  0.31613111  1
  Zn  Zn79  1  0.76462458  0.80244580  0.78098052  1
  Zn  Zn80  1  0.21104403  0.46644230  0.47603255  1
  Zn  Zn81  1  0.16840909  0.42947888  0.94047576  1
  Zn  Zn82  1  0.15717479  0.91301831  0.45424314  1
  Zn  Zn83  1  0.18985635  0.91684367  0.91652755  1
  Zn  Zn84  1  0.68412663  0.42144499  0.44028728  1
  Zn  Zn85  1  0.68186746  0.43507147  0.93079486  1
  Zn  Zn86  1  0.71543258  0.91547328  0.39901499  1
  Zn  Zn87  1  0.69565080  0.93114093  0.95590964  1
  Zn  Zn88  1  0.32269958  0.05066544  0.04732318  1
  Zn  Zn89  1  0.30792871  0.07175334  0.56238863  1
  Zn  Zn90  1  0.29311834  0.60052598  0.14658929  1
  Zn  Zn91  1  0.32575695  0.56598588  0.56554801  1
  Zn  Zn92  1  0.82378052  0.07515925  0.07866369  1
  Zn  Zn93  1  0.80808797  0.09644182  0.56068786  1
  Zn  Zn94  1  0.79528204  0.59861683  0.08713718  1
  Zn  Zn95  1  0.80228406  0.55801765  0.56958176  1
  Zn  Zn96  1  0.44753236  0.43358741  0.18039925  1
  Zn  Zn97  1  0.44245286  0.43741645  0.68761383  1
  Zn  Zn98  1  0.45251518  0.92600768  0.18923022  1
  Zn  Zn99  1  0.42091889  0.95459731  0.67359796  1
  Zn  Zn100  1  0.92637630  0.44345833  0.19268086  1
  Zn  Zn101  1  0.93863733  0.42750000  0.67930116  1
  Zn  Zn102  1  0.96104103  1.01008731  0.20852557  1
  Zn  Zn103  1  0.92897929  0.93640846  0.68004550  1
  Zn  Zn104  1  0.12852775  0.09475682  0.28815897  1
  Zn  Zn105  1  0.07252764  0.06603486  0.80096550  1
  Zn  Zn106  1  0.05903258  0.54983239  0.34771371  1
  Zn  Zn107  1  0.04559382  0.55363277  0.79776938  1
  Zn  Zn108  1  0.55612092  0.05886574  0.30351838  1
  Zn  Zn109  1  0.58335618  0.06268676  0.80980556  1
  Zn  Zn110  1  0.55917941  0.56144662  0.31452585  1
  Zn  Zn111  1  0.55889393  0.57156711  0.81328186  1
  Zn  Zn112  1  0.48114730  0.22085929  0.45665662  1
  Zn  Zn113  1  0.44553472  0.17469393  0.93724336  1
  Zn  Zn114  1  0.44008088  0.67957834  0.42974803  1
  Zn  Zn115  1  0.44308450  0.69835249  0.92939742  1
  Zn  Zn116  1  0.95950614  0.18797649  0.27181607  1
  Zn  Zn117  1  0.93438252  0.19732294  0.93335867  1
  Zn  Zn118  1  0.93552457  0.67469187  0.44777832  1
  Zn  Zn119  1  0.92477795  0.66063556  0.93730996  1
  Zn  Zn120  1  0.06746148  0.30665288  0.06590248  1
  Zn  Zn121  1  0.06729317  0.31994941  0.56887484  1
  Zn  Zn122  1  0.06748401  0.79853423  0.09790452  1
  Zn  Zn123  1  0.04299178  0.83065322  0.58986678  1
  Zn  Zn124  1  0.56992400  0.31228915  0.06671225  1
  Zn  Zn125  1  0.57299863  0.31404595  0.57319529  1
  Zn  Zn126  1  0.57777846  0.79880946  0.05946192  1
  Zn  Zn127  1  0.55378592  0.82485567  0.55797939  1
  O  O128  1  0.12723933  0.09682800  0.09808767  1
  O  O129  1  0.10670999  0.14214600  0.60677518  1
  O  O130  1  0.10473936  0.60517047  0.15113700  1
  O  O131  1  0.11693967  0.61636493  0.62825407  1
  O  O132  1  0.61884228  0.10907582  0.12012244  1
  O  O133  1  0.60815395  0.12773204  0.61033799  1
  O  O134  1  0.61136536  0.61001000  0.13935660  1
  O  O135  1  0.60667660  0.62870410  0.62971479  1
  O  O136  1  0.37682842  0.38352050  0.39047494  1
  O  O137  1  0.39961463  0.37806699  0.86611517  1
  O  O138  1  0.38720688  0.90193281  0.34429552  1
  O  O139  1  0.39333186  0.89841239  0.85607658  1
  O  O140  1  0.85609668  0.38322098  0.38460744  1
  O  O141  1  0.89440184  0.37480052  0.87495302  1
  O  O142  1  0.88184588  0.86803705  0.40260877  1
  O  O143  1  0.89998197  0.89688260  0.87931399  1
  O  O144  1  0.30436503  0.08875270  0.32979105  1
  O  O145  1  0.25683247  -0.00382504  0.86063568  1
  O  O146  1  0.25914190  0.49088786  0.36565789  1
  O  O147  1  0.26122038  0.51075295  0.88838614  1
  O  O148  1  0.77141574  0.01542397  0.38077209  1
  O  O149  1  0.78033180  -0.01332660  0.88264478  1
  O  O150  1  0.75107451  0.50603820  0.37497885  1
  O  O151  1  0.74211958  0.50433858  0.85720286  1
  O  O152  1  0.22858792  0.49699156  0.14358524  1
  O  O153  1  0.29862595  0.50428738  0.66687363  1
  O  O154  1  0.24028063  0.99169119  0.09603059  1
  O  O155  1  0.26295851  0.98868430  0.63057647  1
  O  O156  1  0.73622735  0.51559516  0.14858104  1
  O  O157  1  0.74682584  0.48710346  0.64326331  1
  O  O158  1  0.74921660  0.99401334  0.13976594  1
  O  O159  1  0.74170454  1.01472309  0.60106095  1
  O  O160  1  -0.04539996  0.33924645  0.23043801  1
  O  O161  1  0.00704913  0.36850280  0.75741194  1
  O  O162  1  -0.01933630  0.86002690  0.27049124  1
  O  O163  1  0.02206153  0.87554520  0.70422502  1
  O  O164  1  0.51009486  0.35197847  0.23837872  1
  O  O165  1  0.50918135  0.36815169  0.75116735  1
  O  O166  1  0.51944726  0.86837779  0.26709392  1
  O  O167  1  0.51908482  0.88573877  0.72735008  1
  O  O168  1  0.50315306  0.13194680  0.23430637  1
  O  O169  1  0.50745184  0.12806885  0.73331436  1
  O  O170  1  0.50113458  0.64864675  0.26809825  1
  O  O171  1  0.48576005  0.61507757  0.73097681  1
  O  O172  1  1.02623262  0.10426930  0.24212443  1
  O  O173  1  1.00834285  0.13944385  0.73669870  1
  O  O174  1  0.98610975  0.62175974  0.27347717  1
  O  O175  1  0.98376333  0.62326636  0.73222824  1
  O  O176  1  0.37150137  0.25395913  -0.01573818  1
  O  O177  1  0.37825945  0.26265048  0.50682570  1
  O  O178  1  0.36642007  0.76807999  -0.00856991  1
  O  O179  1  0.37998423  0.75091027  0.50399387  1
  O  O180  1  0.85628165  0.24922321  -0.00823847  1
  O  O181  1  0.79345099  0.21933266  0.44125925  1
  O  O182  1  0.86349952  0.73690168  -0.00573241  1
  O  O183  1  0.87577264  0.75165506  0.51423320  1
  O  O184  1  0.13958022  0.26045058  0.50042438  1
  O  O185  1  0.13814120  0.25599472  0.98359090  1
  O  O186  1  0.07440445  0.82823067  0.47006297  1
  O  O187  1  0.14030167  0.73920956  1.02785501  1
  O  O188  1  0.58428060  0.25492879  0.48344824  1
  O  O189  1  0.64029390  0.23436101  1.01418259  1
  O  O190  1  0.62413183  0.74786960  0.49771059  1
  O  O191  1  0.64803160  0.74545081  0.98701489  1
  O  O192  1  0.50363400  0.23264224  0.12685110  1
  O  O193  1  0.49242133  0.23827580  0.63040354  1
  O  O194  1  0.52085460  0.73934868  0.14395485  1
  O  O195  1  0.49123908  0.74259264  0.61439272  1
  O  O196  1  1.03716724  0.22257050  0.13486687  1
  O  O197  1  1.00247764  0.25435924  0.64220022  1
  O  O198  1  0.99680738  0.72555921  0.15468259  1
  O  O199  1  1.00463843  0.72564756  0.60922020  1
  O  O200  1  -0.01161634  0.25212966  0.37327034  1
  O  O201  1  0.01277037  0.25246693  0.86690411  1
  O  O202  1  -0.01224091  0.74966171  0.37352118  1
  O  O203  1  0.03612127  0.70994653  0.88826868  1
  O  O204  1  0.48469454  0.23347559  0.34544980  1
  O  O205  1  0.49368391  0.24160099  0.85544914  1
  O  O206  1  0.48433719  0.76888462  0.36820100  1
  O  O207  1  0.52890827  0.74988984  0.87610968  1
  O  O208  1  0.23283125  0.13896819  0.50742281  1
  O  O209  1  0.26253966  0.15044645  1.01944705  1
  O  O210  1  0.24157286  0.58740984  0.48870956  1
  O  O211  1  0.24455753  0.65834830  1.05284660  1
  O  O212  1  0.75151899  0.18062108  0.49431848  1
  O  O213  1  0.74248923  0.11434493  1.01235213  1
  O  O214  1  0.74665787  0.63091379  0.49494137  1
  O  O215  1  0.76816407  0.60112571  0.97625684  1
  O  O216  1  0.25118048  0.37872739  0.00553651  1
  O  O217  1  0.26494726  0.36850585  0.50622702  1
  O  O218  1  0.26725926  0.85502488  -0.01485898  1
  O  O219  1  0.25419705  0.88960761  0.50429576  1
  O  O220  1  0.73533765  0.36623232  0.00472402  1
  O  O221  1  0.73555504  0.36398519  0.52259936  1
  O  O222  1  0.76101113  0.85746044  0.01640425  1
  O  O223  1  0.75469196  0.85702048  0.49690367  1
  O  O224  1  0.12373819  0.48017996  0.27323285  1
  O  O225  1  0.12906218  0.48913402  0.76166708  1
  O  O226  1  0.16844275  0.99410461  0.24291052  1
  O  O227  1  0.13753411  0.99054058  0.74656182  1
  O  O228  1  0.63226863  0.49246134  0.25671094  1
  O  O229  1  0.62259538  0.49011575  0.74932864  1
  O  O230  1  0.63656072  1.00182962  0.24129449  1
  O  O231  1  0.57592708  0.92618546  0.75114260  1
  O  O232  1  0.37832060  -0.04760326  0.28277161  1
  O  O233  1  0.35804410  0.00473710  0.75209614  1
  O  O234  1  0.38903354  0.48704412  0.26727657  1
  O  O235  1  0.35664526  0.51487829  0.72119760  1
  O  O236  1  0.86871796  -0.01009385  0.26905780  1
  O  O237  1  0.87883224  -0.00482840  0.77138262  1
  O  O238  1  0.85934582  0.50157940  0.26876150  1
  O  O239  1  0.86649902  0.49048373  0.75063732  1
  O  O240  1  0.04915729  0.30225056  0.36495463  1
  O  O241  1  0.11261973  0.36703548  0.86606364  1
  O  O242  1  0.10442395  0.90309362  0.34995131  1
  O  O243  1  0.11539395  0.86859501  0.84648290  1
  O  O244  1  0.62371109  0.37142932  0.35617701  1
  O  O245  1  0.61176534  0.37305048  0.86004875  1
  O  O246  1  0.61033197  0.87639741  0.39749087  1
  O  O247  1  0.64720050  0.86396771  0.87959530  1
  O  O248  1  0.39701700  0.10710918  0.11804603  1
  O  O249  1  0.38376329  0.14017896  0.61754522  1
  O  O250  1  0.40094338  0.62211459  0.14259695  1
  O  O251  1  0.37948201  0.64485686  0.62722916  1
  O  O252  1  0.91231589  0.10446725  0.13718742  1
  O  O253  1  0.89190384  0.14664928  0.61920377  1
  O  O254  1  0.88962856  0.60304134  0.15548754  1
  O  O255  1  0.86655513  0.62361727  0.63802371  1
  O  O256  1  0.25152480  0.27439429  0.10849645  1
  O  O257  1  0.26611291  0.24728403  0.61552051  1
  O  O258  1  0.20118044  0.71964514  0.07832152  1
  O  O259  1  0.26422401  0.76163661  0.61330274  1
  O  O260  1  0.76003784  0.24357834  0.11479091  1
  O  O261  1  0.74511396  0.25088457  0.64325487  1
  O  O262  1  0.75351521  0.70964825  0.10402322  1
  O  O263  1  0.73718764  0.74573940  0.60848955  1
  O  O264  1  0.25873053  0.25363405  0.39418550  1
  O  O265  1  0.24642858  0.25584988  0.88503650  1
  O  O266  1  0.26952430  0.72168770  0.38464864  1
  O  O267  1  0.30518297  0.79531004  0.94899475  1
  O  O268  1  0.74990213  0.24121956  0.37712446  1
  O  O269  1  0.75896176  0.24328664  0.90106690  1
  O  O270  1  0.75413033  0.73526120  0.38926899  1
  O  O271  1  0.75221854  0.73521160  0.88828358  1
  O  O272  1  -0.00102480  0.13641022  0.00592637  1
  O  O273  1  0.00662354  0.12517488  0.50735100  1
  O  O274  1  -0.01065838  0.62524549  0.02770470  1
  O  O275  1  -0.00360977  0.60397999  0.51096429  1
  O  O276  1  0.51447120  0.11165015  0.01121708  1
  O  O277  1  0.49188704  0.11224912  0.50161648  1
  O  O278  1  0.49429526  0.64380343  0.01804999  1
  O  O279  1  0.49409642  0.61312857  0.50978799  1
  O  O280  1  0.49064419  0.39021060  0.51105700  1
  O  O281  1  0.51170964  0.36752004  0.98545982  1
  O  O282  1  0.48460977  0.89429382  0.48864632  1
  O  O283  1  0.51537132  0.88350636  1.00528762  1
  O  O284  1  0.98402441  0.38166492  0.52005979  1
  O  O285  1  1.00629909  0.36733183  0.99011961  1
  O  O286  1  0.96607314  0.89926140  0.51991106  1
  O  O287  1  0.95900298  0.85589056  1.05629426  1
  O  O288  1  0.49040336  0.50594037  0.39117753  1
  O  O289  1  0.50629630  0.49544341  0.88105163  1
  O  O290  1  0.50446434  0.99607525  0.38447601  1
  O  O291  1  0.52394637  0.99733976  0.88802033  1
  O  O292  1  0.97486942  0.49147751  0.39309811  1
  O  O293  1  1.00469803  0.49123531  0.88346903  1
  O  O294  1  0.98013268  0.98637425  0.39698366  1
  O  O295  1  0.98681026  1.01484960  0.87023445  1
  O  O296  1  0.02831844  0.00262684  0.11905718  1
  O  O297  1  -0.01616531  0.02147333  0.61577784  1
  O  O298  1  0.00786591  0.50012842  0.13500828  1
  O  O299  1  -0.00560275  0.50506210  0.61556142  1
  O  O300  1  0.51387823  -0.00035924  0.12471147  1
  O  O301  1  0.48722627  0.01187531  0.60230201  1
  O  O302  1  0.51108555  0.51195136  0.12628173  1
  O  O303  1  0.49391565  0.51277767  0.61368823  1
  O  O304  1  0.25235208  0.38403254  0.24035906  1
  O  O305  1  0.24114060  0.37485904  0.76336467  1
  O  O306  1  0.23957532  0.85186593  0.27013745  1
  O  O307  1  0.23943948  0.88315514  0.73547222  1
  O  O308  1  0.74173680  0.38829535  0.25171085  1
  O  O309  1  0.73891971  0.38044093  0.75600690  1
  O  O310  1  0.74556117  0.89611330  0.28571203  1
  O  O311  1  0.74292510  0.89742387  0.72083644  1
  O  O312  1  0.21988925  0.15921667  0.24432258  1
  O  O313  1  0.23628568  0.11146790  0.73073014  1
  O  O314  1  0.24961781  0.59751096  0.25590955  1
  O  O315  1  0.26556298  0.63594709  0.74938760  1
  O  O316  1  0.75315665  0.10427983  0.25093737  1
  O  O317  1  0.67774501  0.07914657  0.75200336  1
  O  O318  1  0.75772406  0.61731018  0.26764755  1
  O  O319  1  0.76147825  0.60948846  0.75072193  1
  O  O320  1  0.29926589  0.11623793  0.26145062  1
  O  O321  1  0.39016557  0.09820546  0.87341498  1
  O  O322  1  0.36245169  0.59991110  0.38320645  1
  O  O323  1  0.38575998  0.63659695  0.85356624  1
  O  O324  1  0.88958758  0.12567665  0.35463533  1
  O  O325  1  0.87441608  0.10651225  0.87264964  1
  O  O326  1  0.86296944  0.61127240  0.37572545  1
  O  O327  1  0.86467317  0.62305732  0.84984019  1
  O  O328  1  0.13227601  0.39068274  0.12074025  1
  O  O329  1  0.13044148  0.37470202  0.64582422  1
  O  O330  1  0.12302566  0.88256126  0.14923370  1
  O  O331  1  0.14843234  0.87220583  0.61788674  1
  O  O332  1  0.61907893  0.39384729  0.13998610  1
  O  O333  1  0.63504487  0.37042883  0.64617297  1
  O  O334  1  0.62773242  0.88560942  0.12640651  1
  O  O335  1  0.63570904  0.89093171  0.59914716  1
  O  O336  1  0.09532526  0.29087435  0.30667456  1
  O  O337  1  0.12271153  0.26139819  0.76296754  1
  O  O338  1  0.10245133  0.76380504  0.25827704  1
  O  O339  1  0.13226229  0.76114759  0.73545764  1
  O  O340  1  0.63807299  0.25968789  0.24327959  1
  O  O341  1  0.60830863  0.25276774  0.74882580  1
  O  O342  1  0.62621132  0.74867286  0.26314970  1
  O  O343  1  0.65637964  0.75564416  0.76889433  1
  O  O344  1  0.37701990  0.25771954  0.23703550  1
  O  O345  1  0.38549775  0.25466142  0.73544368  1
  O  O346  1  0.39185228  0.77617032  0.22701006  1
  O  O347  1  0.38054198  0.74671077  0.73435417  1
  O  O348  1  0.89547736  0.27904220  0.23195362  1
  O  O349  1  0.89310624  0.25396681  0.76460155  1
  O  O350  1  0.87638304  0.73032594  0.26000700  1
  O  O351  1  0.86060376  0.74698500  0.74369783  1
  O  O352  1  0.37773527  0.48623407  0.49787276  1
  O  O353  1  0.31250546  0.52816207  0.93779933  1
  O  O354  1  0.36718607  1.01183337  0.48099858  1
  O  O355  1  0.39671500  0.99132658  0.98264874  1
  O  O356  1  0.86714197  0.49709852  0.49651195  1
  O  O357  1  0.85967627  0.46881271  1.03439778  1
  O  O358  1  0.87948532  1.03305310  0.48992672  1
  O  O359  1  0.88635227  1.00323538  0.98056010  1
  O  O360  1  0.12129347  -0.04685958  -0.00033272  1
  O  O361  1  0.10560938  0.01170179  0.50019977  1
  O  O362  1  0.12543168  0.51046726  0.01319572  1
  O  O363  1  0.10116512  0.48062739  0.48406378  1
  O  O364  1  0.62589454  0.00233437  0.01532362  1
  O  O365  1  0.64972972  0.08690976  0.44151452  1
  O  O366  1  0.63425457  0.50047911  0.01724898  1
  O  O367  1  0.61100054  0.49416150  0.49738256  1
  O  O368  1  0.35721911  0.39956159  0.11988171  1
  O  O369  1  0.38240781  0.36293783  0.61705228  1
  O  O370  1  0.38120029  0.83046117  0.17019972  1
  O  O371  1  0.36823282  0.86406562  0.62696039  1
  O  O372  1  0.87006696  0.41293798  0.08236903  1
  O  O373  1  0.85392644  0.36680507  0.63302158  1
  O  O374  1  0.90954312  0.87959448  0.10475332  1
  O  O375  1  0.84820922  0.89043322  0.60938244  1
  O  O376  1  0.12042592  0.13144857  0.39701147  1
  O  O377  1  0.12636499  0.14023934  0.86963034  1
  O  O378  1  0.14549544  0.62166302  0.36344977  1
  O  O379  1  0.08925832  0.66151261  0.86869584  1
  O  O380  1  0.62602214  0.12704759  0.38431189  1
  O  O381  1  0.62498753  0.12223433  0.90162160  1
  O  O382  1  0.63897255  0.61980678  0.37589880  1
  O  O383  1  0.64527561  0.62979683  0.86518429  1
