# generated using pymatgen
data_VZnO4
_symmetry_space_group_name_H-M   'P 1'
_cell_length_a   16.88793199
_cell_length_b   16.93258985
_cell_length_c   16.92581674
_cell_angle_alpha   90.03865007
_cell_angle_beta   89.88519595
_cell_angle_gamma   89.74455024
_symmetry_Int_Tables_number   1
_chemical_formula_structural   VZnO4
_chemical_formula_sum   'V64 Zn64 O256'
_cell_volume   4839.98710725
_cell_formula_units_Z   64
loop_
 _symmetry_equiv_pos_site_id
 _symmetry_equiv_pos_as_xyz
  1  'x, y, z'
loop_
 _atom_site_type_symbol
 _atom_site_label
 _atom_site_symmetry_multiplicity
 _atom_site_fract_x
 _atom_site_fract_y
 _atom_site_fract_z
 _atom_site_occupancy
  V  V0  1  0.50664797  0.88425800  0.86444956  1
  V  V1  1  0.48729831  0.46444872  0.48297692  1
  V  V2  1  0.75243468  0.51598296  0.26019208  1
  V  V3  1  0.73552303  0.48737158  0.75854212  1
  V  V4  1  0.24944763  0.77702341  0.50179988  1
  V  V5  1  0.88326545  0.74975481  0.62244043  1
  V  V6  1  0.62287707  0.72774023  0.85586016  1
  V  V7  1  0.64098890  0.12860992  0.52933554  1
  V  V8  1  0.47485458  0.26818056  0.76675494  1
  V  V9  1  -0.00205465  0.84906296  0.88054154  1
  V  V10  1  0.13301276  0.37263361  0.25551450  1
  V  V11  1  0.10250590  0.25816924  0.88764671  1
  V  V12  1  0.88694466  0.01168820  0.88365145  1
  V  V13  1  0.74350416  0.72872674  0.49964648  1
  V  V14  1  0.49206180  0.75260618  0.73385965  1
  V  V15  1  0.74914576  0.38651778  0.12782524  1
  V  V16  1  0.00937879  -0.00162430  0.51764477  1
  V  V17  1  0.62753133  0.48695116  0.60463426  1
  V  V18  1  0.14523199  -0.00883598  0.12544685  1
  V  V19  1  -0.00817237  0.10807864  0.12929582  1
  V  V20  1  0.13116045  0.52121538  0.63845428  1
  V  V21  1  0.85575080  0.62074702  0.74948901  1
  V  V22  1  0.75088369  0.24354869  0.00246005  1
  V  V23  1  0.01227575  0.24556724  0.24789629  1
  V  V24  1  0.36885083  0.24880527  0.62082466  1
  V  V25  1  0.24790446  0.39671277  0.12511314  1
  V  V26  1  0.25597740  -0.01171506  0.75376354  1
  V  V27  1  0.00754714  0.50911072  0.49271585  1
  V  V28  1  0.76394216  -0.01394319  0.74933723  1
  V  V29  1  0.63222574  0.87671601  0.24006840  1
  V  V30  1  0.49793050  0.12524421  0.64100371  1
  V  V31  1  -0.00392793  0.35522956  0.39590560  1
  V  V32  1  0.61368003  0.36284041  0.25590103  1
  V  V33  1  0.15631845  0.62639431  0.46397988  1
  V  V34  1  0.41064417  0.87916143  0.48208952  1
  V  V35  1  0.37675823  0.23817806  0.12076422  1
  V  V36  1  0.36171630  0.61181744  0.75832446  1
  V  V37  1  0.00051296  0.87333171  0.38087075  1
  V  V38  1  0.48571539  0.61587348  0.61059263  1
  V  V39  1  -0.01640838  0.14355323  0.63175962  1
  V  V40  1  0.51364770  0.00620699  -0.00464374  1
  V  V41  1  0.62554894  0.25797777  0.87344003  1
  V  V42  1  0.11814567  0.87406926  0.75039517  1
  V  V43  1  0.51876382  0.12976763  0.12533898  1
  V  V44  1  0.49509423  0.64373250  0.11698254  1
  V  V45  1  0.87887766  0.25180633  0.13747341  1
  V  V46  1  0.73248618  0.74272762  -0.01168232  1
  V  V47  1  0.11364166  0.10950886  -0.00945110  1
  V  V48  1  0.24151613  0.35968806  0.62810455  1
  V  V49  1  0.11296000  0.36937147  0.75742847  1
  V  V50  1  0.61111943  0.50638685  0.11698280  1
  V  V51  1  0.10282720  0.51398168  0.13223283  1
  V  V52  1  0.37791895  0.64453861  0.25958630  1
  V  V53  1  0.76235868  0.13933725  0.34882388  1
  V  V54  1  0.26115515  0.11522338  0.36562576  1
  V  V55  1  0.87145149  0.74742212  0.11069412  1
  V  V56  1  0.27574551  0.21557251  -0.02040691  1
  V  V57  1  0.89199820  0.38981336  0.00108677  1
  V  V58  1  -0.01724011  0.74447401  0.25905090  1
  V  V59  1  0.36985501  0.87026949  0.00315690  1
  V  V60  1  0.37358154  0.40544611  -0.00533154  1
  V  V61  1  0.87751284  0.01140640  0.37819116  1
  V  V62  1  0.13263683  0.86770881  0.25186843  1
  V  V63  1  0.35299485  0.47730440  0.36375040  1
  Zn  Zn64  1  0.18961199  0.18230068  0.16981467  1
  Zn  Zn65  1  0.16028016  0.18301754  0.69561936  1
  Zn  Zn66  1  0.17076419  0.66688398  0.25416962  1
  Zn  Zn67  1  0.20151702  0.70994829  0.67847917  1
  Zn  Zn68  1  0.69247573  0.18706916  0.18164135  1
  Zn  Zn69  1  0.68912968  0.19523737  0.70496523  1
  Zn  Zn70  1  0.68799683  0.68709189  0.17656204  1
  Zn  Zn71  1  0.68002484  0.67590910  0.67238545  1
  Zn  Zn72  1  0.39628325  0.27487231  0.33127579  1
  Zn  Zn73  1  0.29695446  0.33223307  0.82070498  1
  Zn  Zn74  1  0.31460468  0.81526891  0.32551204  1
  Zn  Zn75  1  0.32692607  0.82484536  0.80409396  1
  Zn  Zn76  1  0.78787428  0.34993511  0.35551199  1
  Zn  Zn77  1  0.77781066  0.36844224  0.85353114  1
  Zn  Zn78  1  0.81563177  0.82049449  0.34065310  1
  Zn  Zn79  1  0.80800320  0.81097667  0.80630601  1
  Zn  Zn80  1  0.17444691  0.42337463  0.44651869  1
  Zn  Zn81  1  0.16493836  0.43898791  0.95627813  1
  Zn  Zn82  1  0.17147344  0.94537042  0.44253597  1
  Zn  Zn83  1  0.18335818  0.93568781  0.92657699  1
  Zn  Zn84  1  0.67182634  0.44922541  0.43463631  1
  Zn  Zn85  1  0.60968745  0.46161286  0.91427160  1
  Zn  Zn86  1  0.65520607  1.00311283  0.39808613  1
  Zn  Zn87  1  0.69651558  0.92785483  0.92548873  1
  Zn  Zn88  1  0.32436271  0.05680138  0.03676310  1
  Zn  Zn89  1  0.33229603  0.06220416  0.56311024  1
  Zn  Zn90  1  0.30763267  0.58108818  0.08576215  1
  Zn  Zn91  1  0.31095048  0.54187924  0.56354060  1
  Zn  Zn92  1  0.81079802  0.05617271  0.05208786  1
  Zn  Zn93  1  0.82507381  0.05782075  0.56867439  1
  Zn  Zn94  1  0.81609021  0.57506081  0.06214846  1
  Zn  Zn95  1  0.82580429  0.55445840  0.56729299  1
  Zn  Zn96  1  0.43096371  0.43375407  0.18696977  1
  Zn  Zn97  1  0.43020082  0.43773002  0.68625507  1
  Zn  Zn98  1  0.44962089  0.93520683  0.16667709  1
  Zn  Zn99  1  0.43684663  0.93544367  0.67849571  1
  Zn  Zn100  1  0.93353389  0.43570400  0.20388276  1
  Zn  Zn101  1  0.95420410  0.47668698  0.70433540  1
  Zn  Zn102  1  0.88198420  0.94949824  0.17801488  1
  Zn  Zn103  1  0.93368173  0.92622543  0.69408776  1
  Zn  Zn104  1  0.06653947  0.05569091  0.31137254  1
  Zn  Zn105  1  0.05565855  0.04982463  0.79804086  1
  Zn  Zn106  1  0.05332068  0.55161861  0.31088758  1
  Zn  Zn107  1  0.06306932  0.57970050  0.79786854  1
  Zn  Zn108  1  0.56881884  0.18394488  0.31829844  1
  Zn  Zn109  1  0.56066492  0.08578404  0.82617615  1
  Zn  Zn110  1  0.54259642  0.53742369  0.29267602  1
  Zn  Zn111  1  0.55491659  0.56127520  0.78504118  1
  Zn  Zn112  1  0.50394947  0.25013492  0.48343899  1
  Zn  Zn113  1  0.45007003  0.20613163  0.95627807  1
  Zn  Zn114  1  0.36899423  0.66956822  0.44865827  1
  Zn  Zn115  1  0.43742923  0.68721922  0.93194753  1
  Zn  Zn116  1  0.94733495  0.18580723  0.44350766  1
  Zn  Zn117  1  0.92914554  0.18923168  0.94939966  1
  Zn  Zn118  1  0.93994987  0.68904822  0.44813528  1
  Zn  Zn119  1  0.92098950  0.69219789  0.91821070  1
  Zn  Zn120  1  0.06684451  0.31258445  0.06817693  1
  Zn  Zn121  1  0.03970489  0.32355130  0.57168903  1
  Zn  Zn122  1  0.05154193  0.81117012  0.07676292  1
  Zn  Zn123  1  0.06896311  0.80001245  0.56604767  1
  Zn  Zn124  1  0.56460071  0.32517067  0.04345294  1
  Zn  Zn125  1  0.70018025  0.30576769  0.53007510  1
  Zn  Zn126  1  0.56105631  0.80873099  0.04343645  1
  Zn  Zn127  1  0.54035269  0.75083624  0.51453009  1
  O  O128  1  0.11329973  0.10385147  0.12026059  1
  O  O129  1  0.14219348  0.17275764  0.56387197  1
  O  O130  1  0.12424161  0.60771176  0.16368248  1
  O  O131  1  0.13072935  0.61952192  0.64902233  1
  O  O132  1  0.61887398  0.12884816  0.11705355  1
  O  O133  1  0.62036250  0.13544990  0.63426357  1
  O  O134  1  0.60969360  0.61350073  0.13129578  1
  O  O135  1  0.59280478  0.61018059  0.62342880  1
  O  O136  1  0.37033522  0.37777487  0.36486802  1
  O  O137  1  0.35130433  0.39508196  0.89628547  1
  O  O138  1  0.37279597  0.89107241  0.38665380  1
  O  O139  1  0.39946136  0.87075556  0.87741055  1
  O  O140  1  0.90412134  0.37270873  0.36159380  1
  O  O141  1  0.87819180  0.38146100  0.90069420  1
  O  O142  1  0.89441724  0.89313900  0.38550399  1
  O  O143  1  0.89478565  0.85785161  0.86831095  1
  O  O144  1  0.23696194  0.01077161  0.37076231  1
  O  O145  1  0.23042116  0.01237526  0.84887514  1
  O  O146  1  0.25338824  0.48102258  0.38320834  1
  O  O147  1  0.20380134  0.53485507  0.88088201  1
  O  O148  1  0.77128298  0.01363850  0.38253042  1
  O  O149  1  0.77618615  -0.00953016  0.87126346  1
  O  O150  1  0.73223613  0.50588612  0.35828871  1
  O  O151  1  0.71958191  0.48092223  0.86003382  1
  O  O152  1  0.24203854  0.49581920  0.13790282  1
  O  O153  1  0.23055530  0.48218635  0.62284024  1
  O  O154  1  0.24284479  1.00082057  0.11818640  1
  O  O155  1  0.24258982  1.03435877  0.63936243  1
  O  O156  1  0.74425553  0.49324920  0.13213919  1
  O  O157  1  0.72333434  0.51434096  0.58524421  1
  O  O158  1  0.78619201  0.99903457  0.14080648  1
  O  O159  1  0.76469320  1.00277952  0.64855047  1
  O  O160  1  0.01346706  0.35865341  0.25233612  1
  O  O161  1  0.01297388  0.38733529  0.75043038  1
  O  O162  1  0.00347895  0.86389288  0.27078550  1
  O  O163  1  0.01297764  0.86674675  0.75623743  1
  O  O164  1  0.51418672  0.37116791  0.23619190  1
  O  O165  1  0.49306513  0.36676172  0.75100949  1
  O  O166  1  0.52821547  0.87677309  0.23692984  1
  O  O167  1  0.49720438  0.86274279  0.75060213  1
  O  O168  1  0.50759712  0.13852931  0.22317703  1
  O  O169  1  0.51044928  0.15601425  0.74927189  1
  O  O170  1  0.48765120  0.61745431  0.23538228  1
  O  O171  1  0.48155052  0.63227219  0.73188546  1
  O  O172  1  1.01293428  0.13366999  0.23693349  1
  O  O173  1  1.05696450  0.11909096  0.70718327  1
  O  O174  1  1.00073785  0.64701288  0.28049220  1
  O  O175  1  0.96654742  0.58631644  0.74765355  1
  O  O176  1  0.36442378  0.27815540  0.00533637  1
  O  O177  1  0.37687794  0.25347951  0.52414200  1
  O  O178  1  0.38169456  0.76844172  -0.00882826  1
  O  O179  1  0.36649575  0.77870994  0.49060615  1
  O  O180  1  0.87266605  0.26526998  0.01559425  1
  O  O181  1  0.96371220  0.29503470  0.47803400  1
  O  O182  1  0.89452052  0.74760918  0.01253725  1
  O  O183  1  0.86254634  0.73948626  0.51473119  1
  O  O184  1  0.13116771  0.23028345  0.51861437  1
  O  O185  1  0.12253229  0.23775514  0.99393748  1
  O  O186  1  0.13943641  0.72503341  0.50295719  1
  O  O187  1  0.12458440  0.72373279  1.02485312  1
  O  O188  1  0.62287688  0.22902375  0.49307087  1
  O  O189  1  0.65410498  0.24613190  1.02861329  1
  O  O190  1  0.64414179  0.70755724  0.49906859  1
  O  O191  1  0.62671327  0.73949147  0.97955752  1
  O  O192  1  0.48911940  0.23519046  0.08787070  1
  O  O193  1  0.47269059  0.25450803  0.65037106  1
  O  O194  1  0.51257704  0.74278403  0.12199990  1
  O  O195  1  0.50365857  0.74175823  0.63112368  1
  O  O196  1  0.99418861  0.24479645  0.13040289  1
  O  O197  1  0.99078946  0.24369559  0.63293864  1
  O  O198  1  0.98356826  0.75053440  0.14985736  1
  O  O199  1  0.98376451  0.74062846  0.61292397  1
  O  O200  1  0.01142939  0.24373664  0.35268997  1
  O  O201  1  0.00434478  0.25470808  0.88683375  1
  O  O202  1  -0.00132434  0.76856405  0.38478131  1
  O  O203  1  0.00849381  0.74640550  0.86816780  1
  O  O204  1  0.47984415  0.21836480  0.37691113  1
  O  O205  1  0.50489806  0.25607574  0.87003368  1
  O  O206  1  0.55205057  0.69586915  0.36952690  1
  O  O207  1  0.50881471  0.75160502  0.85654216  1
  O  O208  1  0.27697634  0.11397318  0.46796084  1
  O  O209  1  0.22025250  0.12159988  1.00723775  1
  O  O210  1  0.25804020  0.61861954  0.48849395  1
  O  O211  1  0.23091903  0.64660844  1.02018390  1
  O  O212  1  0.74302663  0.12552752  0.51949734  1
  O  O213  1  0.77025370  0.14509474  0.99913447  1
  O  O214  1  0.77990061  0.62609265  0.45527310  1
  O  O215  1  0.77150715  0.64612229  0.98324739  1
  O  O216  1  0.24505392  0.38193852  0.01893429  1
  O  O217  1  0.22768961  0.36078444  0.52853795  1
  O  O218  1  0.27024919  0.88684246  -0.01867642  1
  O  O219  1  0.22314408  0.87417903  0.51113224  1
  O  O220  1  0.76316366  0.36814183  0.02526257  1
  O  O221  1  0.75401294  0.37633413  0.46260165  1
  O  O222  1  0.75750463  0.84247350  -0.02253986  1
  O  O223  1  0.67950032  0.89995760  0.57710485  1
  O  O224  1  0.11984740  0.47696644  0.24858468  1
  O  O225  1  0.12074631  0.49154038  0.74032597  1
  O  O226  1  0.12263719  0.98953738  0.23211464  1
  O  O227  1  0.12823045  0.97322616  0.72938637  1
  O  O228  1  0.63065231  0.48621386  0.23567036  1
  O  O229  1  0.63342174  0.49793783  0.71795007  1
  O  O230  1  0.64417315  0.97656335  0.21607036  1
  O  O231  1  0.66294403  1.04427337  0.77059026  1
  O  O232  1  0.42428592  0.00350068  0.26501522  1
  O  O233  1  0.35614184  -0.01673010  0.74844765  1
  O  O234  1  0.36962203  0.49581268  0.26075071  1
  O  O235  1  0.36746839  0.51096530  0.74898989  1
  O  O236  1  0.89264907  0.00376779  0.27855732  1
  O  O237  1  0.87112885  -0.00725373  0.76331924  1
  O  O238  1  0.85296288  0.49837613  0.25273288  1
  O  O239  1  0.84327178  0.50329327  0.72950683  1
  O  O240  1  0.12209789  0.35927547  0.35873353  1
  O  O241  1  0.12047955  0.36758339  0.87599349  1
  O  O242  1  0.11405090  0.89174506  0.35885998  1
  O  O243  1  0.11967487  0.86563399  0.85771376  1
  O  O244  1  0.61985596  0.37533961  0.35447335  1
  O  O245  1  0.61022194  0.34762680  0.92915691  1
  O  O246  1  0.62112993  0.90158763  0.34203181  1
  O  O247  1  0.60901677  0.86061461  0.87126017  1
  O  O248  1  0.38179845  0.13434429  0.11241800  1
  O  O249  1  0.38312595  0.13753461  0.63475790  1
  O  O250  1  0.38766791  0.63838568  0.13982491  1
  O  O251  1  0.38028231  0.60890991  0.63104631  1
  O  O252  1  0.88815530  0.14034100  0.12042550  1
  O  O253  1  0.88793630  0.12226896  0.64997215  1
  O  O254  1  0.86033511  0.64906639  0.13910965  1
  O  O255  1  0.86922324  0.63221049  0.63410082  1
  O  O256  1  0.26360971  0.23651859  0.10013488  1
  O  O257  1  0.25532158  0.25066775  0.64553960  1
  O  O258  1  0.19531956  0.70829687  0.05456015  1
  O  O259  1  0.26901253  0.74041648  0.59464978  1
  O  O260  1  0.76863499  0.25636176  0.12707729  1
  O  O261  1  0.75557004  0.25082431  0.62454487  1
  O  O262  1  0.74859667  0.74522928  0.09805850  1
  O  O263  1  0.74841855  0.74137997  0.60594711  1
  O  O264  1  0.28775817  0.21524807  0.36880782  1
  O  O265  1  0.23651762  0.25524412  0.89399057  1
  O  O266  1  0.25394025  0.74864684  0.39880747  1
  O  O267  1  0.25721778  0.74713409  0.89135247  1
  O  O268  1  0.76440777  0.23684821  0.36818914  1
  O  O269  1  0.74092803  0.26724049  0.89595020  1
  O  O270  1  0.74880894  0.80118996  0.42848559  1
  O  O271  1  0.72723978  0.74571618  0.86523192  1
  O  O272  1  0.00841740  0.12669162  0.01874120  1
  O  O273  1  -0.00326658  0.11903692  0.52628301  1
  O  O274  1  -0.00989382  0.58505210  -0.03520385  1
  O  O275  1  0.02157776  0.61320829  0.47482653  1
  O  O276  1  0.50463923  0.10848540  -0.01185226  1
  O  O277  1  0.50716872  0.14332470  0.53934140  1
  O  O278  1  0.48742229  0.62682652  0.01756197  1
  O  O279  1  0.47385581  0.64829077  0.51168131  1
  O  O280  1  0.49522831  0.36702231  0.49461484  1
  O  O281  1  0.47311280  0.38874503  1.00935993  1
  O  O282  1  0.50901062  0.85330164  0.47833056  1
  O  O283  1  0.49851923  0.88265599  0.98463105  1
  O  O284  1  1.05587151  0.40054762  0.48909373  1
  O  O285  1  0.99236351  0.37812414  1.01303846  1
  O  O286  1  1.02385500  0.88437023  0.49309763  1
  O  O287  1  1.01797230  0.85986043  0.98001510  1
  O  O288  1  0.49140458  0.48693017  0.38146141  1
  O  O289  1  0.51797835  0.48629413  0.85707274  1
  O  O290  1  0.46500883  1.01579390  0.32396217  1
  O  O291  1  0.51127384  0.98961411  0.86805644  1
  O  O292  1  1.00816411  0.47971298  0.38736513  1
  O  O293  1  1.00333234  0.53218618  0.91480810  1
  O  O294  1  1.00112953  1.00161679  0.39021323  1
  O  O295  1  0.99272982  0.98217283  0.86468246  1
  O  O296  1  -0.02057733  0.01016835  0.13346547  1
  O  O297  1  -0.00574042  -0.01095197  0.61773978  1
  O  O298  1  0.00319569  0.50374876  0.14503224  1
  O  O299  1  0.02935908  0.49287084  0.60897265  1
  O  O300  1  0.50303829  0.01741424  0.10748435  1
  O  O301  1  0.50108733  0.02642625  0.65443373  1
  O  O302  1  0.51034484  0.49728141  0.12577977  1
  O  O303  1  0.49326993  0.50029169  0.60372926  1
  O  O304  1  0.23483778  0.35911637  0.23040561  1
  O  O305  1  0.22518017  0.37877889  0.74616682  1
  O  O306  1  0.23210165  0.86192871  0.25768823  1
  O  O307  1  0.23982248  0.87789446  0.75491742  1
  O  O308  1  0.74205988  0.37905614  0.24147661  1
  O  O309  1  0.74904571  0.38768781  0.74183512  1
  O  O310  1  0.73628753  0.86833355  0.25834789  1
  O  O311  1  0.73824446  0.88829061  0.75564592  1
  O  O312  1  0.24452842  0.12714213  0.26040255  1
  O  O313  1  0.23835936  0.09088923  0.70274923  1
  O  O314  1  0.27726596  0.63997661  0.23733766  1
  O  O315  1  0.26414182  0.64350082  0.74593167  1
  O  O316  1  0.76867771  0.13209914  0.24944390  1
  O  O317  1  0.72419937  0.10166265  0.77287174  1
  O  O318  1  0.73705295  0.61501736  0.24564761  1
  O  O319  1  0.74578006  0.60558441  0.73975181  1
  O  O320  1  0.35292386  0.07731053  0.33905277  1
  O  O321  1  0.34451466  0.14811985  0.94456545  1
  O  O322  1  0.37917706  0.60209040  0.36012412  1
  O  O323  1  0.37746618  0.62739252  0.85766588  1
  O  O324  1  0.87260769  0.12291213  0.38553819  1
  O  O325  1  0.89548505  0.11232457  0.87363212  1
  O  O326  1  0.83738510  0.63390969  0.40124074  1
  O  O327  1  0.86055127  0.62727493  0.85115886  1
  O  O328  1  0.13122145  0.38642785  0.13066268  1
  O  O329  1  0.12593172  0.35321393  0.64785427  1
  O  O330  1  0.12087876  0.88462397  0.13426899  1
  O  O331  1  0.12967135  0.80290106  0.67110871  1
  O  O332  1  0.63796876  0.38004818  0.12719896  1
  O  O333  1  0.63242960  0.38784387  0.60019699  1
  O  O334  1  0.63690210  0.86198716  0.13617678  1
  O  O335  1  0.62191834  0.90095658  0.62039491  1
  O  O336  1  0.11772516  0.25601311  0.22559098  1
  O  O337  1  0.12320185  0.25785930  0.77720186  1
  O  O338  1  0.10887750  0.76405978  0.24884297  1
  O  O339  1  0.19137973  0.72448510  0.86951519  1
  O  O340  1  0.62786758  0.25779048  0.24646512  1
  O  O341  1  0.63242998  0.27037940  0.77255086  1
  O  O342  1  0.63517730  0.77092902  0.25146704  1
  O  O343  1  0.61046156  0.73811776  0.74836630  1
  O  O344  1  0.38239916  0.25612413  0.21818390  1
  O  O345  1  0.37389750  0.25896369  0.77252571  1
  O  O346  1  0.39055956  0.74237151  0.27960025  1
  O  O347  1  0.38825680  0.74619142  0.74596157  1
  O  O348  1  0.89566045  0.25249209  0.23817456  1
  O  O349  1  0.82706888  0.29415560  0.65503950  1
  O  O350  1  0.88246911  0.75241674  0.27850627  1
  O  O351  1  0.85789573  0.73060207  0.73597266  1
  O  O352  1  0.38218311  0.49281803  0.48454687  1
  O  O353  1  0.35604373  0.50357456  1.01556903  1
  O  O354  1  0.39482202  0.98659618  0.50721458  1
  O  O355  1  0.39920864  0.98509687  0.99087538  1
  O  O356  1  0.90969571  0.49933730  0.51323179  1
  O  O357  1  0.87343558  0.48739685  1.02138247  1
  O  O358  1  0.89560862  1.00492482  0.49347385  1
  O  O359  1  0.88209373  0.99723232  0.98411550  1
  O  O360  1  0.12192869  0.00337412  0.00766400  1
  O  O361  1  0.11007593  0.01433554  0.50824347  1
  O  O362  1  0.11990166  0.51085894  0.03094925  1
  O  O363  1  0.13414876  0.53012711  0.50827510  1
  O  O364  1  0.61386176  -0.01324944  -0.01208413  1
  O  O365  1  0.61068957  0.03667448  0.49485746  1
  O  O366  1  0.63131174  0.49908073  0.01952771  1
  O  O367  1  0.59189029  0.50304329  0.49661626  1
  O  O368  1  0.35619104  0.37400599  0.11992966  1
  O  O369  1  0.35030084  0.36435086  0.63846706  1
  O  O370  1  0.37772831  0.87924960  0.10676362  1
  O  O371  1  0.38257167  0.89212464  0.58973154  1
  O  O372  1  0.86978117  0.36660229  0.13066177  1
  O  O373  1  0.85080796  0.34553443  0.60798987  1
  O  O374  1  0.86214519  0.84458235  0.14839228  1
  O  O375  1  0.87140182  0.84983617  0.63734245  1
  O  O376  1  0.15392890  0.12508617  0.36856476  1
  O  O377  1  0.10496762  0.12845845  0.88850972  1
  O  O378  1  0.14434415  0.61783284  0.36325722  1
  O  O379  1  0.15041318  0.58944372  0.87810688  1
  O  O380  1  0.65465736  0.11628240  0.35965172  1
  O  O381  1  0.62162262  0.15883450  0.89287979  1
  O  O382  1  0.60252960  0.64400152  0.35857088  1
  O  O383  1  0.61523780  0.62903928  0.86259928  1
