# generated using pymatgen
data_VZnO4
_symmetry_space_group_name_H-M   'P 1'
_cell_length_a   16.87477458
_cell_length_b   16.97252739
_cell_length_c   16.88347965
_cell_angle_alpha   89.98986976
_cell_angle_beta   89.84320953
_cell_angle_gamma   89.84474568
_symmetry_Int_Tables_number   1
_chemical_formula_structural   VZnO4
_chemical_formula_sum   'V64 Zn64 O256'
_cell_volume   4835.52051695
_cell_formula_units_Z   64
loop_
 _symmetry_equiv_pos_site_id
 _symmetry_equiv_pos_as_xyz
  1  'x, y, z'
loop_
 _atom_site_type_symbol
 _atom_site_label
 _atom_site_symmetry_multiplicity
 _atom_site_fract_x
 _atom_site_fract_y
 _atom_site_fract_z
 _atom_site_occupancy
  V  V0  1  0.12400127  0.25361120  0.36447548  1
  V  V1  1  0.25256654  0.11370962  0.86515471  1
  V  V2  1  0.24371317  0.49459995  0.25660611  1
  V  V3  1  0.37592634  0.62194772  0.26073536  1
  V  V4  1  0.39547215  0.62218701  0.74668897  1
  V  V5  1  0.00465371  0.85193428  0.35596338  1
  V  V6  1  0.89725127  0.87664223  0.50351637  1
  V  V7  1  0.37596807  0.24860531  0.13905510  1
  V  V8  1  0.62124038  0.63441283  0.52493475  1
  V  V9  1  0.86361146  0.36524626  0.51069830  1
  V  V10  1  0.46947663  -0.01883883  0.00201331  1
  V  V11  1  0.76451950  0.60513764  0.89008719  1
  V  V12  1  0.38800115  0.26443633  0.62949182  1
  V  V13  1  0.50445794  0.76246491  0.25850916  1
  V  V14  1  0.88846526  0.00277238  0.35538629  1
  V  V15  1  0.14936645  -0.00271450  0.11254221  1
  V  V16  1  0.73610408  0.50613094  0.24004400  1
  V  V17  1  0.37890010  0.36775185  -0.00161578  1
  V  V18  1  0.14973240  0.87480800  0.24960723  1
  V  V19  1  0.24431922  0.73363763  0.50942410  1
  V  V20  1  0.74014718  0.64912861  0.38018239  1
  V  V21  1  0.00675012  0.75857653  0.76863634  1
  V  V22  1  0.23291800  0.51064107  0.75618970  1
  V  V23  1  0.49862491  0.11651265  0.11872873  1
  V  V24  1  0.24906064  0.11933591  0.37629252  1
  V  V25  1  0.89748231  0.75496347  0.12792800  1
  V  V26  1  0.86734565  0.10231925  0.73979693  1
  V  V27  1  0.37881871  0.50754705  0.88265397  1
  V  V28  1  0.75669296  0.13422200  0.36158512  1
  V  V29  1  0.23944429  0.37112109  0.11989292  1
  V  V30  1  0.13146981  0.26319956  0.87645834  1
  V  V31  1  0.60793763  0.25268256  0.36370483  1
  V  V32  1  0.76156940  0.49552392  0.73991846  1
  V  V33  1  0.74825694  0.10315238  0.87768660  1
  V  V34  1  0.73359844  -0.00827443  0.23952848  1
  V  V35  1  0.36432324  0.75428334  0.11806983  1
  V  V36  1  0.50262760  0.00622353  0.47934020  1
  V  V37  1  -0.00217817  0.25800440  0.73312073  1
  V  V38  1  0.71472973  0.35181900  0.13382424  1
  V  V39  1  0.64470996  0.24977619  0.88709258  1
  V  V40  1  0.01231818  0.90403155  0.88331054  1
  V  V41  1  0.24803260  0.26789490  0.50370247  1
  V  V42  1  0.23432554  0.38781157  0.63395447  1
  V  V43  1  0.39196437  0.11237584  0.73341268  1
  V  V44  1  0.61601118  0.59961073  0.00319123  1
  V  V45  1  0.50021692  0.36141508  0.86861270  1
  V  V46  1  -0.00745337  0.64382213  0.63827563  1
  V  V47  1  0.01592334  0.12659360  0.13590531  1
  V  V48  1  0.13953942  0.00161060  0.61226756  1
  V  V49  1  0.62975740  0.12863426  0.51001395  1
  V  V50  1  0.73143684  0.74742587  0.01322504  1
  V  V51  1  0.23411732  0.62483799  0.37982475  1
  V  V52  1  0.63106612  0.37668623  0.74011698  1
  V  V53  1  0.00696092  0.51257071  0.50784262  1
  V  V54  1  0.38694280  0.74483246  0.62545616  1
  V  V55  1  0.87719844  0.87939106  -0.00193803  1
  V  V56  1  0.00089884  0.37544172  0.36756253  1
  V  V57  1  -0.00215235  0.47408348  -0.00152982  1
  V  V58  1  0.12131148  0.51727986  0.12133107  1
  V  V59  1  0.37115435  0.10651193  0.25727290  1
  V  V60  1  0.88440702  0.63187476  0.24664133  1
  V  V61  1  0.50271593  0.61150141  0.12666191  1
  V  V62  1  0.50815660  0.49561987  0.49318490  1
  V  V63  1  0.86466492  0.50107079  0.37966595  1
  Zn  Zn64  1  0.18694581  0.18694641  0.18589308  1
  Zn  Zn65  1  0.19538683  0.19895128  0.70019139  1
  Zn  Zn66  1  0.18602927  0.69016451  0.18875918  1
  Zn  Zn67  1  0.17572758  0.68025449  0.68776824  1
  Zn  Zn68  1  0.67754211  0.17744359  0.18611858  1
  Zn  Zn69  1  0.68313692  0.18574314  0.69994912  1
  Zn  Zn70  1  0.68390427  0.68880485  0.19212342  1
  Zn  Zn71  1  0.70296596  0.67513952  0.70241802  1
  Zn  Zn72  1  0.30915338  0.31340111  0.31052816  1
  Zn  Zn73  1  0.31024848  0.31450226  0.80587776  1
  Zn  Zn74  1  0.31882505  0.80352486  0.32283155  1
  Zn  Zn75  1  0.32981476  0.83757881  0.76630486  1
  Zn  Zn76  1  0.76732440  0.34488558  0.33652619  1
  Zn  Zn77  1  0.81376579  0.30118503  0.68874647  1
  Zn  Zn78  1  0.81549712  0.82285320  0.30440799  1
  Zn  Zn79  1  0.82296633  0.78003527  0.83201510  1
  Zn  Zn80  1  0.18383857  0.43725682  0.44137377  1
  Zn  Zn81  1  0.18900395  0.44612966  0.93811150  1
  Zn  Zn82  1  0.18418909  0.93154937  0.42878762  1
  Zn  Zn83  1  0.21275081  0.93108145  0.91622832  1
  Zn  Zn84  1  0.66359755  0.42758963  0.45956350  1
  Zn  Zn85  1  0.68652737  0.42583633  0.95397478  1
  Zn  Zn86  1  0.72322687  0.98356085  0.45784748  1
  Zn  Zn87  1  0.70617402  0.93390452  0.94883841  1
  Zn  Zn88  1  0.30463212  0.06142492  0.05071742  1
  Zn  Zn89  1  0.32182517  0.08727196  0.55027172  1
  Zn  Zn90  1  0.31244463  0.56094271  0.06976048  1
  Zn  Zn91  1  0.31955977  0.55812057  0.56698757  1
  Zn  Zn92  1  0.81278178  0.07156172  0.06218580  1
  Zn  Zn93  1  0.84979318  0.08121240  0.53503477  1
  Zn  Zn94  1  0.81763709  0.56422262  0.06497709  1
  Zn  Zn95  1  0.81299807  0.57398514  0.55954474  1
  Zn  Zn96  1  0.42915057  0.43899282  0.18983526  1
  Zn  Zn97  1  0.43367959  0.43735374  0.68602288  1
  Zn  Zn98  1  0.42705133  0.93389415  0.18638140  1
  Zn  Zn99  1  0.41829398  0.94157922  0.61878027  1
  Zn  Zn100  1  0.93684849  0.44929935  0.19052814  1
  Zn  Zn101  1  0.94081278  0.43818363  0.68789720  1
  Zn  Zn102  1  0.95494512  0.94573916  0.17668770  1
  Zn  Zn103  1  0.90062515  0.89547373  0.71790101  1
  Zn  Zn104  1  0.07248129  0.06121263  0.30134679  1
  Zn  Zn105  1  0.03794218  0.10611549  0.84322974  1
  Zn  Zn106  1  0.06043491  0.55772258  0.31450544  1
  Zn  Zn107  1  0.03524571  0.55782653  0.81372637  1
  Zn  Zn108  1  0.56177159  0.06827288  0.31099736  1
  Zn  Zn109  1  0.53700657  0.09055293  0.84164247  1
  Zn  Zn110  1  0.56262690  0.56915541  0.32074499  1
  Zn  Zn111  1  0.56731394  0.55206207  0.82005826  1
  Zn  Zn112  1  0.43581654  0.19256453  0.44580293  1
  Zn  Zn113  1  0.40170464  0.17405989  0.94268583  1
  Zn  Zn114  1  0.43990085  0.68049193  0.44241897  1
  Zn  Zn115  1  0.32681479  0.68167750  0.94837255  1
  Zn  Zn116  1  0.94139201  0.18915357  0.43527011  1
  Zn  Zn117  1  0.91662102  0.20016551  0.91336494  1
  Zn  Zn118  1  0.92566210  0.69275028  0.44295119  1
  Zn  Zn119  1  0.93471097  0.68938615  0.94551550  1
  Zn  Zn120  1  0.06915435  0.29776882  0.05141188  1
  Zn  Zn121  1  0.05758472  0.31893662  0.55474398  1
  Zn  Zn122  1  0.06548169  0.82787395  0.06838805  1
  Zn  Zn123  1  0.05727308  0.80710487  0.55602839  1
  Zn  Zn124  1  0.55286112  0.30466087  0.05970830  1
  Zn  Zn125  1  0.57784445  0.30908285  0.55686576  1
  Zn  Zn126  1  0.51309747  0.77356460  0.03129171  1
  Zn  Zn127  1  0.55502580  0.81369218  0.54068109  1
  O  O128  1  0.12880098  0.10895222  0.12726599  1
  O  O129  1  0.15197807  0.10482168  0.61664602  1
  O  O130  1  0.12622695  0.61566537  0.12436655  1
  O  O131  1  0.09468826  0.62480136  0.62574719  1
  O  O132  1  0.59750263  0.12385661  0.12222151  1
  O  O133  1  0.63463620  0.12644469  0.60917627  1
  O  O134  1  0.61012653  0.62521240  0.12396367  1
  O  O135  1  0.63368276  0.63388151  0.62573598  1
  O  O136  1  0.40553899  0.38215562  0.34933590  1
  O  O137  1  0.37928521  0.37619462  0.88293317  1
  O  O138  1  0.33130691  0.86529019  0.42853441  1
  O  O139  1  0.46029746  0.85465296  0.82303104  1
  O  O140  1  0.87691418  0.38912063  0.37795046  1
  O  O141  1  0.86874828  0.37042938  0.89774122  1
  O  O142  1  0.89444916  0.88473470  0.36836355  1
  O  O143  1  0.87812505  0.86860521  0.89382639  1
  O  O144  1  0.24116681  0.02171416  0.38780695  1
  O  O145  1  0.26431439  0.01446149  0.86046047  1
  O  O146  1  0.24225051  0.50281332  0.36307604  1
  O  O147  1  0.26486108  0.48928893  0.86069709  1
  O  O148  1  0.76262463  0.00889862  0.35115698  1
  O  O149  1  0.73023479  0.00376223  0.86832598  1
  O  O150  1  0.76168405  0.49854493  0.36501003  1
  O  O151  1  0.74981426  0.50408321  0.89716970  1
  O  O152  1  0.23801796  0.49119067  0.13292924  1
  O  O153  1  0.24987525  0.49516907  0.63795359  1
  O  O154  1  0.24792229  1.01147129  0.13523698  1
  O  O155  1  0.24081450  0.99658502  0.57865848  1
  O  O156  1  0.74437899  0.51975842  0.14134438  1
  O  O157  1  0.75528934  0.51696101  0.64266832  1
  O  O158  1  0.75528710  1.02187814  0.14350456  1
  O  O159  1  0.74340981  0.96634514  0.63398050  1
  O  O160  1  -0.00938777  0.38171328  0.26886115  1
  O  O161  1  -0.00473191  0.35864614  0.74801924  1
  O  O162  1  0.00401506  0.87196047  0.25456153  1
  O  O163  1  0.00380703  0.87361163  0.77754114  1
  O  O164  1  0.46113196  0.39005439  0.29771574  1
  O  O165  1  0.51099921  0.38269345  0.76358530  1
  O  O166  1  0.48776998  0.86115255  0.24878923  1
  O  O167  1  0.54576031  0.95728136  0.68746467  1
  O  O168  1  0.47949635  0.11610023  0.23661615  1
  O  O169  1  0.49479974  0.12249727  0.74263802  1
  O  O170  1  0.48634736  0.62431721  0.24798337  1
  O  O171  1  0.49491246  0.61747744  0.75554718  1
  O  O172  1  0.99755004  0.12118055  0.23487411  1
  O  O173  1  0.97519265  0.12517824  0.74716502  1
  O  O174  1  0.98246971  0.62311665  0.26141566  1
  O  O175  1  0.98885377  0.64003746  0.74813818  1
  O  O176  1  0.37005832  0.26595779  0.00988540  1
  O  O177  1  0.35889485  0.25345071  0.50988643  1
  O  O178  1  0.39372872  0.74578168  0.01456736  1
  O  O179  1  0.36674492  0.73730273  0.51864482  1
  O  O180  1  0.86964838  0.31755569  -0.05212124  1
  O  O181  1  0.87514516  0.26878725  0.49006279  1
  O  O182  1  0.87169439  0.74886726  0.01972076  1
  O  O183  1  0.86680237  0.78095102  0.49159679  1
  O  O184  1  0.13954456  0.26048937  0.48934316  1
  O  O185  1  0.12920207  0.23887182  0.97574704  1
  O  O186  1  0.14729617  0.75893278  0.50507090  1
  O  O187  1  0.12966749  0.75469114  0.99984304  1
  O  O188  1  0.62794608  0.23269882  0.48681838  1
  O  O189  1  0.61357632  0.24729062  0.98424803  1
  O  O190  1  0.62378619  0.73665662  0.50467901  1
  O  O191  1  0.62968378  0.74955516  1.01028467  1
  O  O192  1  0.48004797  0.23454598  0.11935532  1
  O  O193  1  0.48619612  0.26773938  0.61233300  1
  O  O194  1  0.48461918  0.73447468  0.14222753  1
  O  O195  1  0.48548654  0.75729555  0.62064545  1
  O  O196  1  1.03928699  0.22722774  0.13172568  1
  O  O197  1  1.00874828  0.25023364  0.63202893  1
  O  O198  1  0.99623050  0.74686158  0.12109014  1
  O  O199  1  1.00042862  0.74936015  0.63480667  1
  O  O200  1  0.01191229  0.26215323  0.38050933  1
  O  O201  1  0.01586491  0.22576062  0.86529831  1
  O  O202  1  -0.00438118  0.75418574  0.36858527  1
  O  O203  1  -0.00380618  0.74793271  0.86988103  1
  O  O204  1  0.50873416  0.25405765  0.38112813  1
  O  O205  1  0.49101962  0.26305350  0.87421513  1
  O  O206  1  0.48134285  0.74634185  0.35876989  1
  O  O207  1  0.48411366  0.79291704  0.85401299  1
  O  O208  1  0.25386997  0.14894064  0.48091825  1
  O  O209  1  0.28701885  0.13423199  0.96663370  1
  O  O210  1  0.25225746  0.62164252  0.49024959  1
  O  O211  1  0.25508963  0.60407444  0.98601944  1
  O  O212  1  0.74052962  0.10662089  0.48071399  1
  O  O213  1  0.75020042  0.11702170  0.97946796  1
  O  O214  1  0.74046711  0.62823319  0.48688458  1
  O  O215  1  0.73286132  0.62260424  1.00585932  1
  O  O216  1  0.26151113  0.38380294  0.01547125  1
  O  O217  1  0.25168491  0.37529623  0.51016322  1
  O  O218  1  0.20189825  0.78226495  -0.01605815  1
  O  O219  1  0.26525910  0.85274408  0.47336710  1
  O  O220  1  0.74570643  0.38738980  0.04304567  1
  O  O221  1  0.76520535  0.38687700  0.49636554  1
  O  O222  1  0.76089620  0.85104899  0.00104025  1
  O  O223  1  0.71830892  0.92702492  0.57711249  1
  O  O224  1  0.13608630  0.50490694  0.23898990  1
  O  O225  1  0.13358310  0.51276493  0.76922212  1
  O  O226  1  0.12960649  0.98485348  0.24117437  1
  O  O227  1  0.17437040  0.98615116  0.70863344  1
  O  O228  1  0.63825477  0.50694725  0.25944311  1
  O  O229  1  0.64105074  0.48317799  0.76599196  1
  O  O230  1  0.63275324  1.00147252  0.25188788  1
  O  O231  1  0.60455530  0.89488013  0.81852374  1
  O  O232  1  0.36525008  0.00901402  0.25290549  1
  O  O233  1  0.38577317  0.01425284  0.70785750  1
  O  O234  1  0.35472176  0.51405107  0.24177021  1
  O  O235  1  0.37059564  0.51049536  0.75793900  1
  O  O236  1  0.87756801  -0.00343415  0.25388123  1
  O  O237  1  0.86902318  0.00132142  0.74646619  1
  O  O238  1  0.86724573  0.51461748  0.25684244  1
  O  O239  1  0.86128816  0.48908274  0.75694427  1
  O  O240  1  0.10794654  0.37280063  0.37788397  1
  O  O241  1  0.13151577  0.36340967  0.87882906  1
  O  O242  1  0.11195817  0.87893660  0.36122433  1
  O  O243  1  0.10957682  0.88534309  0.89145479  1
  O  O244  1  0.65434346  0.34846077  0.37466943  1
  O  O245  1  0.61003290  0.36811302  0.88441911  1
  O  O246  1  0.66665599  0.88052932  0.38535609  1
  O  O247  1  0.62513141  0.86166785  0.88111412  1
  O  O248  1  0.36400170  0.13823909  0.14070259  1
  O  O249  1  0.36954065  0.15203807  0.63036796  1
  O  O250  1  0.38372908  0.62437238  0.13544016  1
  O  O251  1  0.37943080  0.62928251  0.63919826  1
  O  O252  1  0.90697286  0.13750067  0.09030105  1
  O  O253  1  0.84684404  0.11814267  0.64131698  1
  O  O254  1  0.87727668  0.63471398  0.14082366  1
  O  O255  1  0.89119479  0.63271894  0.61406829  1
  O  O256  1  0.25994332  0.26528615  0.13323651  1
  O  O257  1  0.24487376  0.26499978  0.61538091  1
  O  O258  1  0.26607613  0.72926481  0.11704207  1
  O  O259  1  0.25386336  0.73233424  0.61417411  1
  O  O260  1  0.74115146  0.25446208  0.13323548  1
  O  O261  1  0.72954817  0.25986627  0.62830231  1
  O  O262  1  0.75387767  0.73820965  0.11461560  1
  O  O263  1  0.73176626  0.78018648  0.62858064  1
  O  O264  1  0.24058342  0.26527241  0.38486982  1
  O  O265  1  0.23638594  0.24362880  0.85478305  1
  O  O266  1  0.25498929  0.72715492  0.38693287  1
  O  O267  1  0.23274394  0.75464007  0.91604683  1
  O  O268  1  0.76824990  0.23338168  0.36291970  1
  O  O269  1  0.74204046  0.25640192  0.88994449  1
  O  O270  1  0.75716842  0.74593497  0.36893819  1
  O  O271  1  0.75577588  0.72240199  0.90397805  1
  O  O272  1  -0.04293240  0.14893755  0.02311712  1
  O  O273  1  -0.04250900  0.10923312  0.51017827  1
  O  O274  1  0.03732523  0.62645581  -0.02171049  1
  O  O275  1  -0.00605670  0.61527629  0.49509608  1
  O  O276  1  0.47187825  0.11563622  0.01671939  1
  O  O277  1  0.51559678  0.11777272  0.49257694  1
  O  O278  1  0.50958308  0.62753345  0.01841388  1
  O  O279  1  0.51531847  0.62196192  0.50659260  1
  O  O280  1  0.54406081  0.39732111  0.49038732  1
  O  O281  1  0.48429588  0.37459606  0.99127381  1
  O  O282  1  0.59930369  0.85372912  0.39418201  1
  O  O283  1  0.49935279  0.88495820  1.01121121  1
  O  O284  1  0.98385294  0.38986468  0.49187892  1
  O  O285  1  0.99878238  0.37425624  1.00907244  1
  O  O286  1  1.00130298  0.87250959  0.47720337  1
  O  O287  1  0.98818392  0.87272205  0.99280668  1
  O  O288  1  0.49791158  0.51431268  0.39280413  1
  O  O289  1  0.48211935  0.48645323  0.87379732  1
  O  O290  1  0.49467673  0.99822404  0.38011229  1
  O  O291  1  0.51726584  1.00899666  0.91396273  1
  O  O292  1  0.98862039  0.49305202  0.38107965  1
  O  O293  1  1.00140832  0.49309216  0.89858715  1
  O  O294  1  0.98930236  1.00769647  0.36717549  1
  O  O295  1  1.00251474  1.00250438  0.88061695  1
  O  O296  1  0.02205988  0.01423484  0.11422764  1
  O  O297  1  0.04240236  0.01949849  0.64140504  1
  O  O298  1  0.01948755  0.49367369  0.12712686  1
  O  O299  1  -0.00941652  0.50808961  0.61152727  1
  O  O300  1  0.48183310  0.00761802  0.11479313  1
  O  O301  1  0.50392372  -0.08994784  0.53376077  1
  O  O302  1  0.49619813  0.51172379  0.13605278  1
  O  O303  1  0.49119859  0.49577874  0.60837218  1
  O  O304  1  0.25775962  0.39033545  0.23927046  1
  O  O305  1  0.24503616  0.38822656  0.73975512  1
  O  O306  1  0.24888485  0.87771617  0.27006606  1
  O  O307  1  0.28154419  0.85604456  0.86157978  1
  O  O308  1  0.75617641  0.39456354  0.23055207  1
  O  O309  1  0.74377638  0.38559603  0.74534991  1
  O  O310  1  0.75058892  0.89117640  0.24322917  1
  O  O311  1  0.73554297  0.82433013  0.69190690  1
  O  O312  1  0.26111022  0.13656591  0.26483926  1
  O  O313  1  0.26838395  0.12889581  0.75068234  1
  O  O314  1  0.25306164  0.61756276  0.26222969  1
  O  O315  1  0.25220991  0.61154471  0.74750263  1
  O  O316  1  0.74651013  0.11793225  0.25883094  1
  O  O317  1  0.75584731  0.12682904  0.76520629  1
  O  O318  1  0.75611873  0.62101949  0.26349832  1
  O  O319  1  0.74603216  0.60507064  0.78083735  1
  O  O320  1  0.36574396  0.13179943  0.36466522  1
  O  O321  1  0.37680193  0.12669238  0.84195175  1
  O  O322  1  0.36724094  0.62003600  0.36309096  1
  O  O323  1  0.37847480  0.61213262  0.86712300  1
  O  O324  1  0.86680690  0.11192417  0.37660090  1
  O  O325  1  0.85689705  0.11711880  0.86565622  1
  O  O326  1  0.86248646  0.61846218  0.37002114  1
  O  O327  1  0.86490296  0.61145444  0.89835126  1
  O  O328  1  0.14015130  0.37054566  0.12086806  1
  O  O329  1  0.13577889  0.38010406  0.62040327  1
  O  O330  1  0.13415254  0.88747396  0.13556787  1
  O  O331  1  0.12335748  0.89852486  0.60767083  1
  O  O332  1  0.61381455  0.35963234  0.13715688  1
  O  O333  1  0.61991756  0.37563511  0.64217486  1
  O  O334  1  0.63208784  0.92093738  0.10140761  1
  O  O335  1  0.59460807  0.90474828  0.67178854  1
  O  O336  1  0.13622520  0.26093343  0.26613141  1
  O  O337  1  0.10764292  0.23936260  0.75758297  1
  O  O338  1  0.13333257  0.77344783  0.24058317  1
  O  O339  1  0.10731514  0.75063437  0.75114843  1
  O  O340  1  0.61638280  0.24026573  0.26401016  1
  O  O341  1  0.63092116  0.27207028  0.77015611  1
  O  O342  1  0.60457235  0.74848904  0.24887163  1
  O  O343  1  0.71815529  0.77999515  0.76104680  1
  O  O344  1  0.37952831  0.25581356  0.23999936  1
  O  O345  1  0.37829353  0.25477378  0.73377979  1
  O  O346  1  0.37088986  0.73273513  0.24380579  1
  O  O347  1  0.37085426  0.72623560  0.74594054  1
  O  O348  1  0.89790921  0.28004337  0.17412339  1
  O  O349  1  0.88877611  0.24141847  0.75027366  1
  O  O350  1  0.87144782  0.74210142  0.23841139  1
  O  O351  1  0.89352624  0.78099306  0.74432058  1
  O  O352  1  0.40141588  0.49797874  0.51540698  1
  O  O353  1  0.37082280  0.48808330  0.98734679  1
  O  O354  1  0.40414454  1.01540521  0.52578958  1
  O  O355  1  0.36924375  0.98064866  0.99511272  1
  O  O356  1  0.87671200  0.50145608  0.48620462  1
  O  O357  1  0.90383429  0.50341065  1.02837181  1
  O  O358  1  0.84562616  0.97322173  0.47557007  1
  O  O359  1  0.85908447  0.97542891  1.01106325  1
  O  O360  1  0.16148052  -0.01854154  0.01220390  1
  O  O361  1  0.11535262  0.00021845  0.50895629  1
  O  O362  1  0.11536896  0.49293251  0.01520018  1
  O  O363  1  0.10558543  0.49921732  0.49524871  1
  O  O364  1  0.63475076  -0.03171421  0.04479198  1
  O  O365  1  0.61438316  0.01495195  0.49030870  1
  O  O366  1  0.61482570  0.50229158  0.01024579  1
  O  O367  1  0.62215557  0.52530386  0.50085895  1
  O  O368  1  0.37484260  0.36732734  0.11772391  1
  O  O369  1  0.35694233  0.36811122  0.62965208  1
  O  O370  1  0.36553990  0.85301500  0.13349145  1
  O  O371  1  0.36041967  0.84824420  0.65603583  1
  O  O372  1  0.88903554  0.34224663  0.13594585  1
  O  O373  1  0.87423241  0.37385398  0.61463054  1
  O  O374  1  0.88781737  0.86082512  0.11924058  1
  O  O375  1  0.90154505  0.89367858  0.60228147  1
  O  O376  1  0.13617861  0.14306864  0.36642304  1
  O  O377  1  0.14879112  0.11935004  0.86723041  1
  O  O378  1  0.13515890  0.62265911  0.37268817  1
  O  O379  1  0.08801858  0.62525285  0.92201890  1
  O  O380  1  0.63743921  0.13783985  0.37484877  1
  O  O381  1  0.63775360  0.14275068  0.86298595  1
  O  O382  1  0.63972480  0.63674747  0.37219176  1
  O  O383  1  0.62418464  0.61560898  0.89964391  1
