# generated using pymatgen
data_VZnO4
_symmetry_space_group_name_H-M   'P 1'
_cell_length_a   17.03663602
_cell_length_b   17.24195059
_cell_length_c   17.11938726
_cell_angle_alpha   90.53755572
_cell_angle_beta   90.39456358
_cell_angle_gamma   89.65027860
_symmetry_Int_Tables_number   1
_chemical_formula_structural   VZnO4
_chemical_formula_sum   'V64 Zn64 O256'
_cell_volume   5028.29934528
_cell_formula_units_Z   64
loop_
 _symmetry_equiv_pos_site_id
 _symmetry_equiv_pos_as_xyz
  1  'x, y, z'
loop_
 _atom_site_type_symbol
 _atom_site_label
 _atom_site_symmetry_multiplicity
 _atom_site_fract_x
 _atom_site_fract_y
 _atom_site_fract_z
 _atom_site_occupancy
  V  V0  1  0.74834315  0.10136534  0.86844549  1
  V  V1  1  0.13427156  0.11547272  0.00222648  1
  V  V2  1  0.12102122  0.84729517  0.69469878  1
  V  V3  1  0.42492274  0.61343515  0.28699856  1
  V  V4  1  0.76230769  0.00410599  0.23568275  1
  V  V5  1  0.60931796  0.49612830  0.64884492  1
  V  V6  1  0.25585557  0.87509502  0.15339412  1
  V  V7  1  0.10651971  0.49191540  0.61369412  1
  V  V8  1  0.49826222  0.77006870  0.74505083  1
  V  V9  1  0.86872605  0.09355378  0.74516593  1
  V  V10  1  -0.03290155  0.34920076  0.40869504  1
  V  V11  1  0.50619239  0.25667378  0.25531695  1
  V  V12  1  0.22239717  0.50171409  0.24816448  1
  V  V13  1  0.88352061  0.00487562  0.38231917  1
  V  V14  1  0.38445391  0.25921916  0.11160534  1
  V  V15  1  0.60384577  0.12341699  -0.01336035  1
  V  V16  1  0.14840898  0.25318230  0.87999355  1
  V  V17  1  0.14121831  0.01011795  0.15723814  1
  V  V18  1  0.21673540  0.02170390  0.73119695  1
  V  V19  1  0.63433297  -0.00712496  0.63020821  1
  V  V20  1  0.61832547  -0.00956241  0.11607070  1
  V  V21  1  -0.01221841  0.84415981  0.38206031  1
  V  V22  1  0.01986499  0.89662272  0.87016701  1
  V  V23  1  -0.01070824  0.24956400  0.22020361  1
  V  V24  1  0.48296369  0.39045704  0.86332549  1
  V  V25  1  -0.01710038  0.76815513  0.22093019  1
  V  V26  1  0.38803913  0.25961669  0.61254026  1
  V  V27  1  0.65190273  0.75257224  0.40611400  1
  V  V28  1  0.35382341  0.65812191  0.71591764  1
  V  V29  1  0.75146838  0.23903435  0.00003132  1
  V  V30  1  0.61750552  0.63258616  0.54253169  1
  V  V31  1  0.14755790  0.77289585  0.90768108  1
  V  V32  1  0.63748224  0.12270857  0.49217253  1
  V  V33  1  0.21882762  0.69878233  0.47094290  1
  V  V34  1  0.92618879  0.70298044  0.66180823  1
  V  V35  1  0.50338157  0.12618763  0.62377955  1
  V  V36  1  0.48509167  0.88686534  0.88711983  1
  V  V37  1  0.75531340  0.12633675  0.36361887  1
  V  V38  1  0.07987755  0.58712355  0.46630041  1
  V  V39  1  0.64094204  0.26858398  0.83493688  1
  V  V40  1  0.12713131  0.35096987  0.25463846  1
  V  V41  1  0.35475211  0.90303986  -0.00004024  1
  V  V42  1  0.62639951  0.88867726  0.26299091  1
  V  V43  1  0.86726086  0.26915799  0.59214062  1
  V  V44  1  0.50409547  0.11810353  0.12512629  1
  V  V45  1  0.50233949  0.00063691  0.48079609  1
  V  V46  1  0.34945606  0.00664473  0.36893164  1
  V  V47  1  0.25020014  0.37105260  0.11382354  1
  V  V48  1  0.89745718  0.44351023  0.00226677  1
  V  V49  1  0.36762664  0.12841843  0.25506882  1
  V  V50  1  0.12496764  0.36896199  0.74624180  1
  V  V51  1  0.74932905  0.39940100  0.61717194  1
  V  V52  1  0.25195222  0.37552619  0.60034669  1
  V  V53  1  0.88501021  0.86361660  -0.00737088  1
  V  V54  1  0.58750194  0.73302110  0.91001542  1
  V  V55  1  -0.03393191  0.25940477  0.77377682  1
  V  V56  1  0.62177727  0.49184402  0.12315716  1
  V  V57  1  0.25336254  0.23042251  0.48182022  1
  V  V58  1  0.36307202  0.88522813  0.50379067  1
  V  V59  1  0.37310451  0.12620612  0.74935705  1
  V  V60  1  0.86645095  0.83973121  0.54916362  1
  V  V61  1  0.50809268  0.76811512  0.25311088  1
  V  V62  1  0.62320355  0.25434573  0.37849837  1
  V  V63  1  0.26244414  0.49578382  0.74005899  1
  Zn  Zn64  1  0.19295846  0.19286670  0.17203192  1
  Zn  Zn65  1  0.19592663  0.19235537  0.67111124  1
  Zn  Zn66  1  0.26055538  0.68146501  0.18322469  1
  Zn  Zn67  1  0.19015074  0.67361454  0.64693841  1
  Zn  Zn68  1  0.70966890  0.22159039  0.20209162  1
  Zn  Zn69  1  0.71000001  0.17702722  0.67014149  1
  Zn  Zn70  1  0.69346248  0.70506080  0.18475297  1
  Zn  Zn71  1  0.61463321  0.62810724  0.76123080  1
  Zn  Zn72  1  0.31921180  0.31618534  0.30854238  1
  Zn  Zn73  1  0.31510395  0.30896411  0.79238378  1
  Zn  Zn74  1  0.31914539  0.81545374  0.33669790  1
  Zn  Zn75  1  0.28100497  0.87554696  0.81114315  1
  Zn  Zn76  1  0.80905125  0.32030802  0.31696143  1
  Zn  Zn77  1  0.80424202  0.38298793  0.82141559  1
  Zn  Zn78  1  0.81484323  0.82819284  0.29906481  1
  Zn  Zn79  1  0.92263805  0.74688001  0.86148354  1
  Zn  Zn80  1  0.18348467  0.43427002  0.42225610  1
  Zn  Zn81  1  0.20621987  0.42817158  0.92656908  1
  Zn  Zn82  1  0.17188812  0.93559423  0.43850133  1
  Zn  Zn83  1  0.19838877  0.96627538  0.92291863  1
  Zn  Zn84  1  0.65610838  0.45419182  0.44605811  1
  Zn  Zn85  1  0.65628685  0.41256959  0.94449020  1
  Zn  Zn86  1  0.68727715  0.91773812  0.46898779  1
  Zn  Zn87  1  0.66141378  0.93194848  0.92762236  1
  Zn  Zn88  1  0.30685263  0.07395010  0.06757248  1
  Zn  Zn89  1  0.31509622  0.05996576  0.56214133  1
  Zn  Zn90  1  0.40214337  0.47081100  0.15934580  1
  Zn  Zn91  1  0.31884986  0.55333396  0.54405225  1
  Zn  Zn92  1  0.78323940  0.09610700  0.07643577  1
  Zn  Zn93  1  0.84247353  0.01506343  0.58434188  1
  Zn  Zn94  1  0.79889162  0.59829069  0.05848710  1
  Zn  Zn95  1  0.76817456  0.60836128  0.64413877  1
  Zn  Zn96  1  0.49493625  0.44472018  0.33238489  1
  Zn  Zn97  1  0.43672815  0.43609774  0.68594851  1
  Zn  Zn98  1  0.43351039  0.94028669  0.19183048  1
  Zn  Zn99  1  0.44257940  0.94202280  0.68350427  1
  Zn  Zn100  1  0.91208801  0.39103531  0.18190513  1
  Zn  Zn101  1  0.92557023  0.42356130  0.67968911  1
  Zn  Zn102  1  0.92617912  0.98947208  0.11261555  1
  Zn  Zn103  1  0.91531457  0.89000376  0.72468592  1
  Zn  Zn104  1  0.02058429  0.04706584  0.25230684  1
  Zn  Zn105  1  0.05415000  0.09565548  0.82263683  1
  Zn  Zn106  1  0.02979917  0.50682388  0.29423795  1
  Zn  Zn107  1  0.24085084  0.61598624  0.85643017  1
  Zn  Zn108  1  0.56442956  0.06852837  0.30267353  1
  Zn  Zn109  1  0.54992755  0.05645026  0.80193541  1
  Zn  Zn110  1  0.61505780  0.59539929  0.32810276  1
  Zn  Zn111  1  0.45790925  0.59900986  0.85002863  1
  Zn  Zn112  1  0.44104299  0.18379753  0.43634031  1
  Zn  Zn113  1  0.43598831  0.22990995  0.90668298  1
  Zn  Zn114  1  0.46398931  0.71723772  0.43714355  1
  Zn  Zn115  1  0.36059482  0.74645651  0.89921554  1
  Zn  Zn116  1  0.94714266  0.18378575  0.41738281  1
  Zn  Zn117  1  0.94041976  0.17894324  1.04259526  1
  Zn  Zn118  1  0.90582065  0.67422806  0.45343246  1
  Zn  Zn119  1  1.06584804  0.68775371  0.79081653  1
  Zn  Zn120  1  0.05490249  0.33218281  0.04801907  1
  Zn  Zn121  1  0.07506936  0.27338204  0.55737688  1
  Zn  Zn122  1  0.07351897  0.84760498  0.06337467  1
  Zn  Zn123  1  0.05414631  0.78855764  0.52641902  1
  Zn  Zn124  1  0.55271926  0.30658786  0.04659490  1
  Zn  Zn125  1  0.56454028  0.31361669  0.68227189  1
  Zn  Zn126  1  0.46539875  0.77641203  0.05029921  1
  Zn  Zn127  1  0.55566141  0.81485333  0.56213992  1
  O  O128  1  0.13398681  0.11121072  0.11797903  1
  O  O129  1  0.09726210  0.18984976  0.62233137  1
  O  O130  1  0.24959117  0.61312692  0.06822734  1
  O  O131  1  0.11741491  0.59213088  0.60820144  1
  O  O132  1  0.60615458  0.11918527  0.12381505  1
  O  O133  1  0.62221163  0.12589866  0.60555327  1
  O  O134  1  0.59828571  0.58897846  0.13911983  1
  O  O135  1  0.58983796  0.60456900  0.64483717  1
  O  O136  1  0.40563125  0.38769076  0.38165551  1
  O  O137  1  0.39562659  0.33790111  0.87339156  1
  O  O138  1  0.37487995  0.90845558  0.37970020  1
  O  O139  1  0.37034230  0.88772709  0.88765590  1
  O  O140  1  0.86501169  0.34557356  0.40753850  1
  O  O141  1  0.84356642  0.42313579  0.91770420  1
  O  O142  1  0.88919303  0.89814034  0.36327960  1
  O  O143  1  0.92291084  0.86355839  0.83791244  1
  O  O144  1  0.25209121  0.00661619  0.37611900  1
  O  O145  1  0.25193195  -0.00792400  0.82765664  1
  O  O146  1  0.25115151  0.48205194  0.34241370  1
  O  O147  1  0.24915819  0.49879052  0.84253166  1
  O  O148  1  0.77207113  0.01038107  0.35224294  1
  O  O149  1  0.70974610  0.01024001  0.86194912  1
  O  O150  1  0.74972783  0.51076936  0.38389655  1
  O  O151  1  0.71028790  0.51729308  0.88951653  1
  O  O152  1  0.28161265  0.47108786  0.16091949  1
  O  O153  1  0.25724916  0.48199177  0.61533708  1
  O  O154  1  0.24614378  1.00178816  0.13627150  1
  O  O155  1  0.24483054  1.01505749  0.63427281  1
  O  O156  1  0.72463007  0.50983716  0.10997415  1
  O  O157  1  0.72749609  0.50233513  0.63343968  1
  O  O158  1  0.72731872  1.01538588  0.13272131  1
  O  O159  1  0.73179512  1.00599664  0.61119323  1
  O  O160  1  0.02316495  0.36374729  0.22567408  1
  O  O161  1  0.02091241  0.35805373  0.73528860  1
  O  O162  1  0.01224718  0.85244272  0.27923681  1
  O  O163  1  0.03852972  0.88129709  0.74559161  1
  O  O164  1  0.50266406  0.35406346  0.25927742  1
  O  O165  1  0.50264978  0.37447595  0.76044265  1
  O  O166  1  0.51789018  0.88246994  0.25044920  1
  O  O167  1  0.47460739  0.87453976  0.76737318  1
  O  O168  1  0.49125843  0.13145746  0.23891968  1
  O  O169  1  0.50121632  0.13143876  0.72591911  1
  O  O170  1  0.52042586  0.65245268  0.26902164  1
  O  O171  1  0.45789505  0.66585705  0.74317778  1
  O  O172  1  0.98542154  0.15262151  0.23436240  1
  O  O173  1  0.95879500  0.14670293  0.77648825  1
  O  O174  1  1.01565792  0.66003314  0.23378962  1
  O  O175  1  0.99299844  0.50008428  0.82183172  1
  O  O176  1  0.40509234  0.25157314  0.01550601  1
  O  O177  1  0.37731518  0.24313105  0.51021307  1
  O  O178  1  0.36314285  0.78159055  0.00650898  1
  O  O179  1  0.38857904  0.79085489  0.48212395  1
  O  O180  1  0.84993919  0.23181236  -0.01425070  1
  O  O181  1  0.88956203  0.21462986  0.51197216  1
  O  O182  1  0.88082558  0.76681877  -0.03401148  1
  O  O183  1  0.85522490  0.73959461  0.52776127  1
  O  O184  1  0.15612315  0.25099922  0.47970303  1
  O  O185  1  0.13001248  0.28669540  0.97227273  1
  O  O186  1  0.11014278  0.69246837  0.47390525  1
  O  O187  1  0.14193631  0.77253038  1.00525053  1
  O  O188  1  0.62251992  0.22530519  0.48230485  1
  O  O189  1  0.61920406  0.22304187  1.00718540  1
  O  O190  1  0.64935005  0.80914062  0.49109899  1
  O  O191  1  0.54872826  0.72065583  1.00060801  1
  O  O192  1  0.49966574  0.24343314  0.13772288  1
  O  O193  1  0.49536654  0.24571362  0.61742640  1
  O  O194  1  0.48931262  0.75666452  0.15713097  1
  O  O195  1  0.48889718  0.78500339  0.64736119  1
  O  O196  1  0.99325173  0.25866238  0.11437565  1
  O  O197  1  0.93815518  0.25469771  0.66705788  1
  O  O198  1  1.00533721  0.78601502  0.12740904  1
  O  O199  1  1.00580920  0.71766715  0.60465742  1
  O  O200  1  -0.00650767  0.26325771  0.35112109  1
  O  O201  1  0.03824472  0.25484319  0.84474984  1
  O  O202  1  -0.03321029  0.74749332  0.38241755  1
  O  O203  1  0.04204325  0.77410294  0.87411520  1
  O  O204  1  0.51200732  0.23915587  0.36571003  1
  O  O205  1  0.54318736  0.26327968  0.86244284  1
  O  O206  1  0.55515997  0.76240293  0.36614269  1
  O  O207  1  0.47312129  0.77061759  0.86263217  1
  O  O208  1  0.25872301  0.13286694  0.49716682  1
  O  O209  1  0.23460158  0.14057975  1.01056139  1
  O  O210  1  0.24684189  0.60204936  0.47037317  1
  O  O211  1  0.26721911  0.64788311  1.00733441  1
  O  O212  1  0.73765540  0.11289024  0.47978279  1
  O  O213  1  0.72194382  0.11842794  0.97902892  1
  O  O214  1  0.70456395  0.67108287  0.57250572  1
  O  O215  1  0.74090056  0.57248059  0.92584225  1
  O  O216  1  0.26388830  0.39603742  0.01871041  1
  O  O217  1  0.25004559  0.37755901  0.50111278  1
  O  O218  1  0.25405266  0.89772972  -0.00208323  1
  O  O219  1  0.26290316  0.89413581  0.49071061  1
  O  O220  1  0.72501036  0.33435440  -0.00503308  1
  O  O221  1  0.72815578  0.39847605  0.51955077  1
  O  O222  1  0.77431314  0.89625683  -0.03155381  1
  O  O223  1  0.79171841  0.88573037  0.50064160  1
  O  O224  1  0.12427332  0.46839784  0.23688682  1
  O  O225  1  0.14055747  0.47974744  0.71872332  1
  O  O226  1  0.13969299  1.02543674  0.25472823  1
  O  O227  1  0.12254213  1.05121740  0.73738713  1
  O  O228  1  0.64801950  0.47041081  0.21855622  1
  O  O229  1  0.60755661  0.50667081  0.74736898  1
  O  O230  1  0.62653309  0.99654129  0.23614958  1
  O  O231  1  0.62064305  1.01480955  0.72645195  1
  O  O232  1  0.37581113  0.01781096  0.25999903  1
  O  O233  1  0.38708086  0.02825829  0.73810940  1
  O  O234  1  0.42779539  0.51142824  0.26433694  1
  O  O235  1  0.36318301  0.50586215  0.73282221  1
  O  O236  1  0.85942161  0.00409200  0.22147452  1
  O  O237  1  0.88179932  -0.00109197  0.75571692  1
  O  O238  1  0.83310984  0.44474405  0.26380030  1
  O  O239  1  0.93439232  0.51279699  0.77078488  1
  O  O240  1  0.12977883  0.35830608  0.35328598  1
  O  O241  1  0.13588748  0.38029125  0.84783661  1
  O  O242  1  0.08289255  0.86398032  0.42003055  1
  O  O243  1  0.12848280  0.88088105  0.88328165  1
  O  O244  1  0.62938684  0.34939660  0.39020335  1
  O  O245  1  0.67792343  0.36398130  0.84030443  1
  O  O246  1  0.63929648  0.89956866  0.35988756  1
  O  O247  1  0.59094380  0.84999766  0.89676023  1
  O  O248  1  0.38461323  0.13870836  0.13436527  1
  O  O249  1  0.39419859  0.13339321  0.61994328  1
  O  O250  1  0.36233091  0.64696403  0.21713378  1
  O  O251  1  0.36111667  0.62547960  0.62020458  1
  O  O252  1  0.89123308  0.08367150  0.07001013  1
  O  O253  1  0.86779864  0.10785900  0.64643268  1
  O  O254  1  0.86925074  0.51109631  0.27310024  1
  O  O255  1  0.87829809  0.61810538  0.63715813  1
  O  O256  1  0.27434670  0.26228830  0.11939697  1
  O  O257  1  0.26464123  0.26210139  0.60148615  1
  O  O258  1  0.24595679  0.77682034  0.13616765  1
  O  O259  1  0.23721788  0.73485808  0.56228426  1
  O  O260  1  0.74957993  0.20695494  0.10046211  1
  O  O261  1  0.76823897  0.26090401  0.62169530  1
  O  O262  1  0.74684467  0.68417763  0.09391857  1
  O  O263  1  0.75086852  0.72561998  0.76462228  1
  O  O264  1  0.28214126  0.25188396  0.38819558  1
  O  O265  1  0.24763008  0.26587799  0.87108194  1
  O  O266  1  0.24871142  0.75078992  0.39117868  1
  O  O267  1  0.24618997  0.78432878  0.87110554  1
  O  O268  1  0.73490103  0.22915004  0.36613437  1
  O  O269  1  0.72028196  0.21773651  0.88010195  1
  O  O270  1  0.73823074  0.76921705  0.35814960  1
  O  O271  1  0.68281048  0.72478494  0.92491349  1
  O  O272  1  0.04119675  0.15590111  -0.00132358  1
  O  O273  1  0.03073821  0.12572617  0.48503929  1
  O  O274  1  0.06759432  0.58781627  0.04047905  1
  O  O275  1  -0.01693440  0.59353687  0.48188204  1
  O  O276  1  0.50010019  0.12414718  0.01846698  1
  O  O277  1  0.51066524  0.11654077  0.50259704  1
  O  O278  1  0.42530798  0.58548131  0.02518156  1
  O  O279  1  0.53784091  0.69843009  0.52479879  1
  O  O280  1  0.38183458  0.41594211  0.45511572  1
  O  O281  1  0.54125961  0.37921214  0.95358433  1
  O  O282  1  0.49450984  0.90263118  0.49903698  1
  O  O283  1  0.47401032  0.88328991  0.99231988  1
  O  O284  1  1.00440176  0.33727169  0.50275289  1
  O  O285  1  0.99600041  0.41483952  0.99949239  1
  O  O286  1  0.95566894  0.85207148  0.49470836  1
  O  O287  1  0.99361349  0.88768136  0.97717803  1
  O  O288  1  0.58133273  0.50012513  0.36893654  1
  O  O289  1  0.45994102  0.48612070  0.86677553  1
  O  O290  1  0.50489030  1.01059490  0.38228416  1
  O  O291  1  0.50642173  0.98180965  0.87106978  1
  O  O292  1  0.98777780  0.43907103  0.37335869  1
  O  O293  1  1.11331288  0.53094827  1.03035654  1
  O  O294  1  0.97780827  1.02377531  0.35156116  1
  O  O295  1  1.02005171  0.99372154  0.86049839  1
  O  O296  1  0.03201656  -0.00642826  0.14964483  1
  O  O297  1  -0.10904163  -0.08124599  0.61842502  1
  O  O298  1  -0.06361209  0.51384852  0.22285808  1
  O  O299  1  0.01075213  0.47586171  0.62301879  1
  O  O300  1  0.50554744  0.01199256  0.13305344  1
  O  O301  1  0.50882499  0.01920396  0.61262088  1
  O  O302  1  0.51822973  0.48240920  0.12925121  1
  O  O303  1  0.52157227  0.45521510  0.61769546  1
  O  O304  1  0.23669480  0.35626211  0.23900314  1
  O  O305  1  0.25518250  0.38600129  0.72899471  1
  O  O306  1  0.26761414  0.87728122  0.25134267  1
  O  O307  1  0.20573063  0.89935196  0.72320173  1
  O  O308  1  0.73727922  0.32412399  0.23513058  1
  O  O309  1  0.81630697  0.40472834  0.71269327  1
  O  O310  1  0.74108026  0.90047988  0.24196052  1
  O  O311  1  0.78852590  0.74178050  0.82559875  1
  O  O312  1  0.27140148  0.14337318  0.24229430  1
  O  O313  1  0.26460857  0.12580465  0.73753861  1
  O  O314  1  0.21121600  0.59861668  0.23597281  1
  O  O315  1  0.24748926  0.60607010  0.72707904  1
  O  O316  1  0.73893299  0.11572231  0.25793718  1
  O  O317  1  0.76317679  0.12504911  0.75895546  1
  O  O318  1  0.69376069  0.62510372  0.25842414  1
  O  O319  1  0.73397382  0.63924870  0.75466890  1
  O  O320  1  0.37929297  0.11923277  0.36125319  1
  O  O321  1  0.39417647  0.14742476  0.84470156  1
  O  O322  1  0.40757159  0.63357555  0.38381660  1
  O  O323  1  0.35056465  0.64401127  0.84516268  1
  O  O324  1  0.85932820  0.12444344  0.36923068  1
  O  O325  1  0.84463074  0.09464025  0.87753451  1
  O  O326  1  0.82943415  0.61287885  0.38676693  1
  O  O327  1  1.01566773  0.55817090  0.86320825  1
  O  O328  1  0.14931793  0.36568860  0.11824340  1
  O  O329  1  0.14453285  0.37246463  0.61938483  1
  O  O330  1  0.14911503  0.89984344  0.13267245  1
  O  O331  1  0.10733113  0.86010969  0.59765215  1
  O  O332  1  0.61760635  0.38800038  0.10603065  1
  O  O333  1  0.65170463  0.38190103  0.65298705  1
  O  O334  1  0.62135228  0.89562586  0.12018327  1
  O  O335  1  0.61613098  0.89672197  0.62120054  1
  O  O336  1  0.11303569  0.24955165  0.23159317  1
  O  O337  1  0.15505791  0.27085747  0.74929296  1
  O  O338  1  0.07517994  0.70628573  0.25829693  1
  O  O339  1  0.13324339  0.74677119  0.71580760  1
  O  O340  1  0.61179467  0.23539902  0.26404716  1
  O  O341  1  0.63873482  0.24094895  0.73677684  1
  O  O342  1  0.62940311  0.78596622  0.23364077  1
  O  O343  1  0.59481284  0.75206531  0.76282410  1
  O  O344  1  0.39197158  0.24208245  0.24883354  1
  O  O345  1  0.36874210  0.23820646  0.71824083  1
  O  O346  1  0.41736354  0.77369205  0.29539511  1
  O  O347  1  0.32622096  0.75026453  0.71634603  1
  O  O348  1  0.89275571  0.28639041  0.23416156  1
  O  O349  1  0.88414639  0.29062802  0.81564445  1
  O  O350  1  0.88287026  0.76519778  0.23412726  1
  O  O351  1  0.95591813  0.69182963  0.76387495  1
  O  O352  1  0.39718740  0.49039306  0.46723044  1
  O  O353  1  0.38753419  0.52682304  1.04583170  1
  O  O354  1  0.38544850  1.01048526  0.48181348  1
  O  O355  1  0.36890533  1.00167655  1.00595523  1
  O  O356  1  0.80672875  0.54643359  0.42075731  1
  O  O357  1  0.88385605  0.54349750  1.02135936  1
  O  O358  1  0.88611775  1.01706981  0.47867707  1
  O  O359  1  0.83332870  0.94666441  0.94288641  1
  O  O360  1  0.12685971  0.01665142  -0.00717860  1
  O  O361  1  0.10885889  0.02279638  0.49321930  1
  O  O362  1  0.14698973  0.52470824  -0.04192190  1
  O  O363  1  0.11875147  0.49051905  0.50075229  1
  O  O364  1  0.62029924  0.01042515  0.01181248  1
  O  O365  1  0.61614015  0.00711619  0.50172910  1
  O  O366  1  0.62548416  0.50030792  0.01749305  1
  O  O367  1  0.61911184  0.53110974  0.52542839  1
  O  O368  1  0.38510360  0.35936289  0.13052993  1
  O  O369  1  0.37059169  0.36278952  0.62021857  1
  O  O370  1  0.35953147  0.89198948  0.11830778  1
  O  O371  1  0.37584058  0.90414933  0.60132319  1
  O  O372  1  0.86116485  0.39683365  0.08347636  1
  O  O373  1  0.86441785  0.37115259  0.58126838  1
  O  O374  1  0.88249902  0.88565799  0.08926140  1
  O  O375  1  0.86972084  0.78916178  0.66625762  1
  O  O376  1  0.08720172  0.08403185  0.45141137  1
  O  O377  1  0.13941189  0.14723257  0.88509090  1
  O  O378  1  0.08862688  0.57223366  0.36923817  1
  O  O379  1  0.14508440  0.66963966  0.87160352  1
  O  O380  1  0.63418873  0.11797781  0.37964749  1
  O  O381  1  0.59398542  0.11950062  0.88783749  1
  O  O382  1  0.65062002  0.65172791  0.42838799  1
  O  O383  1  0.56465795  0.63549870  0.86437203  1
