# generated using pymatgen
data_VZnO4
_symmetry_space_group_name_H-M   'P 1'
_cell_length_a   16.92966439
_cell_length_b   16.97903037
_cell_length_c   16.89390310
_cell_angle_alpha   90.24786902
_cell_angle_beta   90.24582202
_cell_angle_gamma   89.81970304
_symmetry_Int_Tables_number   1
_chemical_formula_structural   VZnO4
_chemical_formula_sum   'V64 Zn64 O256'
_cell_volume   4856.02648139
_cell_formula_units_Z   64
loop_
 _symmetry_equiv_pos_site_id
 _symmetry_equiv_pos_as_xyz
  1  'x, y, z'
loop_
 _atom_site_type_symbol
 _atom_site_label
 _atom_site_symmetry_multiplicity
 _atom_site_fract_x
 _atom_site_fract_y
 _atom_site_fract_z
 _atom_site_occupancy
  V  V0  1  0.72184590  0.39154885  0.63525633  1
  V  V1  1  0.76287673  0.62215465  0.86583292  1
  V  V2  1  0.00029008  0.63886117  0.61626319  1
  V  V3  1  0.12851148  0.63493130  0.48172622  1
  V  V4  1  0.52586517  0.11836714  0.14685315  1
  V  V5  1  0.00229548  0.36296898  0.37349019  1
  V  V6  1  0.63153078  0.87832785  0.24928941  1
  V  V7  1  0.26771726  0.75411108  0.50018199  1
  V  V8  1  0.75828529  0.87400946  0.13237529  1
  V  V9  1  0.63156697  0.87056887  0.73193002  1
  V  V10  1  0.37620952  0.60216884  0.75042105  1
  V  V11  1  0.88892040  0.86560655  0.00029449  1
  V  V12  1  0.49889239  0.60007977  0.62268433  1
  V  V13  1  0.62659064  0.74171126  0.87905998  1
  V  V14  1  0.61101999  0.73817116  0.37008936  1
  V  V15  1  0.00905727  0.51048076  -0.01650288  1
  V  V16  1  0.50541684  0.90260961  0.38105104  1
  V  V17  1  0.13175912  0.90090853  0.74570977  1
  V  V18  1  0.65380428  0.49650702  0.11997072  1
  V  V19  1  0.62401378  0.60909699  0.50835875  1
  V  V20  1  0.50664433  0.87400053  0.87737816  1
  V  V21  1  0.86543474  0.13862268  0.21607813  1
  V  V22  1  0.53059534  0.12630938  0.61611094  1
  V  V23  1  0.86732856  0.49566257  0.35858175  1
  V  V24  1  0.12979835  0.37647796  0.22810901  1
  V  V25  1  -0.01326514  0.62151671  0.14598052  1
  V  V26  1  0.38336649  0.36538345  0.00507161  1
  V  V27  1  0.50958190  0.23815490  0.77263972  1
  V  V28  1  0.11517049  0.86232832  0.26671349  1
  V  V29  1  -0.00393296  0.25156287  0.21522564  1
  V  V30  1  0.51530344  -0.00392712  0.00709066  1
  V  V31  1  0.15855511  0.12667363  -0.01681579  1
  V  V32  1  0.33626016  0.88145845  -0.02455510  1
  V  V33  1  0.49618578  0.61372454  0.12466217  1
  V  V34  1  0.14609329  0.26752731  0.86596745  1
  V  V35  1  0.23849830  0.24908257  0.49397538  1
  V  V36  1  0.26461830  0.63740644  0.87843502  1
  V  V37  1  0.34531863  0.24671065  0.12680409  1
  V  V38  1  0.35535946  0.12334364  0.25056998  1
  V  V39  1  0.35817914  0.01247957  0.38081682  1
  V  V40  1  0.75302237  0.61923688  0.36059423  1
  V  V41  1  -0.02495318  0.10746276  0.63596217  1
  V  V42  1  0.24877011  0.87678276  0.14632823  1
  V  V43  1  -0.00140065  0.02018116  -0.01150389  1
  V  V44  1  0.76176821  0.73932326  0.50644000  1
  V  V45  1  0.01581893  0.75241882  0.76845254  1
  V  V46  1  -0.00103090  0.26552049  0.75568122  1
  V  V47  1  0.75619828  0.73734944  0.00539258  1
  V  V48  1  0.77068341  0.86793101  0.62296975  1
  V  V49  1  0.88860669  0.37453311  0.01126824  1
  V  V50  1  0.37959432  0.75901756  0.16031176  1
  V  V51  1  -0.00179542  0.50150402  0.49525870  1
  V  V52  1  0.63918497  0.37882410  0.24903358  1
  V  V53  1  0.59831776  0.26111856  0.37268647  1
  V  V54  1  0.74285214  0.25291528  0.49247669  1
  V  V55  1  0.87867735  0.62553640  0.74276612  1
  V  V56  1  0.27248512  0.37467799  0.62941478  1
  V  V57  1  0.86970740  0.37666018  0.51354765  1
  V  V58  1  0.49333715  0.75189327  0.73325175  1
  V  V59  1  0.26331845  0.90286769  0.61803462  1
  V  V60  1  0.12720239  0.49123850  0.62671896  1
  V  V61  1  0.37280407  0.49623659  0.36881503  1
  V  V62  1  0.11088203  0.11122840  0.50426489  1
  V  V63  1  0.12648332  0.01429114  0.13070296  1
  Zn  Zn64  1  0.17527821  0.18868591  0.19054891  1
  Zn  Zn65  1  0.17147356  0.20020249  0.67324831  1
  Zn  Zn66  1  0.16561648  0.70651078  0.18215998  1
  Zn  Zn67  1  0.19661233  0.68011744  0.68366905  1
  Zn  Zn68  1  0.67247665  0.14968629  0.26165979  1
  Zn  Zn69  1  0.66680219  0.22397012  0.67437116  1
  Zn  Zn70  1  0.67521493  0.68143722  0.18352763  1
  Zn  Zn71  1  0.68396465  0.68657909  0.68814483  1
  Zn  Zn72  1  0.30412141  0.30171980  0.30833568  1
  Zn  Zn73  1  0.32829675  0.32244481  0.80742698  1
  Zn  Zn74  1  0.30979097  0.83042751  0.32517761  1
  Zn  Zn75  1  0.30690832  0.82660103  0.80323770  1
  Zn  Zn76  1  0.81631808  0.30911782  0.30656561  1
  Zn  Zn77  1  0.82400982  0.32511865  0.79781456  1
  Zn  Zn78  1  0.82166707  0.80305051  0.31711201  1
  Zn  Zn79  1  0.83543389  0.82559165  0.79854585  1
  Zn  Zn80  1  0.17931815  0.42446346  0.44858368  1
  Zn  Zn81  1  0.19481215  0.45806050  0.93827125  1
  Zn  Zn82  1  0.17967901  0.93711260  0.44460862  1
  Zn  Zn83  1  0.17217183  0.92930337  0.93590653  1
  Zn  Zn84  1  0.68593950  0.43114855  0.43109546  1
  Zn  Zn85  1  0.70886920  0.46545657  0.95365283  1
  Zn  Zn86  1  0.67371127  0.91571364  0.45591938  1
  Zn  Zn87  1  0.68177238  0.91785965  0.94928640  1
  Zn  Zn88  1  0.32114909  0.04770546  0.06672010  1
  Zn  Zn89  1  0.31627190  0.09495848  0.55141145  1
  Zn  Zn90  1  0.31828071  0.58264322  0.06884490  1
  Zn  Zn91  1  0.30648242  0.56532684  0.56487318  1
  Zn  Zn92  1  0.83171241  0.04328572  0.08702795  1
  Zn  Zn93  1  0.77730768  0.05570966  0.55515622  1
  Zn  Zn94  1  0.83677855  0.56705993  0.06249699  1
  Zn  Zn95  1  0.81244673  0.55919399  0.56470259  1
  Zn  Zn96  1  0.43943748  0.42746693  0.18202993  1
  Zn  Zn97  1  0.45157820  0.41667624  0.70130573  1
  Zn  Zn98  1  0.44431683  0.94321208  0.19807393  1
  Zn  Zn99  1  0.44261875  0.94989466  0.56199607  1
  Zn  Zn100  1  0.94290319  0.43754230  0.17938885  1
  Zn  Zn101  1  0.94652715  0.44660268  0.69000918  1
  Zn  Zn102  1  0.94816757  0.94568907  0.18432883  1
  Zn  Zn103  1  0.93908836  0.92749010  0.69409947  1
  Zn  Zn104  1  0.05865619  0.08972688  0.30763090  1
  Zn  Zn105  1  0.05708435  0.07347079  0.81261380  1
  Zn  Zn106  1  0.06069248  0.55308925  0.30737073  1
  Zn  Zn107  1  0.07489581  0.57027385  0.80937090  1
  Zn  Zn108  1  0.60060426  0.08279934  0.44910040  1
  Zn  Zn109  1  0.54627203  0.04245256  0.78576825  1
  Zn  Zn110  1  0.56512107  0.56592264  0.29396263  1
  Zn  Zn111  1  0.55837619  0.57164129  0.81609744  1
  Zn  Zn112  1  0.43205752  0.18823183  0.44624746  1
  Zn  Zn113  1  0.47171929  0.20460696  0.97998357  1
  Zn  Zn114  1  0.43736252  0.68197964  0.44380570  1
  Zn  Zn115  1  0.42098781  0.69438242  0.94955921  1
  Zn  Zn116  1  0.93657156  0.19203953  0.45567328  1
  Zn  Zn117  1  0.93933780  0.20765245  0.91627677  1
  Zn  Zn118  1  0.93839852  0.68920040  0.41880526  1
  Zn  Zn119  1  0.94300570  0.68545638  0.94067467  1
  Zn  Zn120  1  0.07472187  0.31707164  0.03791641  1
  Zn  Zn121  1  0.05478994  0.30072649  0.57219359  1
  Zn  Zn122  1  0.03485866  0.81270867  0.12039165  1
  Zn  Zn123  1  0.11029830  0.79545468  0.58442822  1
  Zn  Zn124  1  0.54603257  0.32110546  0.11164978  1
  Zn  Zn125  1  0.55004835  0.31451760  0.56263301  1
  Zn  Zn126  1  0.56151319  0.80111104  0.06557798  1
  Zn  Zn127  1  0.56305461  0.79985399  0.55185993  1
  O  O128  1  0.13360098  0.11699888  0.10361307  1
  O  O129  1  0.10202355  0.12905976  0.61815118  1
  O  O130  1  0.13670187  0.70015886  -0.00141594  1
  O  O131  1  0.11237560  0.61555336  0.60640229  1
  O  O132  1  0.62408561  0.11187655  0.16560998  1
  O  O133  1  0.63100713  0.12111435  0.63032762  1
  O  O134  1  0.61171039  0.60132936  0.12904804  1
  O  O135  1  0.61723717  0.61985976  0.61568404  1
  O  O136  1  0.37678900  0.39264195  0.37026682  1
  O  O137  1  0.37168964  0.36585281  0.90572906  1
  O  O138  1  0.39639731  0.90431106  0.36782188  1
  O  O139  1  0.40743558  0.85966194  0.86988368  1
  O  O140  1  0.87790007  0.38736578  0.38124167  1
  O  O141  1  0.83693791  0.38703474  0.89893578  1
  O  O142  1  0.85699925  0.92099097  0.36016316  1
  O  O143  1  0.87810860  0.86291517  0.90179888  1
  O  O144  1  0.26134893  -0.00227768  0.38165764  1
  O  O145  1  0.27959308  -0.09016040  0.89234440  1
  O  O146  1  0.26806260  0.49298844  0.37556110  1
  O  O147  1  0.25338145  0.52410579  0.86977048  1
  O  O148  1  0.81625675  -0.03264247  0.40830371  1
  O  O149  1  0.71625789  0.01438544  0.87036819  1
  O  O150  1  0.75724334  0.50767969  0.37499682  1
  O  O151  1  0.74414945  0.52381681  0.86504456  1
  O  O152  1  0.22881436  0.55250650  0.14543503  1
  O  O153  1  0.23495342  0.48702760  0.60770269  1
  O  O154  1  0.23568208  0.99200790  0.12809412  1
  O  O155  1  0.25950466  1.00028136  0.60357460  1
  O  O156  1  0.75129288  0.51450122  0.12034403  1
  O  O157  1  0.74730161  0.49006616  0.62466777  1
  O  O158  1  0.74673855  0.97183801  0.12171780  1
  O  O159  1  0.75790633  0.96636399  0.62418170  1
  O  O160  1  -0.00081883  0.36397888  0.25720814  1
  O  O161  1  -0.01095372  0.36661034  0.75642082  1
  O  O162  1  0.01310130  0.86483775  0.22666717  1
  O  O163  1  0.02212405  0.85618993  0.73935777  1
  O  O164  1  0.52288572  0.36286249  0.21904678  1
  O  O165  1  0.43568591  0.31399752  0.75512077  1
  O  O166  1  0.52000226  0.88565813  0.26853277  1
  O  O167  1  0.51661998  0.85647264  0.75843251  1
  O  O168  1  0.48564897  0.13035597  0.23587645  1
  O  O169  1  0.50351539  0.13370191  0.74062998  1
  O  O170  1  0.50468680  0.63507708  0.22793857  1
  O  O171  1  0.49704571  0.63089069  0.73660400  1
  O  O172  1  0.98690936  0.14678016  0.23451652  1
  O  O173  1  0.99326908  0.13386975  0.74170823  1
  O  O174  1  0.99713810  0.62362101  0.24788399  1
  O  O175  1  0.99925853  0.63402570  0.73241547  1
  O  O176  1  0.37118048  0.25305852  0.01860348  1
  O  O177  1  0.34375332  0.20804902  0.51310522  1
  O  O178  1  0.37178162  0.78889229  -0.00011309  1
  O  O179  1  0.36704801  0.73971895  0.50951137  1
  O  O180  1  0.89340425  0.27461178  -0.00655248  1
  O  O181  1  0.86361221  0.27198079  0.49792300  1
  O  O182  1  0.86151286  0.75072479  0.00098768  1
  O  O183  1  0.85955996  0.73155150  0.49852015  1
  O  O184  1  0.13003637  0.25081073  0.50523860  1
  O  O185  1  0.13711864  0.23339873  0.98346088  1
  O  O186  1  0.11296794  0.73536346  0.48493643  1
  O  O187  1  0.14047688  0.76655836  0.97155227  1
  O  O188  1  0.63152187  0.27232218  0.48124092  1
  O  O189  1  0.67099366  0.23507521  0.95377314  1
  O  O190  1  0.63064763  0.73108763  0.48589367  1
  O  O191  1  0.63721160  0.75144282  0.98653946  1
  O  O192  1  0.51818794  0.21128329  0.09072705  1
  O  O193  1  0.51158276  0.23219078  0.63331871  1
  O  O194  1  0.47713269  0.77852549  0.13709217  1
  O  O195  1  0.50271781  0.74190550  0.63186517  1
  O  O196  1  1.00167361  0.25797342  0.11745704  1
  O  O197  1  0.98936663  0.25028323  0.65012478  1
  O  O198  1  1.06297457  0.70244955  0.12843232  1
  O  O199  1  1.00801960  0.73723775  0.61131942  1
  O  O200  1  -0.01419999  0.26519674  0.38076588  1
  O  O201  1  0.03458062  0.24183779  0.86476694  1
  O  O202  1  -0.02466169  0.87448932  0.43544308  1
  O  O203  1  0.01402130  0.73958757  0.86803864  1
  O  O204  1  0.49915496  0.25680436  0.38111014  1
  O  O205  1  0.49909608  0.22427085  0.87260913  1
  O  O206  1  0.51030783  0.73993522  0.37927872  1
  O  O207  1  0.51852091  0.74839187  0.87482926  1
  O  O208  1  0.21661897  0.13560939  0.50835395  1
  O  O209  1  0.25638419  0.11199105  0.99243868  1
  O  O210  1  0.23637315  0.63747216  0.50209590  1
  O  O211  1  0.29202702  0.64256204  0.97811698  1
  O  O212  1  0.75423967  0.15563554  0.50343040  1
  O  O213  1  0.79106199  0.10712252  0.97179224  1
  O  O214  1  0.73797462  0.62482869  0.49690120  1
  O  O215  1  0.76357792  0.63204752  0.98312020  1
  O  O216  1  0.27495802  0.41686589  0.02471414  1
  O  O217  1  0.24910658  0.36081305  0.50877011  1
  O  O218  1  0.24468773  0.88009616  0.03086331  1
  O  O219  1  0.24269258  0.86633524  0.51108537  1
  O  O220  1  0.77780473  0.37423885  -0.04024483  1
  O  O221  1  0.76058383  0.38487915  0.50819951  1
  O  O222  1  0.75880710  0.85870112  0.01211209  1
  O  O223  1  0.74818453  0.84837948  0.50991851  1
  O  O224  1  0.11495585  0.47425264  0.25063932  1
  O  O225  1  0.12017755  0.50916483  0.72454876  1
  O  O226  1  0.10938264  1.02191326  0.23055585  1
  O  O227  1  0.12252915  0.99855106  0.75325354  1
  O  O228  1  0.62454902  0.48814879  0.23733967  1
  O  O229  1  0.54921011  0.45342815  0.78519388  1
  O  O230  1  0.65482317  0.96977923  0.26631993  1
  O  O231  1  0.62385062  0.96903974  0.74506282  1
  O  O232  1  0.37706840  0.01637977  0.26122146  1
  O  O233  1  0.30369122  0.09450242  0.71790300  1
  O  O234  1  0.36523856  0.49100768  0.26406426  1
  O  O235  1  0.38824485  0.50466609  0.75423084  1
  O  O236  1  0.88502151  0.03418564  0.20179898  1
  O  O237  1  0.86327164  -0.06482218  0.77468043  1
  O  O238  1  0.87507713  0.49112123  0.26116667  1
  O  O239  1  0.88781762  0.52606614  0.74812186  1
  O  O240  1  0.10249097  0.37665244  0.37683310  1
  O  O241  1  0.14459088  0.36420318  0.89121794  1
  O  O242  1  0.11085370  0.90413268  0.35828371  1
  O  O243  1  0.13521175  0.87124661  0.84461461  1
  O  O244  1  0.61686043  0.37668574  0.35929254  1
  O  O245  1  0.51814293  0.43536752  0.86167482  1
  O  O246  1  0.61869023  0.85546865  0.37445899  1
  O  O247  1  0.62918616  0.85650241  0.86257069  1
  O  O248  1  0.36852680  0.13107230  0.13406978  1
  O  O249  1  0.33955835  0.13964095  0.66274970  1
  O  O250  1  0.38029428  0.65448270  0.13382137  1
  O  O251  1  0.39115015  0.61152736  0.63067208  1
  O  O252  1  0.83393557  0.15417808  0.12158254  1
  O  O253  1  0.87458297  0.10850606  0.61771394  1
  O  O254  1  0.88849196  0.64269386  0.13259612  1
  O  O255  1  0.88944215  0.62528417  0.62866789  1
  O  O256  1  0.24728317  0.24791959  0.12153795  1
  O  O257  1  0.24559891  0.26995161  0.61957229  1
  O  O258  1  0.25827508  0.76764510  0.14159470  1
  O  O259  1  0.22808862  0.75536917  0.60463278  1
  O  O260  1  0.70441620  0.22811578  0.01797197  1
  O  O261  1  0.73640058  0.27905495  0.60419502  1
  O  O262  1  0.73819911  0.74139130  0.10770989  1
  O  O263  1  0.74705297  0.74140178  0.61027756  1
  O  O264  1  0.25060181  0.25488665  0.39384438  1
  O  O265  1  0.24512506  0.25018755  0.84724472  1
  O  O266  1  0.25555522  0.76439371  0.39902877  1
  O  O267  1  0.26116211  0.73447268  0.85125831  1
  O  O268  1  0.75033990  0.26865455  0.39030423  1
  O  O269  1  0.74983833  0.18958483  0.81902357  1
  O  O270  1  0.74395728  0.73083092  0.38555284  1
  O  O271  1  0.74260929  0.74133660  0.88306412  1
  O  O272  1  -0.01573980  0.11846273  -0.01167310  1
  O  O273  1  -0.00238256  0.13162505  0.52555639  1
  O  O274  1  -0.00696862  0.61459579  0.01252338  1
  O  O275  1  0.00058208  0.62069027  0.49764278  1
  O  O276  1  0.49148914  0.09067717  -0.01375385  1
  O  O277  1  0.51612042  0.13416919  0.50945857  1
  O  O278  1  0.49490098  0.65509367  0.02799448  1
  O  O279  1  0.50985716  0.62125304  0.51330624  1
  O  O280  1  0.48658048  0.37445659  0.49488322  1
  O  O281  1  0.48301140  0.37022019  1.02240394  1
  O  O282  1  0.50710130  0.87912433  0.48755482  1
  O  O283  1  0.51819045  0.87690916  0.98529847  1
  O  O284  1  0.98727959  0.38179823  0.49063827  1
  O  O285  1  0.99617218  0.39272511  0.99752537  1
  O  O286  1  0.99345099  0.89125191  0.50341361  1
  O  O287  1  0.98689026  0.84471167  1.02101510  1
  O  O288  1  0.47685814  0.50262743  0.36218772  1
  O  O289  1  0.51109113  0.50079984  0.90377706  1
  O  O290  1  0.52271529  0.99857226  0.38539055  1
  O  O291  1  0.51440602  0.97874917  0.87711480  1
  O  O292  1  0.98443340  0.49292174  0.37977091  1
  O  O293  1  1.00536454  0.51984692  0.88256180  1
  O  O294  1  0.95588640  1.04371630  0.36670753  1
  O  O295  1  1.00687409  0.99708163  0.89127009  1
  O  O296  1  0.02484250  -0.01037846  0.09995444  1
  O  O297  1  -0.00793824  0.00786847  0.63828438  1
  O  O298  1  0.00201724  0.51940415  0.12773540  1
  O  O299  1  0.00496212  0.51055823  0.60998488  1
  O  O300  1  0.49943446  0.01081108  0.11813577  1
  O  O301  1  0.48896236  0.03120672  0.62748363  1
  O  O302  1  0.46803813  0.51732645  0.11911900  1
  O  O303  1  0.50608253  0.50334963  0.63311960  1
  O  O304  1  0.22723623  0.36059120  0.25211076  1
  O  O305  1  0.26351443  0.37950965  0.73023023  1
  O  O306  1  0.23189158  0.88343295  0.25423237  1
  O  O307  1  0.24518595  0.88500448  0.72766157  1
  O  O308  1  0.73982972  0.37525555  0.25351520  1
  O  O309  1  0.74762694  0.36961395  0.73312469  1
  O  O310  1  0.74937226  0.84742180  0.23894211  1
  O  O311  1  0.73882130  0.84571530  0.73113120  1
  O  O312  1  0.25520419  0.12618815  0.25010191  1
  O  O313  1  0.23575809  0.11953426  0.74314862  1
  O  O314  1  0.21699987  0.60036982  0.20390244  1
  O  O315  1  0.27516528  0.62022248  0.73997015  1
  O  O316  1  0.78351950  0.13746156  0.27507486  1
  O  O317  1  0.75057798  0.15807030  0.75198467  1
  O  O318  1  0.74513522  0.62769896  0.26287046  1
  O  O319  1  0.76937742  0.63956797  0.75269166  1
  O  O320  1  0.37669153  0.12054958  0.36160302  1
  O  O321  1  0.36626226  0.05759810  0.85162546  1
  O  O322  1  0.37047088  0.60178514  0.36318321  1
  O  O323  1  0.38346159  0.62925143  0.85443413  1
  O  O324  1  0.90514550  0.09894110  0.37649362  1
  O  O325  1  0.83120326  0.12158564  0.91180745  1
  O  O326  1  0.86046311  0.60750910  0.37715001  1
  O  O327  1  0.86886210  0.63272802  0.86163788  1
  O  O328  1  0.12331063  0.37043179  0.12761344  1
  O  O329  1  0.11147875  0.39234842  0.61692069  1
  O  O330  1  0.13564712  0.88303788  0.14509515  1
  O  O331  1  0.13640066  0.89023180  0.63373794  1
  O  O332  1  0.64323674  0.38593457  0.13128836  1
  O  O333  1  0.62135742  0.38570196  0.62601229  1
  O  O334  1  0.63384973  0.86073938  0.14295615  1
  O  O335  1  0.62543124  0.85960706  0.62971201  1
  O  O336  1  0.10165579  0.25723734  0.24514734  1
  O  O337  1  0.11584986  0.25975138  0.75657835  1
  O  O338  1  0.13019628  0.76454761  0.27693564  1
  O  O339  1  0.11335899  0.73238610  0.74148341  1
  O  O340  1  0.62757527  0.26464156  0.26605267  1
  O  O341  1  0.60567663  0.26682574  0.76217554  1
  O  O342  1  0.62801888  0.74960004  0.26771132  1
  O  O343  1  0.61499739  0.74824795  0.75692084  1
  O  O344  1  0.36773229  0.23568118  0.23851491  1
  O  O345  1  0.35609040  0.12622769  0.87186731  1
  O  O346  1  0.37543789  0.76003126  0.25983039  1
  O  O347  1  0.39483487  0.75031651  0.74909626  1
  O  O348  1  0.88797103  0.25125035  0.24062209  1
  O  O349  1  0.90074991  0.24534467  0.80414755  1
  O  O350  1  0.92304206  0.76538971  0.34022697  1
  O  O351  1  0.90332720  0.74080174  0.75284751  1
  O  O352  1  0.37546910  0.50446796  0.47301571  1
  O  O353  1  0.34006473  0.47058498  1.03106030  1
  O  O354  1  0.38224527  1.02060353  0.48330353  1
  O  O355  1  0.38811675  0.96710168  1.01124127  1
  O  O356  1  0.88196708  0.49364495  0.49398198  1
  O  O357  1  0.89219393  0.49202094  0.99918810  1
  O  O358  1  0.85335037  0.98813817  0.47483881  1
  O  O359  1  0.89632383  0.97937661  1.01207915  1
  O  O360  1  0.12114335  0.01513842  -0.00313777  1
  O  O361  1  0.11575626  0.01103687  0.50265387  1
  O  O362  1  0.10945007  0.50002750  0.00245777  1
  O  O363  1  0.11251008  0.50731872  0.49946726  1
  O  O364  1  0.61584668  -0.00604961  0.00655076  1
  O  O365  1  0.67983025  0.01762417  0.48810379  1
  O  O366  1  0.62625558  0.49013688  0.02028375  1
  O  O367  1  0.62651856  0.51245744  0.49033184  1
  O  O368  1  0.37162819  0.34851390  0.13204045  1
  O  O369  1  0.37087401  0.38819787  0.61850669  1
  O  O370  1  0.35671610  0.87821974  0.15281110  1
  O  O371  1  0.36374119  0.88503823  0.61648210  1
  O  O372  1  0.87131870  0.37967826  0.11119108  1
  O  O373  1  0.87992019  0.38570646  0.61264367  1
  O  O374  1  0.86289621  0.86647320  0.12408258  1
  O  O375  1  0.86914913  0.85708860  0.62532845  1
  O  O376  1  0.09385569  0.13194029  0.40257357  1
  O  O377  1  0.14026294  0.12003602  0.88236454  1
  O  O378  1  0.12189831  0.61270307  0.38438571  1
  O  O379  1  0.16055753  0.61465109  0.86948266  1
  O  O380  1  0.62337875  0.15720783  0.36714848  1
  O  O381  1  0.66779586  0.07041622  0.86832494  1
  O  O382  1  0.63014402  0.62474955  0.37795685  1
  O  O383  1  0.64095538  0.63589679  0.86019239  1
