# generated using pymatgen
data_VZnO4
_symmetry_space_group_name_H-M   'P 1'
_cell_length_a   16.89922568
_cell_length_b   16.97329119
_cell_length_c   17.09232130
_cell_angle_alpha   90.44863817
_cell_angle_beta   90.57081949
_cell_angle_gamma   90.45937768
_symmetry_Int_Tables_number   1
_chemical_formula_structural   VZnO4
_chemical_formula_sum   'V64 Zn64 O256'
_cell_volume   4902.12989251
_cell_formula_units_Z   64
loop_
 _symmetry_equiv_pos_site_id
 _symmetry_equiv_pos_as_xyz
  1  'x, y, z'
loop_
 _atom_site_type_symbol
 _atom_site_label
 _atom_site_symmetry_multiplicity
 _atom_site_fract_x
 _atom_site_fract_y
 _atom_site_fract_z
 _atom_site_occupancy
  V  V0  1  0.59188479  0.11694972  0.02870809  1
  V  V1  1  0.26247155  0.37441018  0.13410615  1
  V  V2  1  0.12295403  0.48915633  0.13586121  1
  V  V3  1  0.76213031  0.49097670  0.25858106  1
  V  V4  1  0.75292640  0.00037638  0.73234834  1
  V  V5  1  0.12103965  0.74757143  0.39103624  1
  V  V6  1  0.34030407  0.89049370  0.46360973  1
  V  V7  1  0.25168711  0.62039209  0.38416375  1
  V  V8  1  0.12343312  0.11980241  -0.00617688  1
  V  V9  1  0.25070681  0.40194526  0.62360019  1
  V  V10  1  0.42477997  0.61089279  0.74746101  1
  V  V11  1  0.00764023  0.85163198  0.87540582  1
  V  V12  1  0.63124112  0.36032129  0.74540209  1
  V  V13  1  0.03273062  0.63087186  0.63616881  1
  V  V14  1  0.03392449  0.50859280  0.50492596  1
  V  V15  1  0.75271792  0.00691258  0.25198428  1
  V  V16  1  0.51421322  -0.01534948  0.49615688  1
  V  V17  1  0.89369283  -0.01453879  0.37676371  1
  V  V18  1  0.12715952  0.62909689  -0.00393564  1
  V  V19  1  0.48841009  0.12605875  0.61096106  1
  V  V20  1  0.35615062  0.78521642  0.13280231  1
  V  V21  1  0.61057472  0.51108001  0.14318278  1
  V  V22  1  0.87651545  0.13845472  0.25772851  1
  V  V23  1  0.12506636  0.26830489  0.86570970  1
  V  V24  1  -0.00351973  0.63538884  0.13140368  1
  V  V25  1  0.88504142  0.26118229  0.62673714  1
  V  V26  1  0.36225905  0.61817971  0.24071764  1
  V  V27  1  0.38377371  0.75618509  0.64077303  1
  V  V28  1  0.11331586  0.26815758  0.37379514  1
  V  V29  1  0.62918689  0.87971634  0.26964032  1
  V  V30  1  0.73436564  0.88234667  0.10702507  1
  V  V31  1  0.87818328  0.51591334  0.85204179  1
  V  V32  1  0.86235185  0.72117286  0.64822950  1
  V  V33  1  0.35740966  0.11835967  0.75016213  1
  V  V34  1  0.12030168  0.11587972  0.50070974  1
  V  V35  1  -0.01437583  0.49347535  0.00137628  1
  V  V36  1  0.86401689  0.63532618  0.25326792  1
  V  V37  1  0.12324957  0.00456387  0.13985397  1
  V  V38  1  0.24454987  0.76905875  0.00412243  1
  V  V39  1  0.64066974  0.12176425  0.50704903  1
  V  V40  1  0.23540485  0.49676704  0.79099715  1
  V  V41  1  0.88471938  -0.00265577  0.88888833  1
  V  V42  1  0.41736308  0.13574656  0.23688301  1
  V  V43  1  0.25481139  0.25545341  0.51208897  1
  V  V44  1  0.62999082  0.87567578  0.75845807  1
  V  V45  1  0.73822098  0.12812012  0.88664896  1
  V  V46  1  0.24494365  0.11736603  0.36583022  1
  V  V47  1  0.76067207  0.86450726  0.60347218  1
  V  V48  1  0.49589721  0.38767488  0.88519660  1
  V  V49  1  -0.00966534  0.13770919  0.12342611  1
  V  V50  1  0.61163800  0.37633137  0.27473941  1
  V  V51  1  0.62119103  0.25051695  0.38491603  1
  V  V52  1  0.75374221  0.36838143  0.10742254  1
  V  V53  1  0.11602903  0.85815287  0.24016141  1
  V  V54  1  0.49684518  0.74987839  0.24710222  1
  V  V55  1  0.87669225  0.12857329  0.74837848  1
  V  V56  1  0.38547155  -0.03116950  0.84797264  1
  V  V57  1  -0.00126252  0.10624963  0.61719006  1
  V  V58  1  0.75939423  0.26742179  0.50017405  1
  V  V59  1  0.86788716  0.76393178  0.11477100  1
  V  V60  1  0.63721117  0.57650262  -0.02778031  1
  V  V61  1  0.25365344  0.25632318  0.00138221  1
  V  V62  1  0.50653511  0.22896885  0.76348380  1
  V  V63  1  0.88980693  0.39271854  0.50130801  1
  Zn  Zn64  1  0.17451428  0.19995414  0.18970910  1
  Zn  Zn65  1  0.18031222  0.18854238  0.68441533  1
  Zn  Zn66  1  0.18743829  0.68058150  0.18365102  1
  Zn  Zn67  1  0.24032352  0.62822067  0.65864493  1
  Zn  Zn68  1  0.67797694  0.19832752  0.18941895  1
  Zn  Zn69  1  0.69110764  0.19740425  0.67887204  1
  Zn  Zn70  1  0.68561976  0.69867754  0.18572184  1
  Zn  Zn71  1  0.71205002  0.70933286  0.71244036  1
  Zn  Zn72  1  0.30281666  0.29318201  0.30874542  1
  Zn  Zn73  1  0.30702481  0.30331223  0.81046552  1
  Zn  Zn74  1  0.28642967  0.81153083  0.29799969  1
  Zn  Zn75  1  0.35662025  0.75175179  0.84848763  1
  Zn  Zn76  1  0.88053349  0.34135471  0.29865002  1
  Zn  Zn77  1  0.81741429  0.31549023  0.84038233  1
  Zn  Zn78  1  0.94640886  0.80465399  0.30659892  1
  Zn  Zn79  1  0.85212128  0.83523963  0.78989194  1
  Zn  Zn80  1  0.24311764  0.41646534  0.40831368  1
  Zn  Zn81  1  0.17696317  0.43589789  0.95280295  1
  Zn  Zn82  1  0.15671613  0.93903491  0.42005550  1
  Zn  Zn83  1  0.15676343  0.93536991  0.94066864  1
  Zn  Zn84  1  0.69804429  0.45093304  0.44368899  1
  Zn  Zn85  1  0.70077679  0.42273297  0.90152015  1
  Zn  Zn86  1  0.70345970  0.94401864  0.43350293  1
  Zn  Zn87  1  0.68812315  0.96258662  0.93307231  1
  Zn  Zn88  1  0.29427940  0.09591535  0.10403724  1
  Zn  Zn89  1  0.33713478  0.08325139  0.51809515  1
  Zn  Zn90  1  0.30959189  0.56118629  0.06424934  1
  Zn  Zn91  1  0.34402244  0.56223476  0.55710803  1
  Zn  Zn92  1  0.80915439  0.06414471  0.06690440  1
  Zn  Zn93  1  0.82387773  0.05705863  0.55704021  1
  Zn  Zn94  1  0.80064698  0.56255951  0.07327097  1
  Zn  Zn95  1  0.73514047  0.56656699  0.60727579  1
  Zn  Zn96  1  0.44564080  0.43426433  0.06473625  1
  Zn  Zn97  1  0.40911652  0.39959508  0.72605559  1
  Zn  Zn98  1  0.43681702  0.94918777  0.30541000  1
  Zn  Zn99  1  0.44023399  0.94393692  0.67478431  1
  Zn  Zn100  1  0.93030493  0.44150706  0.17113948  1
  Zn  Zn101  1  0.90065083  0.51487249  0.64400543  1
  Zn  Zn102  1  0.94264962  0.94972513  0.18237420  1
  Zn  Zn103  1  0.94152116  0.93119306  0.68709184  1
  Zn  Zn104  1  0.05573302  0.07688184  0.31151821  1
  Zn  Zn105  1  0.04053863  0.10339482  0.82926149  1
  Zn  Zn106  1  0.06670030  0.55975688  0.31572865  1
  Zn  Zn107  1  0.05579664  0.56694072  0.81860347  1
  Zn  Zn108  1  0.57006170  0.06690357  0.32150616  1
  Zn  Zn109  1  0.56066279  0.04933795  0.80275785  1
  Zn  Zn110  1  0.42243007  0.44230311  0.32514021  1
  Zn  Zn111  1  0.61785166  0.56043381  0.77453300  1
  Zn  Zn112  1  0.41858383  0.21029898  0.40865450  1
  Zn  Zn113  1  0.42367382  0.16668803  0.93640638  1
  Zn  Zn114  1  0.40600904  0.73074861  0.40421798  1
  Zn  Zn115  1  0.44893284  0.58207071  0.93492542  1
  Zn  Zn116  1  0.93831012  0.18935497  0.43672634  1
  Zn  Zn117  1  0.94718275  0.20583503  0.93946628  1
  Zn  Zn118  1  0.96201534  0.64516404  0.42506763  1
  Zn  Zn119  1  0.93012865  0.67967511  0.94042571  1
  Zn  Zn120  1  0.06191509  0.31007614  0.05489731  1
  Zn  Zn121  1  0.07254443  0.31639320  0.56571921  1
  Zn  Zn122  1  0.05762219  0.81823691  0.05768781  1
  Zn  Zn123  1  0.20878080  0.79183506  0.55643757  1
  Zn  Zn124  1  0.60380246  0.31190750  0.00642605  1
  Zn  Zn125  1  0.56230583  0.30440159  0.57322979  1
  Zn  Zn126  1  0.52080732  0.88080694  0.12518981  1
  Zn  Zn127  1  0.55296479  0.82934069  0.60714417  1
  O  O128  1  0.11110209  0.12381009  0.12465750  1
  O  O129  1  0.10650183  0.12833296  0.61691396  1
  O  O130  1  0.10881023  0.61638941  0.12435586  1
  O  O131  1  0.13076707  0.65164419  0.63396120  1
  O  O132  1  0.61900003  0.12693620  0.12607609  1
  O  O133  1  0.61895065  0.12980825  0.60755775  1
  O  O134  1  0.61651181  0.60991237  0.15308451  1
  O  O135  1  0.56586319  0.55524916  0.56930155  1
  O  O136  1  0.34575803  0.37881610  0.37274884  1
  O  O137  1  0.39884049  0.36622997  0.84704289  1
  O  O138  1  0.34935404  0.89390357  0.36175931  1
  O  O139  1  0.37921220  0.86916332  0.84370088  1
  O  O140  1  0.88103947  0.38675286  0.40338651  1
  O  O141  1  0.98347847  0.35331463  0.77414490  1
  O  O142  1  0.88503843  0.88469783  0.36218052  1
  O  O143  1  0.87637438  0.89385352  0.88760114  1
  O  O144  1  0.22164336  0.01921819  0.37096934  1
  O  O145  1  0.27272010  -0.01513763  0.89589181  1
  O  O146  1  0.24135825  0.52210062  0.36856572  1
  O  O147  1  0.25454033  0.48880886  0.88867254  1
  O  O148  1  0.76796526  -0.00320335  0.35582482  1
  O  O149  1  0.76991644  0.01590642  0.85828786  1
  O  O150  1  0.75502618  0.50209079  0.35689092  1
  O  O151  1  0.81468854  0.44327213  0.88639350  1
  O  O152  1  0.23292428  0.48517575  0.11922374  1
  O  O153  1  0.25607519  0.50397252  0.61140463  1
  O  O154  1  0.22463502  1.01407071  0.13070450  1
  O  O155  1  0.17709176  0.97383739  0.66215717  1
  O  O156  1  0.73262119  0.48668159  0.13648879  1
  O  O157  1  0.69619976  0.60112538  0.70423604  1
  O  O158  1  0.76400020  0.98554791  0.13885284  1
  O  O159  1  0.77017613  0.98071643  0.62809269  1
  O  O160  1  -0.02761154  0.37815883  0.24948331  1
  O  O161  1  0.02134227  0.39529890  0.73077879  1
  O  O162  1  0.00777719  0.87791995  0.24441526  1
  O  O163  1  -0.03343080  0.86485847  0.77258623  1
  O  O164  1  0.51409242  0.37966448  0.27441487  1
  O  O165  1  0.50833049  0.33742019  0.74792290  1
  O  O166  1  0.52335256  0.90223402  0.24090440  1
  O  O167  1  0.53367932  0.88510672  0.71707751  1
  O  O168  1  0.51913537  0.13555348  0.24822800  1
  O  O169  1  0.49371863  0.11833193  0.73173698  1
  O  O170  1  0.48265945  0.65207917  0.25020939  1
  O  O171  1  0.52478609  0.62374957  0.74640481  1
  O  O172  1  0.98498754  0.13273076  0.23788239  1
  O  O173  1  0.98597231  0.12179010  0.72954989  1
  O  O174  1  0.98870927  0.61786523  0.23364610  1
  O  O175  1  1.00906110  0.62274525  0.73349921  1
  O  O176  1  0.35153982  0.23900214  -0.00821100  1
  O  O177  1  0.35461440  0.24002985  0.49793246  1
  O  O178  1  0.35521245  0.77229080  0.02689915  1
  O  O179  1  0.37914097  0.80068334  0.48759406  1
  O  O180  1  0.89007308  0.29604661  -0.07870050  1
  O  O181  1  0.87372703  0.26144788  0.50579615  1
  O  O182  1  0.87232327  0.74518846  0.01721407  1
  O  O183  1  0.88932870  0.75616500  0.49066072  1
  O  O184  1  0.13157521  0.24391538  0.49710686  1
  O  O185  1  0.12809355  0.24274066  0.98501153  1
  O  O186  1  0.12123953  0.75743344  0.48931934  1
  O  O187  1  0.13131832  0.73716724  1.01617171  1
  O  O188  1  0.64113233  0.24708700  0.50200885  1
  O  O189  1  0.61773951  0.20399957  0.98257754  1
  O  O190  1  0.55508554  0.62452954  0.55512012  1
  O  O191  1  0.57393515  0.78666251  0.94150341  1
  O  O192  1  0.58288406  0.31633494  0.12453403  1
  O  O193  1  0.49644369  0.22849540  0.63003575  1
  O  O194  1  0.47274545  0.77714130  0.14243000  1
  O  O195  1  0.47898945  0.74620366  0.60026919  1
  O  O196  1  1.00275501  0.23852651  0.12101882  1
  O  O197  1  0.98811511  0.24726683  0.61868937  1
  O  O198  1  0.99141514  0.73957761  0.12072119  1
  O  O199  1  0.96406137  0.72185694  0.63004906  1
  O  O200  1  0.01139777  0.26161914  0.39024464  1
  O  O201  1  0.03059777  0.21889624  0.86037711  1
  O  O202  1  0.01476564  0.73262063  0.36872845  1
  O  O203  1  -0.00557597  0.75107795  0.87925641  1
  O  O204  1  0.52317888  0.26024679  0.40072886  1
  O  O205  1  0.49333934  0.22358011  0.86157577  1
  O  O206  1  0.48389885  0.78335933  0.34225879  1
  O  O207  1  0.51847841  0.82246116  0.96988359  1
  O  O208  1  0.22921384  0.12927737  0.50466468  1
  O  O209  1  0.22995490  0.14322719  1.01892583  1
  O  O210  1  0.27681924  0.62216023  0.48234020  1
  O  O211  1  0.22859997  0.62410200  1.01444837  1
  O  O212  1  0.74131616  0.12258560  0.50573066  1
  O  O213  1  0.75700255  0.12489997  0.98565254  1
  O  O214  1  0.73017170  0.66259683  0.44506150  1
  O  O215  1  0.71825465  0.62093136  1.01824286  1
  O  O216  1  0.24253938  0.36285106  0.01418540  1
  O  O217  1  0.25009277  0.36402417  0.51421175  1
  O  O218  1  0.22193453  0.86588604  0.00390854  1
  O  O219  1  0.24090654  0.88800879  0.49299132  1
  O  O220  1  0.70968507  0.37008377  0.01065065  1
  O  O221  1  0.76477143  0.36963471  0.50636300  1
  O  O222  1  0.74761615  0.89595088  0.01031390  1
  O  O223  1  0.75756590  0.87625809  0.50620454  1
  O  O224  1  0.11732957  0.50263942  0.23370520  1
  O  O225  1  0.13567453  0.49934402  0.77609733  1
  O  O226  1  0.11255510  1.00688201  0.24018484  1
  O  O227  1  0.16284921  0.98076729  0.73197379  1
  O  O228  1  0.64193341  0.48066192  0.25192773  1
  O  O229  1  0.60690565  0.45521524  0.73047194  1
  O  O230  1  0.64391467  0.99837246  0.26419377  1
  O  O231  1  0.64933989  1.00123397  0.73525955  1
  O  O232  1  0.38871785  0.04170966  0.26141084  1
  O  O233  1  0.37216632  0.00198373  0.74489075  1
  O  O234  1  0.38293919  0.52148931  0.25325140  1
  O  O235  1  0.41520808  0.51113794  0.74586710  1
  O  O236  1  0.87023178  0.00755079  0.25622569  1
  O  O237  1  0.86950929  0.01246610  0.74645062  1
  O  O238  1  0.86404447  0.51984013  0.23479276  1
  O  O239  1  0.88160230  0.50188620  0.75266889  1
  O  O240  1  0.14022868  0.36533394  0.38440563  1
  O  O241  1  0.11126453  0.36557766  0.88244812  1
  O  O242  1  0.11414206  0.85318646  0.35962992  1
  O  O243  1  0.10602455  0.87897625  0.85757900  1
  O  O244  1  0.63898218  0.37164487  0.37805666  1
  O  O245  1  0.60044803  0.36134933  0.86724061  1
  O  O246  1  0.63642076  0.87388807  0.36684036  1
  O  O247  1  0.62644279  0.90517565  0.85420984  1
  O  O248  1  0.38306715  0.15028580  0.14147364  1
  O  O249  1  0.38463366  0.11025021  0.62164712  1
  O  O250  1  0.36379004  0.63249484  0.14058940  1
  O  O251  1  0.38938646  0.62518609  0.64169971  1
  O  O252  1  0.88409757  0.12550736  0.13290325  1
  O  O253  1  0.88820766  0.12923087  0.62259003  1
  O  O254  1  0.88118297  0.63537106  0.12742214  1
  O  O255  1  0.84207491  0.62057903  0.62352117  1
  O  O256  1  0.23655070  0.26408953  0.11483896  1
  O  O257  1  0.24671481  0.24341432  0.61101059  1
  O  O258  1  0.25123507  0.75272082  0.12260894  1
  O  O259  1  0.28199859  0.72659181  0.60894474  1
  O  O260  1  0.74508792  0.27200371  0.13434064  1
  O  O261  1  0.77239450  0.23738588  0.60692743  1
  O  O262  1  0.75618068  0.77089166  0.12479204  1
  O  O263  1  0.76197661  0.75127583  0.60834830  1
  O  O264  1  0.23454496  0.23678878  0.39203635  1
  O  O265  1  0.23773990  0.25936128  0.89087699  1
  O  O266  1  0.23240214  0.74477394  0.37360065  1
  O  O267  1  0.26082493  0.74498124  0.90825214  1
  O  O268  1  0.74566758  0.24763503  0.40254586  1
  O  O269  1  0.74818679  0.22227449  0.85710940  1
  O  O270  1  0.70411362  0.71510477  0.40370355  1
  O  O271  1  0.74775563  0.76764481  0.91769459  1
  O  O272  1  0.01063966  0.13637012  0.00748606  1
  O  O273  1  0.00508977  0.12736862  0.51077956  1
  O  O274  1  0.00527438  0.62049629  0.01409856  1
  O  O275  1  0.00833260  0.61886009  0.52370265  1
  O  O276  1  0.48741231  0.11666680  0.01348048  1
  O  O277  1  0.50428796  0.11991741  0.50743352  1
  O  O278  1  0.55458286  0.63285389  -0.03677249  1
  O  O279  1  0.51023161  0.57483471  0.39862609  1
  O  O280  1  0.50392572  0.38618913  0.51010406  1
  O  O281  1  0.49632464  0.36329032  0.98611920  1
  O  O282  1  0.53041934  0.88832335  0.50738570  1
  O  O283  1  0.45823634  0.94651265  1.04564674  1
  O  O284  1  0.99896372  0.39821860  0.51601227  1
  O  O285  1  0.99769612  0.39461880  1.00645423  1
  O  O286  1  0.92729042  0.81839567  0.48950978  1
  O  O287  1  1.00693615  0.87667284  0.97651659  1
  O  O288  1  0.51925078  0.49825837  0.37904109  1
  O  O289  1  0.50115031  0.48584535  0.88161863  1
  O  O290  1  0.50349593  1.00024156  0.39186828  1
  O  O291  1  0.48299871  0.99143182  0.86422939  1
  O  O292  1  1.00423552  0.52849072  0.40455465  1
  O  O293  1  0.98208036  0.50626980  0.88830717  1
  O  O294  1  0.99410759  1.00238845  0.37115895  1
  O  O295  1  0.98410009  1.01062853  0.86504104  1
  O  O296  1  0.00724446  0.02243013  0.12178316  1
  O  O297  1  -0.00578306  0.00638460  0.62038039  1
  O  O298  1  0.00493327  0.51035956  0.11610900  1
  O  O299  1  0.01564690  0.52159609  0.62080618  1
  O  O300  1  0.43458392  0.01132130  0.07144355  1
  O  O301  1  0.50552604  0.01031431  0.60389169  1
  O  O302  1  0.51432594  0.48338635  0.14824828  1
  O  O303  1  0.46051576  0.43888420  0.55036777  1
  O  O304  1  0.24964338  0.36069351  0.23190856  1
  O  O305  1  0.26420574  0.40245354  0.74547633  1
  O  O306  1  0.21447746  0.88452819  0.25034766  1
  O  O307  1  0.22160993  0.82076305  0.73569522  1
  O  O308  1  0.77374668  0.38921655  0.24766533  1
  O  O309  1  0.72822452  0.36166286  0.78299983  1
  O  O310  1  0.72950038  0.88582316  0.23595129  1
  O  O311  1  0.75296499  0.89334663  0.75326680  1
  O  O312  1  0.24530120  0.13889592  0.26781039  1
  O  O313  1  0.25960119  0.11840176  0.73169802  1
  O  O314  1  0.25677539  0.62653243  0.25545095  1
  O  O315  1  0.27260733  0.58760080  0.75784895  1
  O  O316  1  0.76041891  0.11198448  0.23785138  1
  O  O317  1  0.76475767  0.11398864  0.72968547  1
  O  O318  1  0.75951521  0.62367719  0.23911171  1
  O  O319  1  0.71139900  0.71232860  0.88770270  1
  O  O320  1  0.34466090  0.11295989  0.40495077  1
  O  O321  1  0.36806939  0.10459517  0.85175013  1
  O  O322  1  0.36085287  0.64043545  0.35820703  1
  O  O323  1  0.40379972  0.64205715  0.85093150  1
  O  O324  1  0.88520387  0.11836514  0.35934553  1
  O  O325  1  0.87453799  0.12626978  0.85218541  1
  O  O326  1  0.87481450  0.63781052  0.35200704  1
  O  O327  1  0.85674847  0.61086658  0.87934793  1
  O  O328  1  0.11688784  0.38811667  0.12312827  1
  O  O329  1  0.15193094  0.37029253  0.63238672  1
  O  O330  1  0.10901179  0.89384341  0.13207568  1
  O  O331  1  0.12834491  0.82958795  0.64194695  1
  O  O332  1  0.63277722  0.37423411  0.15752204  1
  O  O333  1  0.64471047  0.32766768  0.64890730  1
  O  O334  1  0.63344351  0.87916355  0.11164216  1
  O  O335  1  0.65979986  0.86230059  0.63469983  1
  O  O336  1  0.11997713  0.24727485  0.27491455  1
  O  O337  1  0.14975538  0.25526553  0.76816785  1
  O  O338  1  0.11776246  0.75777303  0.23466118  1
  O  O339  1  0.14924824  0.81168980  0.71626899  1
  O  O340  1  0.63548665  0.26409651  0.27791453  1
  O  O341  1  0.61057691  0.22894205  0.75626326  1
  O  O342  1  0.60839524  0.77022888  0.23978562  1
  O  O343  1  0.64190347  0.77572454  0.76618488  1
  O  O344  1  0.39003593  0.21992336  0.29597377  1
  O  O345  1  0.38057093  0.22356349  0.74981752  1
  O  O346  1  0.36758759  0.75069816  0.24117987  1
  O  O347  1  0.39173652  0.73416712  0.74021422  1
  O  O348  1  0.86004847  0.23530968  0.26151540  1
  O  O349  1  0.86936851  0.23628474  0.73277444  1
  O  O350  1  0.87722754  0.73990182  0.23233351  1
  O  O351  1  0.83642269  0.72924246  0.74708818  1
  O  O352  1  0.41432411  0.48242159  0.50278663  1
  O  O353  1  0.39714913  0.52082092  1.01127079  1
  O  O354  1  0.39090925  0.97485783  0.50305316  1
  O  O355  1  0.33273232  0.98737558  0.94896416  1
  O  O356  1  0.87250840  0.48821957  0.52999481  1
  O  O357  1  0.88717311  0.51235093  1.01306447  1
  O  O358  1  0.87150243  1.00086938  0.47456740  1
  O  O359  1  0.87751497  1.01946404  0.98436463  1
  O  O360  1  0.12313601  0.01703019  0.01398130  1
  O  O361  1  0.11800636  0.01675776  0.49688744  1
  O  O362  1  0.10970237  0.51131359  0.01133881  1
  O  O363  1  0.12916931  0.50289190  0.50431274  1
  O  O364  1  0.62272021  0.02245471  0.00172087  1
  O  O365  1  0.62512101  0.01497216  0.48989376  1
  O  O366  1  0.61281104  0.49675446  0.03382508  1
  O  O367  1  0.67769286  0.51804680  0.52857322  1
  O  O368  1  0.36111335  0.38144980  0.12391320  1
  O  O369  1  0.34981230  0.36909174  0.63401710  1
  O  O370  1  0.35100946  0.88029566  0.14925514  1
  O  O371  1  0.37261743  0.85724104  0.64055973  1
  O  O372  1  0.85201819  0.38623980  0.10316082  1
  O  O373  1  0.88026930  0.36147542  0.62171073  1
  O  O374  1  0.87717026  0.86504080  0.12616499  1
  O  O375  1  0.86432341  0.85001988  0.63752424  1
  O  O376  1  0.12206486  0.13529239  0.39033080  1
  O  O377  1  0.13545455  0.10976657  0.89399551  1
  O  O378  1  0.13770512  0.63814440  0.36996725  1
  O  O379  1  0.11519757  0.62585704  0.89840932  1
  O  O380  1  0.62477020  0.14290587  0.39389094  1
  O  O381  1  0.64239593  0.10099633  0.86455327  1
  O  O382  1  0.57320054  0.61632609  0.40535178  1
  O  O383  1  0.66361154  0.53507454  0.88022896  1
