# generated using pymatgen
data_VZnO4
_symmetry_space_group_name_H-M   'P 1'
_cell_length_a   16.90827082
_cell_length_b   16.95742880
_cell_length_c   17.01834113
_cell_angle_alpha   89.80288533
_cell_angle_beta   89.57352720
_cell_angle_gamma   90.26262690
_symmetry_Int_Tables_number   1
_chemical_formula_structural   VZnO4
_chemical_formula_sum   'V64 Zn64 O256'
_cell_volume   4879.29647552
_cell_formula_units_Z   64
loop_
 _symmetry_equiv_pos_site_id
 _symmetry_equiv_pos_as_xyz
  1  'x, y, z'
loop_
 _atom_site_type_symbol
 _atom_site_label
 _atom_site_symmetry_multiplicity
 _atom_site_fract_x
 _atom_site_fract_y
 _atom_site_fract_z
 _atom_site_occupancy
  V  V0  1  0.12444491  0.25896176  0.35677459  1
  V  V1  1  0.62299969  0.36803528  0.24900290  1
  V  V2  1  0.51283606  0.36800248  0.84867848  1
  V  V3  1  0.85175737  0.86895874  0.48051866  1
  V  V4  1  0.24428140  -0.00505450  0.24221495  1
  V  V5  1  0.37466773  0.49495994  0.86286861  1
  V  V6  1  0.37248157  0.62459173  0.21809251  1
  V  V7  1  0.14642385  0.63983657  0.48237447  1
  V  V8  1  0.10637245  0.01141546  0.11184683  1
  V  V9  1  0.36465793  0.23566831  0.12374776  1
  V  V10  1  0.75509440  0.28248362  0.47932047  1
  V  V11  1  0.79029707  0.87481696  0.13085252  1
  V  V12  1  0.36115672  0.50440535  0.36316350  1
  V  V13  1  -0.00926797  0.49206087  -0.03378128  1
  V  V14  1  0.24861273  0.35399652  0.61702711  1
  V  V15  1  0.88577910  0.00245090  0.87852845  1
  V  V16  1  0.00681933  -0.04230620  0.47543230  1
  V  V17  1  0.48929422  0.23840184  0.24079389  1
  V  V18  1  0.13066662  0.50864986  0.62380745  1
  V  V19  1  0.25252750  0.12210911  0.36810636  1
  V  V20  1  0.74435127  0.00818561  0.76397849  1
  V  V21  1  0.36526680  0.35605364  0.49274456  1
  V  V22  1  0.49500719  0.15155648  0.62825221  1
  V  V23  1  0.01611707  0.08380042  0.63343051  1
  V  V24  1  0.49203195  0.50944274  0.49413494  1
  V  V25  1  0.64221382  0.14238099  0.48676159  1
  V  V26  1  0.22202307  0.85950444  0.10928312  1
  V  V27  1  0.50065671  0.74635881  0.75002698  1
  V  V28  1  0.60065498  0.75077977  0.37551381  1
  V  V29  1  0.49016315  0.36935267  0.36356074  1
  V  V30  1  0.60846958  -0.00902660  0.11801970  1
  V  V31  1  0.02835785  0.82116991  0.88141237  1
  V  V32  1  0.03035476  0.66858797  0.63747211  1
  V  V33  1  0.63048596  0.02190965  0.62979295  1
  V  V34  1  0.23341507  0.49116895  0.24667545  1
  V  V35  1  0.63730063  0.62132946  -0.01452120  1
  V  V36  1  0.86564714  0.36514113  -0.02403057  1
  V  V37  1  0.87530313  0.12272893  0.74065841  1
  V  V38  1  0.61994535  0.88627384  0.73524457  1
  V  V39  1  0.88645190  0.09568515  0.31515678  1
  V  V40  1  0.13041530  0.37843512  0.75503044  1
  V  V41  1  0.49511552  0.49441399  0.00038199  1
  V  V42  1  0.29792963  0.88735653  0.62410842  1
  V  V43  1  0.25663308  -0.00566225  0.76804424  1
  V  V44  1  0.84904988  0.76000452  0.63534807  1
  V  V45  1  -0.01322110  0.63176712  0.12986302  1
  V  V46  1  0.26510428  0.78819870  0.46927561  1
  V  V47  1  0.62391288  0.78307243  0.88395145  1
  V  V48  1  0.25806402  0.51464789  0.74467636  1
  V  V49  1  0.89636282  0.24404558  0.12132683  1
  V  V50  1  0.25034429  0.37319190  0.11492057  1
  V  V51  1  0.74223620  0.35058356  0.11080515  1
  V  V52  1  0.83798094  0.62981010  0.78010910  1
  V  V53  1  0.24260880  0.24385049  -0.01298326  1
  V  V54  1  0.65025570  0.50518932  0.65038089  1
  V  V55  1  0.76133171  0.76688426  -0.00070133  1
  V  V56  1  0.09472051  0.47623618  0.12714624  1
  V  V57  1  0.50672477  0.01635613  0.48374437  1
  V  V58  1  0.37140052  0.13370839  0.76760244  1
  V  V59  1  0.12105901  0.23855773  0.86995912  1
  V  V60  1  0.86783396  0.30104727  0.63752978  1
  V  V61  1  0.00271725  0.25416295  0.74197980  1
  V  V62  1  0.63724386  0.50301166  0.12476065  1
  V  V63  1  0.00459332  0.51179122  0.49041198  1
  Zn  Zn64  1  0.17217532  0.18467446  0.18630334  1
  Zn  Zn65  1  0.18978539  0.17348426  0.69439258  1
  Zn  Zn66  1  0.18288557  0.65608587  0.14785401  1
  Zn  Zn67  1  0.23515610  0.68802294  0.63759721  1
  Zn  Zn68  1  0.76395931  0.07287885  0.18723772  1
  Zn  Zn69  1  0.71994489  0.18553415  0.64110412  1
  Zn  Zn70  1  0.67440172  0.70544008  0.17784349  1
  Zn  Zn71  1  0.66724006  0.68348775  0.68970866  1
  Zn  Zn72  1  0.30097209  0.30808238  0.30527095  1
  Zn  Zn73  1  0.31713698  0.31852057  0.80538335  1
  Zn  Zn74  1  0.27015462  0.78735265  0.25709354  1
  Zn  Zn75  1  0.32548954  0.82695740  0.82582400  1
  Zn  Zn76  1  0.79054988  0.25881533  0.27672395  1
  Zn  Zn77  1  0.78393229  0.30056044  0.79079899  1
  Zn  Zn78  1  0.78847645  0.78120036  0.30772336  1
  Zn  Zn79  1  0.80756576  0.82052122  0.81269705  1
  Zn  Zn80  1  0.17932454  0.43617571  0.43897272  1
  Zn  Zn81  1  0.18408312  0.44109328  0.93715995  1
  Zn  Zn82  1  0.20224627  0.97921052  0.46297307  1
  Zn  Zn83  1  0.17946366  0.92167651  0.93794020  1
  Zn  Zn84  1  0.69076801  0.47008016  0.50443983  1
  Zn  Zn85  1  0.67345408  0.42234098  0.93821081  1
  Zn  Zn86  1  0.65549403  0.91976770  0.48000703  1
  Zn  Zn87  1  0.74737357  0.99115234  0.99586094  1
  Zn  Zn88  1  0.28811237  0.06003608  0.05600909  1
  Zn  Zn89  1  0.32088537  0.07413440  0.55023541  1
  Zn  Zn90  1  0.31545547  0.54152700  0.05711714  1
  Zn  Zn91  1  0.31859904  0.54818490  0.55321757  1
  Zn  Zn92  1  0.93098564  0.07121722  0.05986317  1
  Zn  Zn93  1  0.84983777  0.08060742  0.52241766  1
  Zn  Zn94  1  0.81523939  0.55341232  0.05464700  1
  Zn  Zn95  1  0.85306688  0.55115904  0.61398431  1
  Zn  Zn96  1  0.43034052  0.43642178  0.18078710  1
  Zn  Zn97  1  0.43557980  0.42691244  0.67562101  1
  Zn  Zn98  1  0.40495548  0.94744501  0.12277959  1
  Zn  Zn99  1  0.44917832  0.95921187  0.68938468  1
  Zn  Zn100  1  0.90855217  0.40266362  0.20470073  1
  Zn  Zn101  1  0.95776897  0.46365008  0.71693537  1
  Zn  Zn102  1  0.93971700  0.94374412  0.20819998  1
  Zn  Zn103  1  0.94532595  0.91938201  0.72040098  1
  Zn  Zn104  1  0.07376420  0.06906034  0.29832413  1
  Zn  Zn105  1  0.06448369  0.06602657  0.93249439  1
  Zn  Zn106  1  0.06501737  0.57887298  0.30746660  1
  Zn  Zn107  1  0.05823747  0.62186232  0.83972821  1
  Zn  Zn108  1  0.58795538  0.07235302  0.29580580  1
  Zn  Zn109  1  0.54914334  0.07442085  0.81265227  1
  Zn  Zn110  1  0.54959386  0.55408368  0.29809741  1
  Zn  Zn111  1  0.56859962  0.55503538  0.80798734  1
  Zn  Zn112  1  0.44089888  0.17849133  0.42861972  1
  Zn  Zn113  1  0.41473434  0.22686950  0.92373724  1
  Zn  Zn114  1  0.41221675  0.68553473  0.42527661  1
  Zn  Zn115  1  0.46618437  0.65931475  0.90070941  1
  Zn  Zn116  1  1.01783935  0.13830781  0.44083421  1
  Zn  Zn117  1  0.92878118  0.19562932  0.92669325  1
  Zn  Zn118  1  0.92671282  0.67325533  0.48620236  1
  Zn  Zn119  1  0.93359622  0.67354531  0.95388041  1
  Zn  Zn120  1  0.05793146  0.31970663  0.04494311  1
  Zn  Zn121  1  0.05232284  0.32799522  0.55993554  1
  Zn  Zn122  1  0.01006838  0.84047906  0.08047080  1
  Zn  Zn123  1  0.11675978  0.83213561  0.56284176  1
  Zn  Zn124  1  0.54199322  0.32497148  0.06637981  1
  Zn  Zn125  1  0.56638410  0.32915283  0.55609415  1
  Zn  Zn126  1  0.56823766  0.80845513  0.07471560  1
  Zn  Zn127  1  0.50285557  0.82815487  0.56849752  1
  O  O128  1  0.12191058  0.11281709  0.11353791  1
  O  O129  1  0.10797631  0.12657574  0.63296314  1
  O  O130  1  0.09787037  0.58500925  0.11636720  1
  O  O131  1  0.13694848  0.62727845  0.62191650  1
  O  O132  1  0.64599888  0.05489939  0.19731764  1
  O  O133  1  0.61660659  0.13571755  0.62925470  1
  O  O134  1  0.63469290  0.60369530  0.11868406  1
  O  O135  1  0.61425679  0.59905506  0.63267155  1
  O  O136  1  0.36941977  0.37446763  0.37541790  1
  O  O137  1  0.38849856  0.38340228  0.86665694  1
  O  O138  1  0.39997279  0.90706230  0.35553837  1
  O  O139  1  0.37868536  0.86135096  0.93350974  1
  O  O140  1  0.84440241  0.47305895  0.32426952  1
  O  O141  1  0.85279119  0.34278922  0.88029553  1
  O  O142  1  0.84046634  0.84476274  0.38458696  1
  O  O143  1  0.85662328  0.90624293  0.87122812  1
  O  O144  1  0.23673788  0.00881284  0.35185474  1
  O  O145  1  0.26049759  -0.03126181  0.86697219  1
  O  O146  1  0.24994691  0.48603422  0.35496793  1
  O  O147  1  0.26140765  0.48913606  0.85770208  1
  O  O148  1  0.72563994  -0.02191533  0.38487741  1
  O  O149  1  0.74549084  0.02326209  0.86217764  1
  O  O150  1  0.74583704  0.57201955  0.44480214  1
  O  O151  1  0.76234792  0.47016413  0.84921885  1
  O  O152  1  0.23588226  0.48341188  0.12315644  1
  O  O153  1  0.24985851  0.49385671  0.63122090  1
  O  O154  1  0.22451595  0.98553114  0.11792415  1
  O  O155  1  0.27197626  0.98472016  0.61476856  1
  O  O156  1  0.73914594  0.48468782  0.11843080  1
  O  O157  1  0.74759077  0.51133122  0.60785092  1
  O  O158  1  0.77834925  0.98111644  0.12066594  1
  O  O159  1  0.73130204  1.01474452  0.64284321  1
  O  O160  1  -0.10578870  0.41083975  0.32836715  1
  O  O161  1  0.02055530  0.37288821  0.74546587  1
  O  O162  1  -0.00495513  0.84351816  0.23982664  1
  O  O163  1  -0.02061556  0.84425480  0.79518260  1
  O  O164  1  0.49532663  0.37107427  0.24878472  1
  O  O165  1  0.49964667  0.37392878  0.74857735  1
  O  O166  1  0.44237146  0.91044971  0.29648827  1
  O  O167  1  0.51620647  0.88172381  0.75354732  1
  O  O168  1  0.50217794  0.14161722  0.25049800  1
  O  O169  1  0.48594281  0.13437530  0.73706985  1
  O  O170  1  0.46997549  0.60282306  0.23466836  1
  O  O171  1  0.51108019  0.64524534  0.76809943  1
  O  O172  1  0.97282024  0.12715072  0.27383866  1
  O  O173  1  0.99392740  0.14395467  0.73245519  1
  O  O174  1  1.00502097  0.62950463  0.22968882  1
  O  O175  1  1.02819454  0.64686905  0.73425093  1
  O  O176  1  0.35260608  0.25522778  0.01094028  1
  O  O177  1  0.37297172  0.25877251  0.48588341  1
  O  O178  1  0.41847276  0.81397422  -0.02055047  1
  O  O179  1  0.35680031  0.75234532  0.49647430  1
  O  O180  1  0.87538249  0.26041246  0.00840374  1
  O  O181  1  0.84663726  0.27435970  0.53952380  1
  O  O182  1  0.85780448  0.74715594  -0.00908877  1
  O  O183  1  0.86490883  0.76761854  0.52490886  1
  O  O184  1  0.08239758  0.24757064  0.48178008  1
  O  O185  1  0.12897589  0.25949931  0.97690453  1
  O  O186  1  0.15817158  0.74823965  0.48726342  1
  O  O187  1  0.21090775  0.66403324  1.02134048  1
  O  O188  1  0.64859865  0.25644944  0.50468814  1
  O  O189  1  0.59994889  0.23281253  1.00263918  1
  O  O190  1  0.58384199  0.74493805  0.47974045  1
  O  O191  1  0.62781109  0.74050025  0.99057252  1
  O  O192  1  0.47465463  0.25384187  0.12604969  1
  O  O193  1  0.50972139  0.25026539  0.61673301  1
  O  O194  1  0.56802694  0.73234380  0.15595784  1
  O  O195  1  0.51789226  0.75386811  0.64932463  1
  O  O196  1  0.99535605  0.25017274  0.11197474  1
  O  O197  1  0.97894082  0.27248086  0.63234124  1
  O  O198  1  1.00171912  0.72527976  0.09713831  1
  O  O199  1  1.05060874  0.76628645  0.62899845  1
  O  O200  1  0.02391218  0.25618659  0.41576485  1
  O  O201  1  0.01425384  0.25175710  0.85702896  1
  O  O202  1  -0.03060794  0.72315358  0.37374944  1
  O  O203  1  0.02271519  0.71488949  0.89586479  1
  O  O204  1  0.48307761  0.25895870  0.35185181  1
  O  O205  1  0.50174389  0.26811924  0.87306757  1
  O  O206  1  0.49470229  0.74678971  0.37116986  1
  O  O207  1  0.52141390  0.75392850  0.87371028  1
  O  O208  1  0.23765787  0.09097146  0.47503112  1
  O  O209  1  0.23964277  0.14520108  0.99638856  1
  O  O210  1  0.24720752  0.62904108  0.51432943  1
  O  O211  1  0.23653616  0.60107231  0.98872351  1
  O  O212  1  0.74697792  0.14758835  0.52487865  1
  O  O213  1  0.59534976  0.16779269  1.03688632  1
  O  O214  1  0.75956394  0.62644789  0.49220828  1
  O  O215  1  0.73939121  0.63436985  1.00628278  1
  O  O216  1  0.24049144  0.36891094  0.00961098  1
  O  O217  1  0.25426032  0.37360833  0.50613757  1
  O  O218  1  0.22111987  0.84163398  0.01181179  1
  O  O219  1  0.27218085  0.88873028  0.49483338  1
  O  O220  1  0.75045957  0.36979616  0.00247896  1
  O  O221  1  0.74919619  0.38109646  0.47282363  1
  O  O222  1  0.76107293  0.87097406  0.00755980  1
  O  O223  1  0.75687927  0.88526060  0.51344073  1
  O  O224  1  0.12762726  0.49435855  0.23983711  1
  O  O225  1  0.14635466  0.49209725  0.74070201  1
  O  O226  1  0.12456634  1.00480474  0.22296917  1
  O  O227  1  0.16431668  0.98544735  0.74271219  1
  O  O228  1  0.61452066  0.48341844  0.23063601  1
  O  O229  1  0.63641606  0.48984705  0.74823072  1
  O  O230  1  0.69480131  0.98138875  0.31828171  1
  O  O231  1  0.62081432  1.00252608  0.75107741  1
  O  O232  1  0.34069762  0.00455594  0.21312637  1
  O  O233  1  0.37687191  0.02245366  0.74764135  1
  O  O234  1  0.35738466  0.49656927  0.25056853  1
  O  O235  1  0.36614672  0.49172021  0.75020164  1
  O  O236  1  0.87772574  -0.00159730  0.28619447  1
  O  O237  1  0.86654450  0.01032558  0.75679116  1
  O  O238  1  0.83935179  0.50058834  0.25150052  1
  O  O239  1  0.88475621  0.54996943  0.72666882  1
  O  O240  1  0.13559454  0.35864771  0.37270209  1
  O  O241  1  0.13723419  0.37113131  0.85653658  1
  O  O242  1  0.05292198  0.85173927  0.29647368  1
  O  O243  1  0.12488329  0.84932283  0.86934866  1
  O  O244  1  0.60505312  0.37577307  0.35014894  1
  O  O245  1  0.61471773  0.37753551  0.85759711  1
  O  O246  1  0.61147707  0.85402009  0.38911198  1
  O  O247  1  0.61752028  0.87921140  0.88708311  1
  O  O248  1  0.35660810  0.13833237  0.11817522  1
  O  O249  1  0.39561807  0.13764206  0.60873137  1
  O  O250  1  0.36482877  0.62079669  0.11701563  1
  O  O251  1  0.39089986  0.61912632  0.62716616  1
  O  O252  1  0.86699181  0.14495787  0.12528046  1
  O  O253  1  0.90001122  0.10990858  0.63062957  1
  O  O254  1  0.88766725  0.60711468  0.12324627  1
  O  O255  1  0.91882914  0.66965222  0.61939418  1
  O  O256  1  0.24659815  0.25737307  0.11776924  1
  O  O257  1  0.23582900  0.25679648  0.62061927  1
  O  O258  1  0.20653815  0.76417919  0.16014932  1
  O  O259  1  0.35987955  0.68618910  0.64101761  1
  O  O260  1  0.74096938  0.25368170  0.11486559  1
  O  O261  1  0.76350864  0.28727061  0.67255550  1
  O  O262  1  0.74719431  0.76796377  0.10755916  1
  O  O263  1  0.75000337  0.74397956  0.63501496  1
  O  O264  1  0.23365390  0.23490344  0.36672895  1
  O  O265  1  0.24343239  0.25819178  0.88242385  1
  O  O266  1  0.26466881  0.78034906  0.37150542  1
  O  O267  1  0.26458858  0.73668662  0.87820451  1
  O  O268  1  0.77516342  0.25470702  0.38759591  1
  O  O269  1  0.71506050  0.23719483  0.86284774  1
  O  O270  1  0.70066234  0.73097101  0.39029426  1
  O  O271  1  0.73383353  0.76527630  0.88805176  1
  O  O272  1  -0.00426348  0.13323734  -0.01015811  1
  O  O273  1  0.01066156  0.06410498  0.52772721  1
  O  O274  1  -0.01376268  0.58517408  0.01181140  1
  O  O275  1  0.03760587  0.63668895  0.51661175  1
  O  O276  1  0.44477034  0.04936952  -0.02790720  1
  O  O277  1  0.52373784  0.13749055  0.50218649  1
  O  O278  1  0.51777469  0.60356018  -0.01080532  1
  O  O279  1  0.46620572  0.60681707  0.48627122  1
  O  O280  1  0.48116518  0.37705931  0.48101546  1
  O  O281  1  0.51680434  0.39189838  0.97890873  1
  O  O282  1  0.53441303  0.91399294  0.50284422  1
  O  O283  1  0.46807462  0.85564989  1.03089625  1
  O  O284  1  1.00112140  0.41295471  0.50463962  1
  O  O285  1  0.97774801  0.37940544  0.98212262  1
  O  O286  1  0.97670691  0.86077675  0.47546025  1
  O  O287  1  0.99269729  0.85952347  0.96803511  1
  O  O288  1  0.47475449  0.48756262  0.36559799  1
  O  O289  1  0.49218300  0.48891146  0.87025894  1
  O  O290  1  0.52930602  1.02605731  0.38496646  1
  O  O291  1  0.48489762  1.01166410  0.91949686  1
  O  O292  1  1.00953100  0.52572751  0.39179111  1
  O  O293  1  1.01220908  0.51650416  0.87060496  1
  O  O294  1  1.02525001  0.98847253  0.38281249  1
  O  O295  1  0.98572849  1.00212468  0.87248742  1
  O  O296  1  -0.00245272  0.00195615  0.12324602  1
  O  O297  1  0.01735168  -0.00964167  0.66741128  1
  O  O298  1  -0.00238865  0.46044251  0.14925690  1
  O  O299  1  0.02637177  0.51564381  0.62943052  1
  O  O300  1  0.50759990  -0.00750877  0.12720807  1
  O  O301  1  0.51407579  0.02761726  0.61473780  1
  O  O302  1  0.50661382  0.48537333  0.10409039  1
  O  O303  1  0.47704006  0.49271231  0.59326146  1
  O  O304  1  0.24583469  0.38246852  0.23168604  1
  O  O305  1  0.24671795  0.37425258  0.72884585  1
  O  O306  1  0.23067146  0.89397647  0.24813146  1
  O  O307  1  0.29178305  0.88817836  0.73216343  1
  O  O308  1  0.72803205  0.35449930  0.23391065  1
  O  O309  1  0.77125896  0.43092315  0.78673204  1
  O  O310  1  0.77394007  0.86273807  0.22826215  1
  O  O311  1  0.72831982  0.89480406  0.76014559  1
  O  O312  1  0.23407277  0.11721218  0.25855754  1
  O  O313  1  0.26230103  0.10825848  0.75183043  1
  O  O314  1  0.24991798  0.59640637  0.22722140  1
  O  O315  1  0.25829849  0.61203254  0.73286606  1
  O  O316  1  0.79809344  0.13979256  0.27379132  1
  O  O317  1  0.77162147  0.12755656  0.73131608  1
  O  O318  1  0.74817632  0.68982100  0.25871546  1
  O  O319  1  0.73969269  0.62379697  0.76253439  1
  O  O320  1  0.35258320  0.13208603  0.37112675  1
  O  O321  1  0.37972259  0.13471065  0.86718224  1
  O  O322  1  0.35950350  0.60461317  0.36128015  1
  O  O323  1  0.37854165  0.59647835  0.87236487  1
  O  O324  1  0.89728839  0.11618341  0.41719416  1
  O  O325  1  0.88330629  0.12499047  0.84613663  1
  O  O326  1  0.86772955  0.64196618  0.37990850  1
  O  O327  1  0.86136695  0.62185091  0.87604857  1
  O  O328  1  0.12975491  0.37491213  0.12298903  1
  O  O329  1  0.13786254  0.38577501  0.62326138  1
  O  O330  1  0.11062153  0.89065867  0.11618009  1
  O  O331  1  0.23115027  0.80167301  0.61277998  1
  O  O332  1  0.62996076  0.37842449  0.12087037  1
  O  O333  1  0.62028851  0.41932966  0.59693853  1
  O  O334  1  0.63472002  0.89222375  0.12237887  1
  O  O335  1  0.62124738  0.89684661  0.63548485  1
  O  O336  1  0.11008894  0.25073962  0.25802658  1
  O  O337  1  0.12473937  0.25824336  0.75378259  1
  O  O338  1  0.09641131  0.79255310  0.30643628  1
  O  O339  1  0.19775767  0.71471931  0.84249490  1
  O  O340  1  0.59533246  0.26643718  0.23116664  1
  O  O341  1  0.65251254  0.20183590  0.82879945  1
  O  O342  1  0.60731728  0.78294605  0.27651510  1
  O  O343  1  0.62477567  0.77452620  0.76451489  1
  O  O344  1  0.37407350  0.25145449  0.23222443  1
  O  O345  1  0.35760167  0.23194304  0.74363259  1
  O  O346  1  0.36112374  0.72140252  0.24302452  1
  O  O347  1  0.40379119  0.76567981  0.76963488  1
  O  O348  1  0.88760607  0.28243495  0.22074183  1
  O  O349  1  0.88506522  0.24566128  0.74105648  1
  O  O350  1  0.90778795  0.69330002  0.33445387  1
  O  O351  1  0.85810222  0.73204056  0.75047164  1
  O  O352  1  0.36749370  0.48347574  0.47348408  1
  O  O353  1  0.38964207  0.49249477  0.98551397  1
  O  O354  1  0.40754390  1.02019485  0.49044044  1
  O  O355  1  0.38132433  1.00216789  1.00787520  1
  O  O356  1  0.90911027  0.54882750  0.51505442  1
  O  O357  1  0.87598757  0.47871049  0.98221279  1
  O  O358  1  0.89138098  0.97160574  0.49898579  1
  O  O359  1  0.85732082  1.02814838  0.97707464  1
  O  O360  1  0.12355816  -0.00033591  0.00183382  1
  O  O361  1  0.10701576  -0.06568607  0.51480578  1
  O  O362  1  0.09340012  0.47332329  0.00869597  1
  O  O363  1  0.12800264  0.51639878  0.50575483  1
  O  O364  1  0.64207193  0.02313729  0.02625959  1
  O  O365  1  0.63295743  0.03304245  0.51167807  1
  O  O366  1  0.62761064  0.50653240  0.00486764  1
  O  O367  1  0.59068847  0.50828426  0.46680346  1
  O  O368  1  0.35466305  0.37064262  0.12037831  1
  O  O369  1  0.35970477  0.36919030  0.60439077  1
  O  O370  1  0.32515263  0.86783007  0.12253884  1
  O  O371  1  0.39965592  0.87851637  0.61229824  1
  O  O372  1  0.85296532  0.36450460  0.10628153  1
  O  O373  1  0.87941157  0.39863057  0.64963669  1
  O  O374  1  0.89361098  0.86784311  0.12474257  1
  O  O375  1  0.87311007  0.85590363  0.65455650  1
  O  O376  1  0.11859592  0.13953341  0.37660959  1
  O  O377  1  0.12810539  0.14067331  0.86465336  1
  O  O378  1  0.14106986  0.62497073  0.38478760  1
  O  O379  1  0.17426151  0.64121212  0.86093740  1
  O  O380  1  0.64534923  0.13755834  0.38956856  1
  O  O381  1  0.62581546  0.14051535  0.87248839  1
  O  O382  1  0.59377565  0.64912684  0.34853538  1
  O  O383  1  0.63593558  0.61643853  0.88668959  1
