# generated using pymatgen
data_VZnO4
_symmetry_space_group_name_H-M   'P 1'
_cell_length_a   16.95638981
_cell_length_b   16.94522912
_cell_length_c   16.98614904
_cell_angle_alpha   90.05243543
_cell_angle_beta   90.37811292
_cell_angle_gamma   90.39545344
_symmetry_Int_Tables_number   1
_chemical_formula_structural   VZnO4
_chemical_formula_sum   'V64 Zn64 O256'
_cell_volume   4880.40390425
_cell_formula_units_Z   64
loop_
 _symmetry_equiv_pos_site_id
 _symmetry_equiv_pos_as_xyz
  1  'x, y, z'
loop_
 _atom_site_type_symbol
 _atom_site_label
 _atom_site_symmetry_multiplicity
 _atom_site_fract_x
 _atom_site_fract_y
 _atom_site_fract_z
 _atom_site_occupancy
  V  V0  1  0.61732861  0.48507047  0.10011174  1
  V  V1  1  0.60187042  0.37114101  0.75183759  1
  V  V2  1  0.60687933  0.25310205  0.86984620  1
  V  V3  1  0.76567812  0.00763422  0.29796193  1
  V  V4  1  0.61317141  0.50561407  0.62773063  1
  V  V5  1  0.23586312  0.25709787  0.50453164  1
  V  V6  1  0.49828190  0.88239541  0.87890873  1
  V  V7  1  0.36124700  0.88788465  0.00953740  1
  V  V8  1  0.12780382  0.38434582  0.23856270  1
  V  V9  1  0.68716578  0.20202653  0.44888952  1
  V  V10  1  0.37562288  -0.01375658  0.37505488  1
  V  V11  1  0.76992945  0.37860550  0.10476004  1
  V  V12  1  -0.01181980  0.23455902  0.26079926  1
  V  V13  1  0.10213197  0.62231186  -0.01022444  1
  V  V14  1  0.50158053  0.13041376  0.61694404  1
  V  V15  1  0.74555731  0.11417525  0.86439605  1
  V  V16  1  0.11436392  0.75949831  0.86594929  1
  V  V17  1  0.10264776  0.63424761  0.47805595  1
  V  V18  1  0.50818362  0.34702702  0.37313345  1
  V  V19  1  0.10835914  0.87538219  0.23061494  1
  V  V20  1  -0.01840241  0.38347347  0.36510554  1
  V  V21  1  0.25691427  0.73793000  -0.00492918  1
  V  V22  1  0.88458235  0.87903100  -0.01095569  1
  V  V23  1  0.48529502  0.62499411  0.63278550  1
  V  V24  1  0.93594616  0.67982705  0.67346367  1
  V  V25  1  -0.01848829  0.36852556  0.89085969  1
  V  V26  1  0.24601454  -0.00190917  0.24163599  1
  V  V27  1  0.62931629  0.00400932  0.62401669  1
  V  V28  1  0.12925743  0.09158326  0.50876417  1
  V  V29  1  0.36846765  0.00668630  0.86892353  1
  V  V30  1  0.37581635  0.13228710  0.74840623  1
  V  V31  1  0.88114605  0.13439900  0.74884403  1
  V  V32  1  0.76235151  0.37193772  0.62741517  1
  V  V33  1  0.49669395  0.50355158  0.48468026  1
  V  V34  1  0.76591577  0.25501960  -0.01143125  1
  V  V35  1  0.25042830  -0.00687172  0.73258867  1
  V  V36  1  0.76357745  0.62553416  0.86885371  1
  V  V37  1  0.00100022  0.88912144  0.39363814  1
  V  V38  1  0.49079188  -0.01352322  0.50169652  1
  V  V39  1  0.36704739  0.76680977  0.61719135  1
  V  V40  1  0.24884048  0.12457890  0.37777241  1
  V  V41  1  0.37672410  0.25798296  0.62326709  1
  V  V42  1  0.75372621  0.86053894  0.62149866  1
  V  V43  1  0.50864110  0.14425471  0.14126463  1
  V  V44  1  0.01016261  0.11191264  0.63333821  1
  V  V45  1  0.73634664  0.88789742  0.11438815  1
  V  V46  1  0.63122633  0.88328075  0.75358495  1
  V  V47  1  0.34211429  0.23408186  0.15721863  1
  V  V48  1  0.88903489  0.74405948  0.11924591  1
  V  V49  1  -0.01092659  0.49279924  0.50869634  1
  V  V50  1  0.61997662  0.13266486  -0.00067752  1
  V  V51  1  0.36848953  0.38010038  0.49108120  1
  V  V52  1  0.49683163  0.01581243  0.00478404  1
  V  V53  1  0.90251043  -0.00307026  0.86902758  1
  V  V54  1  0.74981458  0.49879223  0.76203439  1
  V  V55  1  0.88445212  0.62824017  0.26335734  1
  V  V56  1  0.62280630  0.74156365  0.87086248  1
  V  V57  1  0.19162374  0.21389299  0.94817294  1
  V  V58  1  0.48922393  0.75210968  0.75279133  1
  V  V59  1  0.62360744  0.74750626  0.37421495  1
  V  V60  1  0.74240075  0.74759659  -0.00074534  1
  V  V61  1  0.00059382  0.12300820  0.10222132  1
  V  V62  1  0.11548283  0.88249009  0.74332915  1
  V  V63  1  0.75305453  0.49822362  0.26524685  1
  Zn  Zn64  1  0.15407251  0.17729165  0.19482746  1
  Zn  Zn65  1  0.19945445  0.18411227  0.68485661  1
  Zn  Zn66  1  0.17061650  0.70680650  0.16466600  1
  Zn  Zn67  1  0.14789449  0.73971216  0.63749254  1
  Zn  Zn68  1  0.69981693  0.14455432  0.27150797  1
  Zn  Zn69  1  0.68779612  0.19229852  0.68730327  1
  Zn  Zn70  1  0.67740774  0.66256610  0.18551986  1
  Zn  Zn71  1  0.68119308  0.68481059  0.69180473  1
  Zn  Zn72  1  0.29798836  0.31484322  0.32096720  1
  Zn  Zn73  1  0.30105696  0.33370158  1.00653783  1
  Zn  Zn74  1  0.29530319  0.82025290  0.31135195  1
  Zn  Zn75  1  0.30415571  0.81373893  0.81592008  1
  Zn  Zn76  1  0.79337591  0.29325823  0.29178842  1
  Zn  Zn77  1  0.80883263  0.31624042  0.81137115  1
  Zn  Zn78  1  0.80522091  0.82054860  0.28597170  1
  Zn  Zn79  1  0.82272945  0.81026504  0.79947919  1
  Zn  Zn80  1  0.14126475  0.43553098  0.43152279  1
  Zn  Zn81  1  0.12520590  0.41347903  0.94942256  1
  Zn  Zn82  1  0.18101013  0.93069433  0.42725134  1
  Zn  Zn83  1  0.18241921  0.94865659  0.92638125  1
  Zn  Zn84  1  0.71660180  0.38523363  0.42309035  1
  Zn  Zn85  1  0.68056074  0.43497447  0.93702311  1
  Zn  Zn86  1  0.67538548  0.92893282  0.44902595  1
  Zn  Zn87  1  0.67683976  0.93368279  0.95353530  1
  Zn  Zn88  1  0.31264528  0.07927693  0.05962833  1
  Zn  Zn89  1  0.31577496  0.06235104  0.55934901  1
  Zn  Zn90  1  0.23078589  0.54448124  0.05664043  1
  Zn  Zn91  1  0.27001280  0.61846372  0.60791744  1
  Zn  Zn92  1  0.81051821  0.06350756  0.04967353  1
  Zn  Zn93  1  0.80384704  0.07549053  0.57030686  1
  Zn  Zn94  1  0.79947365  0.57510436  0.06588582  1
  Zn  Zn95  1  0.79909893  0.54163612  0.56012350  1
  Zn  Zn96  1  0.47034803  0.36035287  0.15750421  1
  Zn  Zn97  1  0.42360330  0.44350044  0.69780188  1
  Zn  Zn98  1  0.43206251  0.95390928  0.19467424  1
  Zn  Zn99  1  0.43983853  0.93949251  0.68920464  1
  Zn  Zn100  1  0.90979327  0.41889028  0.20507083  1
  Zn  Zn101  1  0.93025424  0.50668132  0.68578660  1
  Zn  Zn102  1  0.91999929  0.92949236  0.19194760  1
  Zn  Zn103  1  0.93313493  0.93925504  0.68725843  1
  Zn  Zn104  1  0.06055839  0.05145000  0.31548660  1
  Zn  Zn105  1  0.08344978  0.08322001  0.82001659  1
  Zn  Zn106  1  0.06322313  0.56333685  0.30857691  1
  Zn  Zn107  1  0.05380404  0.56114971  0.81782575  1
  Zn  Zn108  1  0.56968424  0.06127903  0.32699998  1
  Zn  Zn109  1  0.55637681  0.06667026  0.80663863  1
  Zn  Zn110  1  0.54272291  0.48240081  0.26670012  1
  Zn  Zn111  1  0.55454902  0.56246553  0.81292899  1
  Zn  Zn112  1  0.43163959  0.18243293  0.44119765  1
  Zn  Zn113  1  0.41737378  0.19617402  0.94049601  1
  Zn  Zn114  1  0.44100644  0.68985269  0.45023989  1
  Zn  Zn115  1  0.43935545  0.70188839  0.95058769  1
  Zn  Zn116  1  0.96165865  0.18846810  0.44770443  1
  Zn  Zn117  1  0.94961303  0.19219509  0.92402339  1
  Zn  Zn118  1  0.89093354  0.65787741  0.47562459  1
  Zn  Zn119  1  0.93592840  0.69613811  0.92737343  1
  Zn  Zn120  1  0.05473758  0.29987555  0.07632377  1
  Zn  Zn121  1  0.03612798  0.31143555  0.55493349  1
  Zn  Zn122  1  0.07048657  0.81408729  0.05167054  1
  Zn  Zn123  1  0.00117597  0.79051026  0.54967735  1
  Zn  Zn124  1  0.63666592  0.27214661  0.15572615  1
  Zn  Zn125  1  0.55929486  0.32213906  0.56288563  1
  Zn  Zn126  1  0.54019681  0.85385767  0.10103232  1
  Zn  Zn127  1  0.56039905  0.81444284  0.57129949  1
  O  O128  1  0.09341130  0.09953100  0.13532740  1
  O  O129  1  0.11795815  0.12726492  0.62715602  1
  O  O130  1  0.13702528  0.62811149  0.09112763  1
  O  O131  1  0.17183454  0.64394011  0.56374325  1
  O  O132  1  0.61263404  0.13832990  0.10765050  1
  O  O133  1  0.61103659  0.11529371  0.63592710  1
  O  O134  1  0.63116937  0.58699700  0.11585764  1
  O  O135  1  0.61005387  0.61119279  0.63271799  1
  O  O136  1  0.37986190  0.36520358  0.38935683  1
  O  O137  1  0.32364959  0.40954306  0.88195295  1
  O  O138  1  0.37378098  0.88657966  0.36946584  1
  O  O139  1  0.38532129  0.88883559  0.87723611  1
  O  O140  1  0.88298654  0.37204551  0.36169871  1
  O  O141  1  0.88282616  0.38052342  0.87451581  1
  O  O142  1  0.89437523  0.83753893  0.37604262  1
  O  O143  1  0.87814762  0.88465112  0.87602183  1
  O  O144  1  0.26006786  0.00134824  0.37607271  1
  O  O145  1  0.26682830  0.00322462  0.86032386  1
  O  O146  1  0.35373327  0.58839455  0.33152206  1
  O  O147  1  0.31061204  0.47104267  0.92298072  1
  O  O148  1  0.75350283  -0.01403478  0.39523310  1
  O  O149  1  0.73620161  0.01574859  0.88017786  1
  O  O150  1  0.75315457  0.47834027  0.36234968  1
  O  O151  1  0.73430810  0.51513206  0.87094856  1
  O  O152  1  0.26246048  0.52136326  0.16707218  1
  O  O153  1  0.26909235  0.50241729  0.65052395  1
  O  O154  1  0.26167927  1.02620577  0.14800883  1
  O  O155  1  0.25688779  0.99847958  0.63361255  1
  O  O156  1  0.74412339  0.48250323  0.08424173  1
  O  O157  1  0.72579305  0.50022213  0.64593774  1
  O  O158  1  0.75763192  0.98705626  0.11779760  1
  O  O159  1  0.73040063  1.00093317  0.62257517  1
  O  O160  1  -0.00144269  0.36941330  0.25472769  1
  O  O161  1  0.06648570  0.34911252  0.71943171  1
  O  O162  1  0.00635156  0.87875124  0.24616860  1
  O  O163  1  0.01642466  0.89091010  0.74847183  1
  O  O164  1  0.48677220  0.38007658  0.27505027  1
  O  O165  1  0.50278781  0.37401862  0.75002319  1
  O  O166  1  0.50720904  0.87494256  0.20330883  1
  O  O167  1  0.50652953  0.87324306  0.76136099  1
  O  O168  1  0.51435016  0.11505671  0.23491395  1
  O  O169  1  0.48489659  0.11793585  0.73036720  1
  O  O170  1  0.52382179  0.60562649  0.23654651  1
  O  O171  1  0.50529508  0.64394463  0.74263199  1
  O  O172  1  0.99823160  0.13386068  0.26982715  1
  O  O173  1  0.99626057  0.12665339  0.74310148  1
  O  O174  1  0.98438720  0.62480392  0.25096218  1
  O  O175  1  0.98711136  0.60206641  0.73634551  1
  O  O176  1  0.45429026  0.36237427  -0.01545814  1
  O  O177  1  0.36852351  0.25759127  0.50926649  1
  O  O178  1  0.36404514  0.77648785  -0.00879799  1
  O  O179  1  0.37717443  0.75025176  0.51783554  1
  O  O180  1  0.86335232  0.24038433  -0.01476062  1
  O  O181  1  0.93084872  0.24428530  0.54737761  1
  O  O182  1  0.86630066  0.75929304  -0.00309892  1
  O  O183  1  0.90823823  0.72493539  0.56827015  1
  O  O184  1  0.13764569  0.26124080  0.51670321  1
  O  O185  1  0.12527598  0.21843525  1.02060646  1
  O  O186  1  0.07809014  0.73255557  0.48194700  1
  O  O187  1  0.13026493  0.74052989  0.98455816  1
  O  O188  1  0.62164807  0.24980019  0.50728071  1
  O  O189  1  0.63262315  0.24183036  0.97737112  1
  O  O190  1  0.61775412  0.76261699  0.47954637  1
  O  O191  1  0.64128556  0.75687303  0.97977870  1
  O  O192  1  0.51809077  0.25026775  0.14592315  1
  O  O193  1  0.48982628  0.23838678  0.61629859  1
  O  O194  1  0.52999559  0.72909734  0.10520662  1
  O  O195  1  0.49013273  0.74650854  0.63321442  1
  O  O196  1  0.98914272  0.22359568  0.13277278  1
  O  O197  1  0.98136536  0.22373544  0.61398610  1
  O  O198  1  0.98665815  0.75640628  0.11448822  1
  O  O199  1  1.02974492  0.72739105  0.64639483  1
  O  O200  1  -0.00811400  0.25942189  0.36811110  1
  O  O201  1  0.00165738  0.27285665  0.86185796  1
  O  O202  1  -0.04610975  0.78298252  0.37901806  1
  O  O203  1  0.01345166  0.75762083  0.87200908  1
  O  O204  1  0.49681029  0.24791975  0.37600200  1
  O  O205  1  0.50867768  0.24344431  0.87768448  1
  O  O206  1  0.51994603  0.73173607  0.37344764  1
  O  O207  1  0.50452196  0.76315864  0.87350888  1
  O  O208  1  0.23656965  0.13301387  0.50528727  1
  O  O209  1  0.22163530  0.09943807  0.98564626  1
  O  O210  1  0.35141046  0.64331987  0.38142669  1
  O  O211  1  0.27352611  0.63905877  0.99620552  1
  O  O212  1  0.74304070  0.14428137  0.50971761  1
  O  O213  1  0.74147538  0.13377199  0.98637514  1
  O  O214  1  0.78183057  0.63644868  0.50326857  1
  O  O215  1  0.75255553  0.63831010  0.97932220  1
  O  O216  1  0.29729316  0.45227308  0.00723566  1
  O  O217  1  0.25976815  0.36422166  0.49286234  1
  O  O218  1  0.26262539  0.89616956  -0.00779251  1
  O  O219  1  0.23687879  0.82828362  0.46581016  1
  O  O220  1  0.75549148  0.36193455  -0.01505807  1
  O  O221  1  0.74603879  0.40125855  0.53080091  1
  O  O222  1  0.76283948  0.86074373  -0.00902734  1
  O  O223  1  0.74094732  0.87339776  0.52300875  1
  O  O224  1  0.11506086  0.48596388  0.24479315  1
  O  O225  1  0.22044559  0.50891342  0.79515252  1
  O  O226  1  0.13819953  0.98888985  0.25641629  1
  O  O227  1  0.14284593  0.99771489  0.75770153  1
  O  O228  1  0.65295027  0.49140093  0.23974012  1
  O  O229  1  0.61845707  0.48693870  0.75185942  1
  O  O230  1  0.66519919  1.02930852  0.26542961  1
  O  O231  1  0.61145474  0.99288029  0.73548580  1
  O  O232  1  0.36399084  0.00759386  0.26829306  1
  O  O233  1  0.36946226  0.00765285  0.75040548  1
  O  O234  1  0.34322788  0.52336334  0.17679299  1
  O  O235  1  0.31428289  0.49170965  0.71207443  1
  O  O236  1  0.83419060  -0.06627251  0.26567757  1
  O  O237  1  0.87909945  0.00733494  0.76793297  1
  O  O238  1  0.86787766  0.51959354  0.24109608  1
  O  O239  1  0.84729649  0.49441059  0.76415434  1
  O  O240  1  0.10685134  0.36802489  0.35414945  1
  O  O241  1  0.19700983  0.32475860  0.93884218  1
  O  O242  1  0.10300822  0.87767865  0.36528637  1
  O  O243  1  0.12542501  0.86995076  0.86877540  1
  O  O244  1  0.60508118  0.36989150  0.38344032  1
  O  O245  1  0.62103660  0.36248343  0.86353551  1
  O  O246  1  0.61178549  0.85357520  0.36804306  1
  O  O247  1  0.61262108  0.87568280  0.87167095  1
  O  O248  1  0.39574349  0.14864377  0.11757795  1
  O  O249  1  0.38424181  0.13248683  0.62545199  1
  O  O250  1  0.38041211  0.56863497  0.12922013  1
  O  O251  1  0.38246703  0.63221728  0.63005593  1
  O  O252  1  0.89241612  0.09025279  0.13350658  1
  O  O253  1  0.88011157  0.11393914  0.64637833  1
  O  O254  1  0.87580141  0.64255969  0.10921502  1
  O  O255  1  0.87273191  0.59970757  0.63814499  1
  O  O256  1  0.24666571  0.21254865  0.13801324  1
  O  O257  1  0.26537479  0.24632222  0.61183920  1
  O  O258  1  0.23827792  0.76601681  0.08950934  1
  O  O259  1  0.26937082  0.73924907  0.64117453  1
  O  O260  1  0.74855038  0.26511142  0.09385718  1
  O  O261  1  0.74856432  0.27120576  0.63547708  1
  O  O262  1  0.74306525  0.74139351  0.10079715  1
  O  O263  1  0.73785197  0.76152977  0.63500138  1
  O  O264  1  0.24767718  0.23319832  0.39554520  1
  O  O265  1  0.30894382  0.22241819  0.97051195  1
  O  O266  1  0.24507665  0.77610247  0.41034364  1
  O  O267  1  0.23778826  0.75853382  0.88820076  1
  O  O268  1  0.74907179  0.27379116  0.40177071  1
  O  O269  1  0.74283288  0.23949067  0.87589003  1
  O  O270  1  0.72738289  0.77000812  0.37115369  1
  O  O271  1  0.74486263  0.73820683  0.86682320  1
  O  O272  1  -0.00561547  0.12374333  0.00169721  1
  O  O273  1  0.02566744  0.11577969  0.51351093  1
  O  O274  1  0.00318115  0.62574589  -0.01003023  1
  O  O275  1  -0.00335987  0.60362354  0.48856155  1
  O  O276  1  0.50171168  0.13191960  -0.00178092  1
  O  O277  1  0.49427815  0.11470375  0.51379719  1
  O  O278  1  0.49216141  0.67852430  0.06294801  1
  O  O279  1  0.49016255  0.60644664  0.51314824  1
  O  O280  1  0.48897683  0.38029418  0.48769253  1
  O  O281  1  0.47151707  0.40966797  0.93183633  1
  O  O282  1  0.49706497  0.88747392  0.50607525  1
  O  O283  1  0.48741433  0.89410657  0.99475745  1
  O  O284  1  1.00939306  0.38605957  0.47729949  1
  O  O285  1  1.01898303  0.36797440  0.98925733  1
  O  O286  1  1.00174123  0.88865936  0.49459174  1
  O  O287  1  0.98259853  0.87385185  1.00122224  1
  O  O288  1  0.50553445  0.50770962  0.38629191  1
  O  O289  1  0.44575226  0.50754891  0.81123388  1
  O  O290  1  0.48778741  1.00776125  0.38918729  1
  O  O291  1  0.49118033  0.99892257  0.87885606  1
  O  O292  1  0.99521201  0.48701044  0.37188036  1
  O  O293  1  1.04262785  0.44788878  0.85179754  1
  O  O294  1  0.98258341  0.98544448  0.36712592  1
  O  O295  1  0.99978829  1.01402884  0.87391827  1
  O  O296  1  -0.05278194  0.02357317  0.12767229  1
  O  O297  1  -0.00281320  0.01378845  0.62746695  1
  O  O298  1  -0.03063144  0.49948931  0.08379608  1
  O  O299  1  0.00448382  0.47713655  0.60781491  1
  O  O300  1  0.48880086  0.02474232  0.10888859  1
  O  O301  1  0.49919412  0.00791171  0.61444808  1
  O  O302  1  0.52215516  0.46316395  0.14394740  1
  O  O303  1  0.50000158  0.50856289  0.63789639  1
  O  O304  1  0.22815193  0.36995902  0.25625098  1
  O  O305  1  0.23133824  0.35205499  0.73896505  1
  O  O306  1  0.24794432  0.89415025  0.24174806  1
  O  O307  1  0.24905491  0.89118542  0.75130802  1
  O  O308  1  0.77926974  0.39695713  0.21862451  1
  O  O309  1  0.73322644  0.38719805  0.75057313  1
  O  O310  1  0.71948127  0.85366564  0.20612406  1
  O  O311  1  0.73419393  0.87385162  0.75115602  1
  O  O312  1  0.22943778  0.11671974  0.27728688  1
  O  O313  1  0.26871015  0.11332373  0.74068400  1
  O  O314  1  0.28457968  0.67407117  0.22983554  1
  O  O315  1  0.16898611  0.52433474  0.74524471  1
  O  O316  1  0.80794094  0.09825855  0.29139253  1
  O  O317  1  0.75853517  0.12557551  0.75936460  1
  O  O318  1  0.76020401  0.60768760  0.24286414  1
  O  O319  1  0.73746183  0.61247030  0.76183233  1
  O  O320  1  0.35280505  0.11473893  0.38984707  1
  O  O321  1  0.38710907  0.12109132  0.85319220  1
  O  O322  1  0.46574675  0.65052027  0.23955268  1
  O  O323  1  0.40205727  0.56316792  0.85054662  1
  O  O324  1  0.88346773  0.09456134  0.42928516  1
  O  O325  1  0.86694704  0.11148323  0.86870775  1
  O  O326  1  0.87366338  0.64135926  0.36028198  1
  O  O327  1  0.86203654  0.62637669  0.86928736  1
  O  O328  1  0.11891842  0.37176238  0.13542223  1
  O  O329  1  0.09900659  0.35455453  0.65362568  1
  O  O330  1  0.11184798  0.88541608  0.13016730  1
  O  O331  1  0.13093280  0.86207481  0.64695197  1
  O  O332  1  0.65227718  0.38020134  0.11942637  1
  O  O333  1  0.61851423  0.38438662  0.64207557  1
  O  O334  1  0.64205225  0.88834443  0.06933391  1
  O  O335  1  0.62803617  0.88567400  0.63506269  1
  O  O336  1  0.09593522  0.26040861  0.24330099  1
  O  O337  1  0.20256948  0.28820089  0.76249784  1
  O  O338  1  0.13764229  0.77692615  0.24407876  1
  O  O339  1  0.13492105  0.76665929  0.76311880  1
  O  O340  1  0.69418913  0.24954671  0.24765432  1
  O  O341  1  0.62139943  0.26056758  0.75789957  1
  O  O342  1  0.62462653  0.73006045  0.27277763  1
  O  O343  1  0.61265997  0.76372741  0.75727247  1
  O  O344  1  0.36029448  0.24407518  0.25460530  1
  O  O345  1  0.37193245  0.23715392  0.73083694  1
  O  O346  1  0.33211991  0.73229627  0.24105053  1
  O  O347  1  0.38664991  0.76089130  0.75234380  1
  O  O348  1  0.88901928  0.25367077  0.24433135  1
  O  O349  1  0.87301588  0.23213509  0.75961512  1
  O  O350  1  0.86353021  0.73895368  0.22535537  1
  O  O351  1  0.88609761  0.73882626  0.73821509  1
  O  O352  1  0.38584825  0.48247367  0.50203819  1
  O  O353  1  0.45172497  0.59396904  0.91063697  1
  O  O354  1  0.38175395  0.99689583  0.49176113  1
  O  O355  1  0.37870342  1.00713365  0.98801365  1
  O  O356  1  0.88840081  0.49561545  0.50096138  1
  O  O357  1  0.92221408  0.50286815  1.02818827  1
  O  O358  1  0.88187712  1.04161001  0.48295794  1
  O  O359  1  0.86913209  0.98723757  0.97972680  1
  O  O360  1  0.15840113  0.04723103  -0.01589808  1
  O  O361  1  0.14309459  -0.00545446  0.51661858  1
  O  O362  1  0.13784398  0.52156174  -0.01720221  1
  O  O363  1  0.10956136  0.51465169  0.49735943  1
  O  O364  1  0.60795546  0.02348207  -0.01379228  1
  O  O365  1  0.60775961  -0.00356215  0.51627028  1
  O  O366  1  0.59985612  0.48092948  0.00051714  1
  O  O367  1  0.60010225  0.49046807  0.52498309  1
  O  O368  1  0.36702325  0.32557066  0.11011202  1
  O  O369  1  0.38554142  0.36207501  0.61614943  1
  O  O370  1  0.37127343  0.89608227  0.10704529  1
  O  O371  1  0.37639749  0.86591389  0.62819124  1
  O  O372  1  0.87037989  0.37652254  0.10192415  1
  O  O373  1  0.85747259  0.39277764  0.64583303  1
  O  O374  1  0.85893251  0.86134794  0.10637936  1
  O  O375  1  0.85202532  0.88122156  0.63872027  1
  O  O376  1  0.13582680  0.10295403  0.40148698  1
  O  O377  1  0.14782254  0.16884069  0.86608988  1
  O  O378  1  0.13278589  0.62130640  0.38199165  1
  O  O379  1  0.11787510  0.63972029  0.87894443  1
  O  O380  1  0.63645090  0.14229592  0.37974302  1
  O  O381  1  0.63081786  0.13564223  0.86741505  1
  O  O382  1  0.64614550  0.64959118  0.39720650  1
  O  O383  1  0.62082977  0.63909151  0.86949260  1
