# generated using pymatgen
data_VZnO4
_symmetry_space_group_name_H-M   'P 1'
_cell_length_a   17.00661036
_cell_length_b   16.96334487
_cell_length_c   17.04170328
_cell_angle_alpha   90.14254989
_cell_angle_beta   89.41199790
_cell_angle_gamma   90.12089502
_symmetry_Int_Tables_number   1
_chemical_formula_structural   VZnO4
_chemical_formula_sum   'V64 Zn64 O256'
_cell_volume   4916.05909029
_cell_formula_units_Z   64
loop_
 _symmetry_equiv_pos_site_id
 _symmetry_equiv_pos_as_xyz
  1  'x, y, z'
loop_
 _atom_site_type_symbol
 _atom_site_label
 _atom_site_symmetry_multiplicity
 _atom_site_fract_x
 _atom_site_fract_y
 _atom_site_fract_z
 _atom_site_occupancy
  V  V0  1  0.61872458  0.10871628  0.01159135  1
  V  V1  1  0.62492341  -0.00445574  0.64563322  1
  V  V2  1  0.38335473  0.35982732  -0.00266739  1
  V  V3  1  0.88199893  0.36920223  -0.00203936  1
  V  V4  1  0.76705848  -0.01249582  0.75974642  1
  V  V5  1  0.38660501  0.25642116  0.62253711  1
  V  V6  1  0.24242835  -0.01861671  0.26909614  1
  V  V7  1  0.12806912  0.25158041  0.87906213  1
  V  V8  1  0.64883255  0.36437797  0.25163904  1
  V  V9  1  0.25350275  0.71431901  -0.04934654  1
  V  V10  1  0.51071299  0.03425687  0.50794217  1
  V  V11  1  0.40029461  0.47187934  0.87336606  1
  V  V12  1  0.39198348  0.00981642  0.87227913  1
  V  V13  1  0.87699984  0.10264836  0.24763544  1
  V  V14  1  0.38136688  0.13017158  0.24302782  1
  V  V15  1  0.86744303  0.37449256  0.50013719  1
  V  V16  1  0.02476137  0.77119108  0.75396344  1
  V  V17  1  0.12299706  0.24261870  0.37356585  1
  V  V18  1  0.49461130  0.62176327  0.62905665  1
  V  V19  1  0.76166474  0.12798280  0.87192387  1
  V  V20  1  0.48604414  0.49418581  0.48645970  1
  V  V21  1  0.24194439  0.23346929  0.01102471  1
  V  V22  1  -0.00242697  0.36748928  0.37653746  1
  V  V23  1  0.74148533  -0.01278994  0.24934970  1
  V  V24  1  0.49716388  0.34512466  0.36803234  1
  V  V25  1  0.23833996  0.49157818  0.76268983  1
  V  V26  1  0.74486679  0.11274926  0.38086747  1
  V  V27  1  0.00154779  0.11619554  0.61417016  1
  V  V28  1  0.74704377  0.24808733  0.01551469  1
  V  V29  1  0.73886801  0.24361491  0.48943902  1
  V  V30  1  0.40076241  0.78391243  0.68277758  1
  V  V31  1  0.70450163  0.75789288  0.01150442  1
  V  V32  1  0.87289899  0.74065321  0.64450452  1
  V  V33  1  0.76178748  0.62398102  0.36011848  1
  V  V34  1  0.26046603  0.88075516  0.10720657  1
  V  V35  1  0.63197239  0.48937650  0.63452432  1
  V  V36  1  0.75276368  0.75176579  0.50852405  1
  V  V37  1  0.40663030  0.13799759  0.74751915  1
  V  V38  1  0.24445231  0.88754653  0.62848350  1
  V  V39  1  0.23070375  0.73467274  0.48956436  1
  V  V40  1  0.39523462  0.84703351  0.49832509  1
  V  V41  1  0.04157852  0.52678120  0.48059515  1
  V  V42  1  0.38534622  0.00657117  0.39057919  1
  V  V43  1  0.89049288  0.87904913  0.50634358  1
  V  V44  1  0.00453821  0.26047446  0.74400387  1
  V  V45  1  0.86110471  0.24020467  0.62551523  1
  V  V46  1  0.22882550  0.37533423  0.62883497  1
  V  V47  1  0.60719965  0.87292046  0.25808614  1
  V  V48  1  0.87826904  0.50032447  0.36153633  1
  V  V49  1  0.62758438  0.61624378  0.49782841  1
  V  V50  1  0.36276382  0.73428138  0.12867673  1
  V  V51  1  0.60386324  0.48934768  0.12905488  1
  V  V52  1  -0.04726164  0.73006734  0.12376736  1
  V  V53  1  0.24460510  0.12179194  0.38706205  1
  V  V54  1  0.25096591  0.37857106  0.12078399  1
  V  V55  1  0.11874865  0.38748589  0.24391420  1
  V  V56  1  0.11374270  0.50075566  0.08310689  1
  V  V57  1  0.74765760  0.62023340  0.87112397  1
  V  V58  1  -0.00677276  0.24109465  0.23636378  1
  V  V59  1  0.12212321  -0.00187948  0.12517037  1
  V  V60  1  0.38567628  0.60357013  0.76221548  1
  V  V61  1  0.24695042  0.25535294  0.50289359  1
  V  V62  1  0.22634374  0.02105467  0.77235398  1
  V  V63  1  0.61671195  0.74624891  0.37196194  1
  Zn  Zn64  1  0.20191475  0.18272585  0.19552459  1
  Zn  Zn65  1  0.17804202  0.18437500  0.68295374  1
  Zn  Zn66  1  0.14937607  0.71066581  0.10878646  1
  Zn  Zn67  1  0.22974401  0.71802189  0.75024384  1
  Zn  Zn68  1  0.68983545  0.17851285  0.18903483  1
  Zn  Zn69  1  0.69314683  0.16635056  0.67727372  1
  Zn  Zn70  1  0.70181102  0.70706663  0.18924648  1
  Zn  Zn71  1  0.72238755  0.63324520  0.66725482  1
  Zn  Zn72  1  0.31413478  0.31514510  0.31703831  1
  Zn  Zn73  1  0.30624873  0.30296723  0.80925451  1
  Zn  Zn74  1  0.26199837  0.75942211  0.27889961  1
  Zn  Zn75  1  0.37428101  0.79898120  0.88076874  1
  Zn  Zn76  1  0.81466458  0.30225082  0.31163860  1
  Zn  Zn77  1  0.83743095  0.30407993  0.83295951  1
  Zn  Zn78  1  0.79945366  0.83289532  0.34598596  1
  Zn  Zn79  1  0.75423033  0.79003667  0.80742316  1
  Zn  Zn80  1  0.20817237  0.43494775  0.42189921  1
  Zn  Zn81  1  0.19599970  0.41289857  0.92894813  1
  Zn  Zn82  1  0.23675088  0.88570106  0.41197377  1
  Zn  Zn83  1  0.24942520  1.02323978  0.98210236  1
  Zn  Zn84  1  0.69191736  0.43347083  0.42575139  1
  Zn  Zn85  1  0.72866573  0.46074496  0.98319140  1
  Zn  Zn86  1  0.68266021  0.93538319  0.44040091  1
  Zn  Zn87  1  0.69024700  0.93662801  0.93577439  1
  Zn  Zn88  1  0.44515155  0.04361434  0.06683616  1
  Zn  Zn89  1  0.31374704  0.07510659  0.57105270  1
  Zn  Zn90  1  0.30906170  0.55411596  0.03830074  1
  Zn  Zn91  1  0.30389693  0.55581745  0.56892465  1
  Zn  Zn92  1  0.79802515  0.06354916  0.07190391  1
  Zn  Zn93  1  0.80303054  0.05648453  0.57133422  1
  Zn  Zn94  1  0.82981827  0.59851203  0.02564235  1
  Zn  Zn95  1  0.81800875  0.56032793  0.55068251  1
  Zn  Zn96  1  0.43379790  0.43642023  0.19452340  1
  Zn  Zn97  1  0.42359561  0.44440805  0.65632155  1
  Zn  Zn98  1  0.42879327  0.93112259  0.20613836  1
  Zn  Zn99  1  0.43448280  0.95617723  0.67968343  1
  Zn  Zn100  1  0.93261014  0.42231355  0.17438453  1
  Zn  Zn101  1  0.96627813  0.43322553  0.65182267  1
  Zn  Zn102  1  0.92247946  0.92533595  0.16681273  1
  Zn  Zn103  1  0.93874052  0.92668702  0.68126012  1
  Zn  Zn104  1  0.08300389  0.07978151  0.27449393  1
  Zn  Zn105  1  0.03734312  0.08855390  0.80904728  1
  Zn  Zn106  1  0.00892660  0.56277954  0.21499059  1
  Zn  Zn107  1  0.09758895  0.55395107  0.88259852  1
  Zn  Zn108  1  0.56342177  0.06922571  0.31456242  1
  Zn  Zn109  1  0.57441428  0.07805459  0.82222473  1
  Zn  Zn110  1  0.58809101  0.53460192  0.32552708  1
  Zn  Zn111  1  0.58025434  0.53710679  0.93534074  1
  Zn  Zn112  1  0.43369420  0.19703144  0.43581183  1
  Zn  Zn113  1  0.41580393  0.16132365  0.95891429  1
  Zn  Zn114  1  0.43717247  0.66247795  0.42453336  1
  Zn  Zn115  1  0.50910724  0.70639841  1.00638012  1
  Zn  Zn116  1  0.92792763  0.18028223  0.43239196  1
  Zn  Zn117  1  0.94052505  0.19523739  0.92588662  1
  Zn  Zn118  1  0.93659588  0.69165186  0.43868449  1
  Zn  Zn119  1  0.94681156  0.66915046  0.92022852  1
  Zn  Zn120  1  0.05993103  0.31289066  0.05765661  1
  Zn  Zn121  1  0.05542345  0.29834349  0.55789448  1
  Zn  Zn122  1  0.09837465  0.84414785  0.02091774  1
  Zn  Zn123  1  0.06198137  0.80320397  0.57548960  1
  Zn  Zn124  1  0.57072883  0.29643835  0.07685297  1
  Zn  Zn125  1  0.56811189  0.31993304  0.55416054  1
  Zn  Zn126  1  0.53736322  0.85564926  0.08516419  1
  Zn  Zn127  1  0.57012040  0.81023821  0.56504415  1
  O  O128  1  0.13093753  0.09607114  0.16521079  1
  O  O129  1  0.10097489  0.13798608  0.61560530  1
  O  O130  1  0.13098583  0.59656923  0.10452147  1
  O  O131  1  0.12296092  0.60973164  0.63362049  1
  O  O132  1  0.63229700  0.11860578  0.11263035  1
  O  O133  1  0.63565061  0.09466316  0.61367225  1
  O  O134  1  0.64312227  0.60382272  0.13740561  1
  O  O135  1  0.60975955  0.61788497  0.61230646  1
  O  O136  1  0.39917331  0.33851085  0.39386000  1
  O  O137  1  0.37620817  0.36223477  0.88499746  1
  O  O138  1  0.36165854  0.89968551  0.41046998  1
  O  O139  1  0.37309213  0.91228849  0.87589258  1
  O  O140  1  0.88388166  0.37899232  0.37176687  1
  O  O141  1  0.85517726  0.39314610  0.90010888  1
  O  O142  1  0.88577784  0.86492611  0.40409002  1
  O  O143  1  0.87109124  0.94855439  0.94040413  1
  O  O144  1  0.25911199  0.00713506  0.38421743  1
  O  O145  1  0.26315244  0.02670073  0.86726464  1
  O  O146  1  0.28318360  0.42148072  0.34361950  1
  O  O147  1  0.26944546  0.47253721  0.85915398  1
  O  O148  1  0.75175678  0.00636342  0.37543320  1
  O  O149  1  0.74300286  0.01053594  0.86528407  1
  O  O150  1  0.76189106  0.51406352  0.36737550  1
  O  O151  1  0.69144059  0.53452489  0.89964750  1
  O  O152  1  0.23088328  0.48155757  0.10156354  1
  O  O153  1  0.24796310  0.48281579  0.63992377  1
  O  O154  1  0.24600353  0.98186186  0.16072152  1
  O  O155  1  0.25515139  0.97825632  0.58533024  1
  O  O156  1  0.70581931  0.55269672  0.12473359  1
  O  O157  1  0.73231093  0.52398427  0.62018885  1
  O  O158  1  0.73807735  0.99898260  0.15227135  1
  O  O159  1  0.74027182  0.99914294  0.65301713  1
  O  O160  1  0.00611629  0.35980989  0.25115015  1
  O  O161  1  0.00750512  0.36037845  0.72235113  1
  O  O162  1  0.04383830  0.83976109  0.28663413  1
  O  O163  1  0.01655859  0.87117899  0.74557678  1
  O  O164  1  0.48912446  0.37312347  0.26835823  1
  O  O165  1  0.52433743  0.30933366  0.82951122  1
  O  O166  1  0.50879625  0.87720700  0.26943420  1
  O  O167  1  0.44147994  0.85408398  0.73944327  1
  O  O168  1  0.47982375  0.12177276  0.26429528  1
  O  O169  1  0.50527035  0.14161085  0.74670966  1
  O  O170  1  0.40139182  0.57787930  0.28852198  1
  O  O171  1  0.49816851  0.60629223  0.72975096  1
  O  O172  1  0.98493105  0.12989345  0.25590411  1
  O  O173  1  0.98708474  0.14976906  0.72901879  1
  O  O174  1  0.97045338  0.66488410  0.19992241  1
  O  O175  1  1.06712515  0.59473125  0.67706565  1
  O  O176  1  0.35468540  0.25167759  -0.00389599  1
  O  O177  1  0.35876743  0.24045292  0.51678200  1
  O  O178  1  0.34056386  0.75190310  -0.01041201  1
  O  O179  1  0.38559456  0.74887604  0.48007221  1
  O  O180  1  0.86815528  0.25964094  -0.00697966  1
  O  O181  1  0.86453775  0.25864340  0.50480235  1
  O  O182  1  0.88966951  0.91755687  0.00374661  1
  O  O183  1  0.86312308  0.75036527  0.50754273  1
  O  O184  1  0.12971002  0.25626796  0.48104073  1
  O  O185  1  0.13586875  0.25215555  0.99467754  1
  O  O186  1  0.13663334  0.73500086  0.52236002  1
  O  O187  1  0.16765302  0.75524322  0.98953574  1
  O  O188  1  0.64125788  0.25215563  0.49789998  1
  O  O189  1  0.63940826  0.23394055  1.00889963  1
  O  O190  1  0.63212950  0.73628133  0.49275074  1
  O  O191  1  0.60173913  0.77724671  1.02250625  1
  O  O192  1  0.49589960  0.24588041  0.14265719  1
  O  O193  1  0.48402850  0.26996649  0.61290967  1
  O  O194  1  0.46182013  0.75996941  0.09638204  1
  O  O195  1  0.48331698  0.73427075  0.62480562  1
  O  O196  1  1.01188019  0.24678054  0.13952468  1
  O  O197  1  0.97783775  0.24778690  0.62713957  1
  O  O198  1  1.04396971  0.76084394  0.08689751  1
  O  O199  1  0.98418933  0.74234058  0.65506171  1
  O  O200  1  0.00415580  0.25174156  0.36469744  1
  O  O201  1  -0.04774812  0.26708713  0.83206346  1
  O  O202  1  0.01994681  0.74121666  0.37074106  1
  O  O203  1  -0.02987185  0.73840707  0.83141521  1
  O  O204  1  0.51979069  0.24791327  0.37676097  1
  O  O205  1  0.55572380  0.26421120  0.87515778  1
  O  O206  1  0.52024370  0.72739736  0.37487097  1
  O  O207  1  0.49192245  0.78774153  0.89949178  1
  O  O208  1  0.24766991  0.13628960  0.49384326  1
  O  O209  1  0.24433038  0.13602891  1.01508730  1
  O  O210  1  0.26859260  0.64417025  0.51238289  1
  O  O211  1  0.24768226  0.61320857  0.96077535  1
  O  O212  1  0.75769103  0.12920598  0.48779026  1
  O  O213  1  0.74743233  0.12630275  0.99446594  1
  O  O214  1  0.74282415  0.63168107  0.48922075  1
  O  O215  1  0.73073010  0.65590153  0.99852652  1
  O  O216  1  0.25646449  0.35785117  0.00848302  1
  O  O217  1  0.24521413  0.36381822  0.51289657  1
  O  O218  1  0.27196352  0.90978094  0.01366390  1
  O  O219  1  0.26591816  0.83351323  0.52353540  1
  O  O220  1  0.74297995  0.34826478  0.00015012  1
  O  O221  1  0.76093231  0.35905222  0.48119145  1
  O  O222  1  0.74298657  0.83957659  -0.03996511  1
  O  O223  1  0.74732787  0.85323583  0.49500430  1
  O  O224  1  0.10484001  0.48532172  0.25017706  1
  O  O225  1  0.14283685  0.51303600  0.78704651  1
  O  O226  1  0.14092311  0.98302824  0.27765677  1
  O  O227  1  0.12749833  1.02479658  0.78046362  1
  O  O228  1  0.62713747  0.48285588  0.23806873  1
  O  O229  1  0.61665221  0.49670639  0.72881353  1
  O  O230  1  0.63283725  0.98269236  0.27357056  1
  O  O231  1  0.60776239  0.99842026  0.74469191  1
  O  O232  1  0.36947195  0.00160584  0.27861211  1
  O  O233  1  0.38567974  0.02768056  0.75500039  1
  O  O234  1  0.36030616  0.52430339  0.25058534  1
  O  O235  1  0.38411407  0.48500951  0.75762833  1
  O  O236  1  0.86700856  -0.00267677  0.24837601  1
  O  O237  1  0.86543944  -0.01548145  0.75231536  1
  O  O238  1  0.91105602  0.50135749  0.26284120  1
  O  O239  1  0.93305254  0.52572996  0.73681283  1
  O  O240  1  0.11386142  0.36532495  0.35725127  1
  O  O241  1  0.11016877  0.34985183  0.87959330  1
  O  O242  1  0.11964937  0.89008418  0.42826173  1
  O  O243  1  0.05389859  0.95927722  0.90840261  1
  O  O244  1  0.61587850  0.38481711  0.35523243  1
  O  O245  1  0.66459025  0.36695367  0.78825596  1
  O  O246  1  0.62967743  0.85120569  0.37798590  1
  O  O247  1  0.59313233  0.87098310  0.87038731  1
  O  O248  1  0.37739531  0.10260742  0.14669480  1
  O  O249  1  0.38021434  0.14249503  0.63591938  1
  O  O250  1  0.35117324  0.63686040  0.10399561  1
  O  O251  1  0.39015554  0.60145808  0.63646778  1
  O  O252  1  0.86630392  0.11894618  0.14956153  1
  O  O253  1  0.86922123  0.13798193  0.62608644  1
  O  O254  1  0.90879242  0.81235775  0.16488590  1
  O  O255  1  0.86432487  0.63925087  0.62051152  1
  O  O256  1  0.23706920  0.25960022  0.11587161  1
  O  O257  1  0.24324067  0.25893253  0.61891623  1
  O  O258  1  0.25278012  0.76954917  0.11958612  1
  O  O259  1  0.29257029  0.78108099  0.67398929  1
  O  O260  1  0.75933699  0.23583434  0.11351758  1
  O  O261  1  0.75475100  0.23871089  0.60198505  1
  O  O262  1  0.74034129  0.76764574  0.10521057  1
  O  O263  1  0.74506378  0.73643344  0.61014228  1
  O  O264  1  0.24167841  0.24154024  0.38325811  1
  O  O265  1  0.23309410  0.24187929  0.88182378  1
  O  O266  1  0.23305655  0.76006115  0.38976878  1
  O  O267  1  0.26897960  0.74740351  0.85319937  1
  O  O268  1  0.75715163  0.23450224  0.38430017  1
  O  O269  1  0.75687987  0.23320848  0.88043537  1
  O  O270  1  0.74844166  0.73581337  0.38675431  1
  O  O271  1  0.70405987  0.71711891  0.87355858  1
  O  O272  1  -0.00729904  0.12517728  0.03010945  1
  O  O273  1  -0.01894786  0.12848089  0.51462828  1
  O  O274  1  -0.09680573  0.68554330  0.04327832  1
  O  O275  1  0.01806057  0.62394696  0.47955910  1
  O  O276  1  0.51293162  0.12359241  0.00768297  1
  O  O277  1  0.50985360  0.13237531  0.49832783  1
  O  O278  1  0.50887867  0.61717256  -0.05084506  1
  O  O279  1  0.50543730  0.61251696  0.50653171  1
  O  O280  1  0.51456569  0.39164111  0.47787347  1
  O  O281  1  0.47889892  0.34900767  1.01267666  1
  O  O282  1  0.49353825  0.86405643  0.49650418  1
  O  O283  1  0.52571354  0.86386880  0.90522779  1
  O  O284  1  0.98212452  0.35606095  0.48307303  1
  O  O285  1  0.98252315  0.36842323  0.99833057  1
  O  O286  1  0.98975655  0.86996260  0.52257327  1
  O  O287  1  1.03941359  0.88188889  0.92954611  1
  O  O288  1  0.49506594  0.51659527  0.38627587  1
  O  O289  1  0.49751691  0.46689593  0.87567772  1
  O  O290  1  0.48815082  1.00929012  0.38867143  1
  O  O291  1  0.49109150  1.01498421  0.87341093  1
  O  O292  1  0.99458705  0.48438217  0.39207636  1
  O  O293  1  0.94890919  0.50987475  0.80674288  1
  O  O294  1  1.08496395  0.96272351  0.43547112  1
  O  O295  1  0.99482117  0.99134447  0.87129652  1
  O  O296  1  0.02409978  -0.02407186  0.14202504  1
  O  O297  1  -0.01005651  0.01848616  0.63437986  1
  O  O298  1  0.01411944  0.49341759  0.11937355  1
  O  O299  1  0.01073779  0.49169769  0.56997190  1
  O  O300  1  0.48675769  -0.04789006  0.11042123  1
  O  O301  1  0.50892123  0.00781645  0.61186193  1
  O  O302  1  0.50476686  0.50556983  0.13523345  1
  O  O303  1  0.51177337  0.50024720  0.60509359  1
  O  O304  1  0.22599154  0.36951454  0.22623455  1
  O  O305  1  0.24116569  0.37871540  0.74023960  1
  O  O306  1  0.25705808  0.88139386  0.28557374  1
  O  O307  1  0.25282982  0.92646369  0.72908013  1
  O  O308  1  0.74805381  0.37566501  0.25799248  1
  O  O309  1  0.68761770  0.30871254  0.74813997  1
  O  O310  1  0.74926209  0.88377733  0.26243127  1
  O  O311  1  0.73676843  0.89123075  0.77043124  1
  O  O312  1  0.25909980  0.10630297  0.26953105  1
  O  O313  1  0.25106980  0.10771755  0.72256443  1
  O  O314  1  0.17880227  0.62049914  0.32681839  1
  O  O315  1  0.27553683  0.59886551  0.74794712  1
  O  O316  1  0.75711019  0.10756278  0.26081716  1
  O  O317  1  0.74726512  0.11473035  0.76589042  1
  O  O318  1  0.76005109  0.64105932  0.26300284  1
  O  O319  1  0.75064278  0.61186987  0.77150695  1
  O  O320  1  0.36409076  0.11777548  0.37986615  1
  O  O321  1  0.38461899  0.14173251  0.84972992  1
  O  O322  1  0.36118073  0.61168661  0.34994672  1
  O  O323  1  0.38928034  0.58587455  0.86173130  1
  O  O324  1  0.86252334  0.12612796  0.35668973  1
  O  O325  1  0.86207905  0.11850435  0.88486723  1
  O  O326  1  0.86759024  0.61643073  0.38064050  1
  O  O327  1  0.84667826  0.61480598  0.90082821  1
  O  O328  1  0.12322625  0.38548676  0.12660927  1
  O  O329  1  0.13031194  0.36801269  0.61866045  1
  O  O330  1  0.14920824  0.88540543  0.11795151  1
  O  O331  1  0.14893673  0.86292953  0.62568096  1
  O  O332  1  0.61942898  0.38013397  0.14320915  1
  O  O333  1  0.63255532  0.39093541  0.61257304  1
  O  O334  1  0.62286385  0.86846117  0.16116357  1
  O  O335  1  0.62044428  0.89544779  0.61597251  1
  O  O336  1  0.11598802  0.24863347  0.25804532  1
  O  O337  1  0.11083554  0.24295077  0.76549228  1
  O  O338  1  0.16294903  0.71442635  0.23115163  1
  O  O339  1  0.11967601  0.73600536  0.75380523  1
  O  O340  1  0.63762558  0.26363460  0.24466787  1
  O  O341  1  0.63093233  0.25587437  0.72348919  1
  O  O342  1  0.63108257  0.75633743  0.26625109  1
  O  O343  1  0.62842216  0.75905288  0.72318682  1
  O  O344  1  0.35290311  0.22861683  0.25163749  1
  O  O345  1  0.37243220  0.24597515  0.73486959  1
  O  O346  1  0.36098449  0.73015046  0.22948323  1
  O  O347  1  0.39410555  0.71170711  0.76278882  1
  O  O348  1  0.89174634  0.24821032  0.24636990  1
  O  O349  1  0.84940731  0.27357758  0.71962504  1
  O  O350  1  0.99257865  0.79433539  0.31640327  1
  O  O351  1  0.83985153  0.75057095  0.73760625  1
  O  O352  1  0.38803478  0.49644813  0.50645413  1
  O  O353  1  0.37332522  0.47310793  0.98156533  1
  O  O354  1  0.39523412  1.01917798  0.50009143  1
  O  O355  1  0.37206961  1.04576388  0.97520492  1
  O  O356  1  0.86510314  0.48162769  0.48101024  1
  O  O357  1  0.83592482  0.48554593  1.02207102  1
  O  O358  1  0.86292048  0.97453997  0.52113790  1
  O  O359  1  0.96294175  1.05878926  1.02358299  1
  O  O360  1  0.13718603  0.01325228  0.02804271  1
  O  O361  1  0.10992121  0.00735606  0.48939518  1
  O  O362  1  0.12029865  0.48463729  -0.01792276  1
  O  O363  1  0.14091365  0.50984491  0.46885147  1
  O  O364  1  0.63150405  0.00724135  0.00228868  1
  O  O365  1  0.60497504  0.00062914  0.48751051  1
  O  O366  1  0.61841955  0.47387161  0.02526803  1
  O  O367  1  0.62529069  0.51071925  0.48902081  1
  O  O368  1  0.35641888  0.38475547  0.11793636  1
  O  O369  1  0.35550431  0.35975013  0.62752555  1
  O  O370  1  0.35429539  0.86561854  0.14710663  1
  O  O371  1  0.38202016  0.87304048  0.60534416  1
  O  O372  1  0.85809981  0.38433528  0.10470593  1
  O  O373  1  0.87355263  0.37780701  0.60098399  1
  O  O374  1  0.85417746  0.95597426  0.07295607  1
  O  O375  1  0.87051916  0.84805653  0.61815169  1
  O  O376  1  0.13358275  0.13281869  0.36552682  1
  O  O377  1  0.05555902  0.17186288  0.89348451  1
  O  O378  1  0.13100836  0.64886486  0.27809501  1
  O  O379  1  0.04369240  0.62388452  0.94081006  1
  O  O380  1  0.64683187  0.12481989  0.36717408  1
  O  O381  1  0.64018968  0.12690018  0.89733208  1
  O  O382  1  0.64195130  0.62747967  0.37612674  1
  O  O383  1  0.57547742  0.74319072  0.77071911  1
