# generated using pymatgen
data_VZnO4
_symmetry_space_group_name_H-M   'P 1'
_cell_length_a   17.00713193
_cell_length_b   16.98864582
_cell_length_c   16.91811522
_cell_angle_alpha   89.80544539
_cell_angle_beta   89.78493197
_cell_angle_gamma   89.85026541
_symmetry_Int_Tables_number   1
_chemical_formula_structural   VZnO4
_chemical_formula_sum   'V64 Zn64 O256'
_cell_volume   4888.04043014
_cell_formula_units_Z   64
loop_
 _symmetry_equiv_pos_site_id
 _symmetry_equiv_pos_as_xyz
  1  'x, y, z'
loop_
 _atom_site_type_symbol
 _atom_site_label
 _atom_site_symmetry_multiplicity
 _atom_site_fract_x
 _atom_site_fract_y
 _atom_site_fract_z
 _atom_site_occupancy
  V  V0  1  0.24211549  0.77156903  0.00118186  1
  V  V1  1  0.49323081  0.01755725  0.49848898  1
  V  V2  1  0.74293759  0.75628935  0.49526732  1
  V  V3  1  0.87822213  0.61077027  0.74536327  1
  V  V4  1  0.75138658  -0.00395985  0.75453700  1
  V  V5  1  0.26389977  0.25284058  0.01283677  1
  V  V6  1  0.11803022  0.76327067  0.37588986  1
  V  V7  1  -0.01475189  0.77367201  0.26036526  1
  V  V8  1  0.38874966  0.38317355  0.00517926  1
  V  V9  1  0.59718387  0.51950747  0.14726215  1
  V  V10  1  0.23747870  0.61763791  0.89860690  1
  V  V11  1  0.50512481  0.29394310  0.29401010  1
  V  V12  1  0.12702677  0.12786549  0.00830165  1
  V  V13  1  0.62769954  0.60360932  0.50969426  1
  V  V14  1  0.26621323  0.12124103  0.87421885  1
  V  V15  1  0.12349915  0.89028378  0.25538271  1
  V  V16  1  0.89122771  0.75754979  0.11518544  1
  V  V17  1  0.12322834  0.11864314  0.49268015  1
  V  V18  1  0.12364721  0.61717210  0.48821927  1
  V  V19  1  0.01516471  0.39309043  0.88017923  1
  V  V20  1  0.38216062  0.49946223  0.37515887  1
  V  V21  1  0.73440801  0.63189114  0.36322248  1
  V  V22  1  0.27154278  0.12349044  0.37390011  1
  V  V23  1  0.47225146  0.13822770  0.11577920  1
  V  V24  1  0.50382107  0.59543132  0.62470449  1
  V  V25  1  0.75802854  -0.00790014  0.24757500  1
  V  V26  1  0.11533982  0.75384177  0.86900239  1
  V  V27  1  0.24203373  0.51615380  0.26221193  1
  V  V28  1  0.51087510  0.25275493  0.78796040  1
  V  V29  1  0.41182371  0.70518579  0.20483212  1
  V  V30  1  0.70528358  0.12787890  0.37402380  1
  V  V31  1  0.39127726  0.25181268  0.62493265  1
  V  V32  1  0.13833506  0.25220372  0.86787549  1
  V  V33  1  0.00725424  -0.02405914  -0.00900837  1
  V  V34  1  0.73393233  0.85485790  0.09311093  1
  V  V35  1  0.00512388  0.76123344  0.73880655  1
  V  V36  1  -0.00020608  0.60907430  0.60597250  1
  V  V37  1  0.47447593  0.87479961  0.39371219  1
  V  V38  1  0.71852398  0.86671075  0.62570447  1
  V  V39  1  0.66694696  0.72369594  0.89606296  1
  V  V40  1  0.11743615  0.01407346  0.63863227  1
  V  V41  1  0.88140457  0.76545317  0.60805704  1
  V  V42  1  0.32059473  0.56436036  0.68842546  1
  V  V43  1  0.38483554  0.11674947  0.74719487  1
  V  V44  1  -0.00822817  0.24256486  0.75627700  1
  V  V45  1  0.49672713  -0.04343904  0.00891210  1
  V  V46  1  0.27168970  0.00468660  0.25075562  1
  V  V47  1  0.12812199  0.00372126  0.12765833  1
  V  V48  1  0.10481755  0.35595123  0.26734794  1
  V  V49  1  0.23709909  0.88775372  0.63334474  1
  V  V50  1  0.25097190  0.25365111  0.50111903  1
  V  V51  1  0.50082000  0.76375317  0.73733378  1
  V  V52  1  0.49349919  0.54732418  0.00396912  1
  V  V53  1  0.14863628  0.38383927  0.73258332  1
  V  V54  1  0.73953666  0.48241103  0.24692828  1
  V  V55  1  0.24663711  0.38409691  0.13739953  1
  V  V56  1  0.61981896  0.02368488  0.62462848  1
  V  V57  1  0.62514818  0.87688816  0.29633919  1
  V  V58  1  0.90601458  0.59820631  0.26281692  1
  V  V59  1  0.24797747  0.76614927  0.49008422  1
  V  V60  1  0.38741947  0.37828248  0.49845140  1
  V  V61  1  0.37432512  -0.02233791  0.87961466  1
  V  V62  1  0.37115890  0.77118788  0.61826932  1
  V  V63  1  0.36497172  0.50687178  0.87826904  1
  Zn  Zn64  1  0.19504557  0.18919055  0.19379684  1
  Zn  Zn65  1  0.20124945  0.18834126  0.68560203  1
  Zn  Zn66  1  0.17422929  0.69333475  0.18628351  1
  Zn  Zn67  1  0.18145205  0.68895506  0.66797462  1
  Zn  Zn68  1  0.63264681  0.15517146  0.21284849  1
  Zn  Zn69  1  0.68509004  0.16970062  0.81715827  1
  Zn  Zn70  1  0.58460654  0.70541882  0.20573107  1
  Zn  Zn71  1  0.66549278  0.65023867  0.72609011  1
  Zn  Zn72  1  0.32498157  0.30448230  0.31590214  1
  Zn  Zn73  1  0.32189668  0.31412454  0.81546887  1
  Zn  Zn74  1  0.31098286  0.81727233  0.29600244  1
  Zn  Zn75  1  0.29691275  0.79599129  0.80111202  1
  Zn  Zn76  1  0.77448621  0.30689438  0.34550455  1
  Zn  Zn77  1  0.83059377  0.34290484  0.82651560  1
  Zn  Zn78  1  0.76815563  0.78282458  0.27020456  1
  Zn  Zn79  1  0.80954850  0.80383674  0.79028104  1
  Zn  Zn80  1  0.19053248  0.42962074  0.43354865  1
  Zn  Zn81  1  0.17447066  0.43137592  0.94546748  1
  Zn  Zn82  1  0.19073497  0.94563120  0.43556691  1
  Zn  Zn83  1  0.16872369  0.94276414  0.91355814  1
  Zn  Zn84  1  0.74389514  0.44680578  0.43949285  1
  Zn  Zn85  1  0.69116502  0.46403770  1.03436224  1
  Zn  Zn86  1  0.69564039  0.95341158  0.44390588  1
  Zn  Zn87  1  0.66300385  0.91188609  0.92111555  1
  Zn  Zn88  1  0.31666050  0.05214046  0.06089070  1
  Zn  Zn89  1  0.30854979  0.06813318  0.56674157  1
  Zn  Zn90  1  0.31088480  0.57101632  0.07313550  1
  Zn  Zn91  1  0.31969936  0.58480027  0.52050442  1
  Zn  Zn92  1  0.83690135  -0.07588081  -0.07857539  1
  Zn  Zn93  1  0.75106822  0.13515412  0.57393610  1
  Zn  Zn94  1  0.74873210  0.63632846  0.13604704  1
  Zn  Zn95  1  0.78574812  0.59264630  0.59874679  1
  Zn  Zn96  1  0.42496869  0.44875531  0.18908422  1
  Zn  Zn97  1  0.43771371  0.42105617  0.69954620  1
  Zn  Zn98  1  0.46312177  0.86783517  0.17824567  1
  Zn  Zn99  1  0.43978479  0.94458994  0.67627127  1
  Zn  Zn100  1  0.91739430  0.42233439  0.31519404  1
  Zn  Zn101  1  0.97140285  0.43849351  0.69713110  1
  Zn  Zn102  1  0.93813455  0.94424669  0.17110221  1
  Zn  Zn103  1  0.93734053  0.94516446  0.68030351  1
  Zn  Zn104  1  0.06693109  0.07777263  0.31441438  1
  Zn  Zn105  1  0.06929390  0.06936511  0.81981473  1
  Zn  Zn106  1  0.07702252  0.56985385  0.29955439  1
  Zn  Zn107  1  0.07425850  0.56885590  0.78877476  1
  Zn  Zn108  1  0.53608951  0.04132020  0.29610034  1
  Zn  Zn109  1  0.55988971  0.04271928  0.81359817  1
  Zn  Zn110  1  0.55125881  0.57660519  0.32535482  1
  Zn  Zn111  1  0.51595880  0.62338729  0.83786344  1
  Zn  Zn112  1  0.44299059  0.18947235  0.42975193  1
  Zn  Zn113  1  0.53839996  0.15378291  0.94614617  1
  Zn  Zn114  1  0.42195433  0.69556403  0.39632569  1
  Zn  Zn115  1  0.42239086  0.79158401  0.92303317  1
  Zn  Zn116  1  0.95366715  0.12011467  0.59580380  1
  Zn  Zn117  1  0.95744214  0.17782526  0.91708546  1
  Zn  Zn118  1  0.93245866  0.68605355  0.42943275  1
  Zn  Zn119  1  0.89425402  0.73132994  0.90769721  1
  Zn  Zn120  1  0.08179376  0.32351964  0.06088852  1
  Zn  Zn121  1  0.06707773  0.28027036  0.58032298  1
  Zn  Zn122  1  0.08330744  0.80530911  0.07325818  1
  Zn  Zn123  1  0.06597961  0.82325196  0.56323524  1
  Zn  Zn124  1  0.58373322  0.30822345  0.12783432  1
  Zn  Zn125  1  0.55259343  0.28964457  0.50991670  1
  Zn  Zn126  1  0.55531010  0.76252826  0.04253179  1
  Zn  Zn127  1  0.54916250  0.80027622  0.52962478  1
  O  O128  1  0.13211910  0.12760605  0.11430434  1
  O  O129  1  0.14503823  0.11462333  0.61466902  1
  O  O130  1  0.09591449  0.61024735  0.14462183  1
  O  O131  1  0.10798021  0.63287400  0.59997717  1
  O  O132  1  0.64901277  0.20481235  0.09896233  1
  O  O133  1  0.64522896  0.11975711  0.62453783  1
  O  O134  1  0.62700430  0.62135902  0.13547398  1
  O  O135  1  0.61837165  0.60876512  0.62216465  1
  O  O136  1  0.37400745  0.38193435  0.38886842  1
  O  O137  1  0.36033041  0.39650895  0.89311647  1
  O  O138  1  0.37710016  0.87252416  0.37703233  1
  O  O139  1  0.35982288  0.87807148  0.86161210  1
  O  O140  1  0.83821763  0.38735282  0.38736315  1
  O  O141  1  0.91609781  0.37830451  0.89416434  1
  O  O142  1  0.94178534  0.89173201  0.44987988  1
  O  O143  1  0.88318613  0.83839751  0.86739787  1
  O  O144  1  0.25147558  0.01439723  0.36505003  1
  O  O145  1  0.25983983  0.01404945  0.87911970  1
  O  O146  1  0.25713573  0.49571061  0.36548015  1
  O  O147  1  0.24271485  0.51080075  0.89797789  1
  O  O148  1  0.74400135  0.02735029  0.36633307  1
  O  O149  1  0.74240134  -0.03549225  0.85568592  1
  O  O150  1  0.73713678  0.52228040  0.35301391  1
  O  O151  1  0.76715259  0.53932495  0.97481190  1
  O  O152  1  0.25418069  0.49168281  0.14444609  1
  O  O153  1  0.26966066  0.51116497  0.62593928  1
  O  O154  1  0.24201461  1.01343237  0.14418453  1
  O  O155  1  0.24469370  0.99113577  0.62345592  1
  O  O156  1  0.72651382  0.51281833  0.14175030  1
  O  O157  1  0.77587810  0.47152857  0.61131438  1
  O  O158  1  0.74382586  0.93878233  0.15032479  1
  O  O159  1  0.72830877  0.97565279  0.63103762  1
  O  O160  1  0.00459233  0.36458229  0.26482641  1
  O  O161  1  0.02434853  0.35985091  0.76103972  1
  O  O162  1  0.00749044  0.87856548  0.24812835  1
  O  O163  1  -0.00250847  0.85962231  0.73430547  1
  O  O164  1  0.49276333  0.38748098  0.25773873  1
  O  O165  1  0.49315110  0.35072805  0.76533800  1
  O  O166  1  0.51342589  0.86812667  0.28622302  1
  O  O167  1  0.48890316  0.86301689  0.73869429  1
  O  O168  1  0.52571371  0.10215657  0.19855791  1
  O  O169  1  0.48577676  0.13540480  0.76559247  1
  O  O170  1  0.49549689  0.65385761  0.26136713  1
  O  O171  1  0.49474735  0.63447056  0.72055587  1
  O  O172  1  0.99361343  0.14896066  0.23385457  1
  O  O173  1  0.98609790  0.14509219  0.80156214  1
  O  O174  1  0.99471981  0.65839968  0.26075849  1
  O  O175  1  0.99731368  0.63041211  0.72116857  1
  O  O176  1  0.36258954  0.27423382  -0.00401908  1
  O  O177  1  0.37350977  0.25811463  0.50387774  1
  O  O178  1  0.34175539  0.76139431  0.00071506  1
  O  O179  1  0.35057412  0.74425762  0.50737035  1
  O  O180  1  0.92995349  0.25396319  0.02847670  1
  O  O181  1  0.94495166  0.26060537  0.45061493  1
  O  O182  1  0.89843987  0.72316557  0.02252007  1
  O  O183  1  0.86558818  0.74535165  0.50304185  1
  O  O184  1  0.14764828  0.23528301  0.51048121  1
  O  O185  1  0.14243873  0.24168330  0.99531744  1
  O  O186  1  0.12635171  0.76003222  0.48921169  1
  O  O187  1  0.11328778  0.74671670  0.97114666  1
  O  O188  1  0.66468125  0.31390134  0.50131531  1
  O  O189  1  0.65615814  0.33220401  0.94703211  1
  O  O190  1  0.64337734  0.73398413  0.51001125  1
  O  O191  1  0.64468799  0.70665400  0.99379017  1
  O  O192  1  0.49725407  0.23525603  0.09893277  1
  O  O193  1  0.48945026  0.24402286  0.60278576  1
  O  O194  1  0.49783898  0.75502509  0.14407463  1
  O  O195  1  0.47624839  0.75656754  0.61539530  1
  O  O196  1  0.97707907  0.26685698  0.08569724  1
  O  O197  1  1.00395159  0.21892086  0.65472760  1
  O  O198  1  0.99663925  0.75812519  0.14601992  1
  O  O199  1  0.99288713  0.75241069  0.61662171  1
  O  O200  1  -0.05547720  0.19701491  0.26026539  1
  O  O201  1  0.02574059  0.26654093  0.87639039  1
  O  O202  1  0.00294048  0.76334852  0.36869019  1
  O  O203  1  0.00810134  0.73908491  0.84710788  1
  O  O204  1  0.51924795  0.27077398  0.39752690  1
  O  O205  1  0.50048587  0.24480260  0.88804150  1
  O  O206  1  0.49824938  0.77211467  0.41875523  1
  O  O207  1  0.47555030  0.73488918  0.83934614  1
  O  O208  1  0.25022256  0.12719785  0.48666007  1
  O  O209  1  0.25703511  0.13937821  0.99492167  1
  O  O210  1  0.22608413  0.65038627  0.50354209  1
  O  O211  1  0.24039415  0.63300406  0.99973791  1
  O  O212  1  0.70646901  0.15150612  0.47143724  1
  O  O213  1  0.84298967  0.15793381  0.92281483  1
  O  O214  1  0.74400018  0.62887816  0.49733922  1
  O  O215  1  0.78814234  0.60191013  1.01033823  1
  O  O216  1  0.24213508  0.36788590  0.01878248  1
  O  O217  1  0.25289188  0.35557329  0.49763715  1
  O  O218  1  0.22471868  0.86851211  -0.01469406  1
  O  O219  1  0.24233369  0.87000384  0.50799639  1
  O  O220  1  0.71728449  0.37142205  -0.03551326  1
  O  O221  1  0.78465440  0.42632925  0.55054635  1
  O  O222  1  0.75430821  0.87980144  -0.00492514  1
  O  O223  1  0.74351891  0.86186140  0.50545454  1
  O  O224  1  0.14241848  0.47952153  0.26183280  1
  O  O225  1  0.13599702  0.48329725  0.73735180  1
  O  O226  1  0.11624230  1.00576026  0.24246243  1
  O  O227  1  0.12936713  1.01783603  0.73761743  1
  O  O228  1  0.61504692  0.50999745  0.24922118  1
  O  O229  1  0.64023335  0.45645173  0.74990741  1
  O  O230  1  0.62352645  0.96993343  0.25302662  1
  O  O231  1  0.62621117  0.99623539  0.73251364  1
  O  O232  1  0.36620859  -0.00573264  0.24610827  1
  O  O233  1  0.38188563  0.01154383  0.75912853  1
  O  O234  1  0.35911419  0.50529217  0.26663166  1
  O  O235  1  0.36864849  0.49807367  0.75930544  1
  O  O236  1  0.85829558  -0.00534377  0.23733481  1
  O  O237  1  0.84951535  -0.02272914  0.74085207  1
  O  O238  1  0.84296986  0.50077839  0.24170876  1
  O  O239  1  0.89259015  0.51062778  0.73708871  1
  O  O240  1  0.12872565  0.36470658  0.36520034  1
  O  O241  1  0.14033098  0.36400208  0.85319067  1
  O  O242  1  0.12149056  0.87860494  0.36718610  1
  O  O243  1  0.13350346  0.84929494  0.85092838  1
  O  O244  1  0.67807016  0.34666517  0.42896747  1
  O  O245  1  0.68160082  0.40497911  0.78424036  1
  O  O246  1  0.61803743  0.87807529  0.39735820  1
  O  O247  1  0.62710963  0.81436618  0.87538824  1
  O  O248  1  0.37340834  0.12640196  0.12745689  1
  O  O249  1  0.37522337  0.12884007  0.64351889  1
  O  O250  1  0.36288593  0.64166221  0.14513758  1
  O  O251  1  0.38497665  0.61747987  0.61527427  1
  O  O252  1  0.74965616  0.12603570  0.05010147  1
  O  O253  1  0.84788238  0.11767925  0.61521180  1
  O  O254  1  0.86945998  0.64268571  0.17215091  1
  O  O255  1  0.89416165  0.63290161  0.61179146  1
  O  O256  1  0.25475531  0.25722874  0.11663812  1
  O  O257  1  0.27372213  0.23457650  0.60707503  1
  O  O258  1  0.19886526  0.75734665  0.09776001  1
  O  O259  1  0.24806484  0.76827862  0.61223993  1
  O  O260  1  0.73392963  0.19377463  0.07343175  1
  O  O261  1  0.77088258  0.27695048  0.62330746  1
  O  O262  1  0.77433838  0.75720990  0.13383520  1
  O  O263  1  0.76549965  0.75841961  0.61012520  1
  O  O264  1  0.26284369  0.23568822  0.38794319  1
  O  O265  1  0.25397637  0.24420963  0.88606910  1
  O  O266  1  0.23536681  0.76695774  0.38541428  1
  O  O267  1  0.23771323  0.73797586  0.88292495  1
  O  O268  1  0.75758972  0.20179141  0.32472662  1
  O  O269  1  0.76212457  0.25044516  0.86240020  1
  O  O270  1  0.75570475  0.73889983  0.38912227  1
  O  O271  1  0.76713367  0.72936324  0.87553267  1
  O  O272  1  0.02798846  0.12143771  -0.00923772  1
  O  O273  1  0.02630839  0.13799856  0.50890416  1
  O  O274  1  0.09803230  0.60083282  0.06330528  1
  O  O275  1  0.00780340  0.62720857  0.49571641  1
  O  O276  1  0.49374894  0.08706598  0.02533428  1
  O  O277  1  0.51128564  0.11616264  0.48510278  1
  O  O278  1  0.48579441  0.64424483  0.00695001  1
  O  O279  1  0.52067468  0.61629020  0.51559932  1
  O  O280  1  0.48500595  0.38523010  0.50800698  1
  O  O281  1  0.48421286  0.38491998  1.00513605  1
  O  O282  1  0.49185607  0.89716366  0.49860341  1
  O  O283  1  0.49194771  0.85171567  0.98976072  1
  O  O284  1  1.00408647  0.30177353  0.46336858  1
  O  O285  1  1.06169693  0.39731304  0.97692973  1
  O  O286  1  0.99767013  0.91044662  0.49342149  1
  O  O287  1  1.01947474  0.87823781  1.00524197  1
  O  O288  1  0.48155000  0.50024657  0.37118597  1
  O  O289  1  0.47510038  0.53172007  0.89283414  1
  O  O290  1  0.49584917  0.98985961  0.38901735  1
  O  O291  1  0.47793807  0.98695147  0.88076834  1
  O  O292  1  0.97302630  0.52229542  0.29977107  1
  O  O293  1  1.02217701  0.48955207  0.85475065  1
  O  O294  1  0.97251344  1.03698122  0.36898206  1
  O  O295  1  1.05753168  0.98712083  0.89733503  1
  O  O296  1  0.01587200  0.00203711  0.10268024  1
  O  O297  1  0.01169614  0.01809460  0.63195778  1
  O  O298  1  -0.09148745  0.46934894  0.05336646  1
  O  O299  1  0.00336003  0.51086953  0.61147072  1
  O  O300  1  0.48232178  -0.04569560  0.10934619  1
  O  O301  1  0.51230038  0.01151644  0.61812008  1
  O  O302  1  0.49264330  0.52176764  0.12311860  1
  O  O303  1  0.49594085  0.49796795  0.63586579  1
  O  O304  1  0.26417955  0.36516667  0.23769942  1
  O  O305  1  0.24728093  0.36046797  0.74141619  1
  O  O306  1  0.23618847  0.90039869  0.26018953  1
  O  O307  1  0.24350059  0.87037931  0.73098811  1
  O  O308  1  0.73051232  0.38561188  0.25624126  1
  O  O309  1  0.76014573  0.42935480  0.79953577  1
  O  O310  1  0.74147342  0.89262805  0.29970345  1
  O  O311  1  0.73595729  0.85937530  0.72722115  1
  O  O312  1  0.25237118  0.11930444  0.26452644  1
  O  O313  1  0.26986412  0.13643979  0.76728603  1
  O  O314  1  0.22469338  0.61414383  0.25240832  1
  O  O315  1  0.25427960  0.62823879  0.73090837  1
  O  O316  1  0.72505423  0.08456784  0.22058579  1
  O  O317  1  0.75048299  0.09567359  0.75935196  1
  O  O318  1  0.72979901  0.64753489  0.26426031  1
  O  O319  1  0.77477356  0.61848175  0.71315753  1
  O  O320  1  0.37001356  0.12075624  0.37607463  1
  O  O321  1  0.36930216  0.11505693  0.87318532  1
  O  O322  1  0.37007412  0.59757260  0.41361944  1
  O  O323  1  0.33942005  0.61389486  0.86789265  1
  O  O324  1  0.91992868  0.09818737  0.38518607  1
  O  O325  1  0.80633096  0.22755436  0.93100159  1
  O  O326  1  0.86014025  0.62945881  0.35351833  1
  O  O327  1  0.88498002  0.63119999  0.84227722  1
  O  O328  1  0.14046157  0.37359969  0.14558410  1
  O  O329  1  0.12103545  0.35974183  0.63656670  1
  O  O330  1  0.12601767  0.89496606  0.14208603  1
  O  O331  1  0.12862427  0.89886965  0.62055879  1
  O  O332  1  0.61650117  0.41602075  0.11414476  1
  O  O333  1  0.72455132  0.31722516  0.66237583  1
  O  O334  1  0.63719802  0.83736943  0.09413808  1
  O  O335  1  0.62217032  0.85876432  0.61299096  1
  O  O336  1  0.12319200  0.25762828  0.24839670  1
  O  O337  1  0.12724539  0.23915497  0.76058709  1
  O  O338  1  0.11831360  0.76977312  0.26004985  1
  O  O339  1  0.10872457  0.74319033  0.73816091  1
  O  O340  1  0.58777618  0.26204437  0.23847611  1
  O  O341  1  0.60823420  0.23987125  0.76636870  1
  O  O342  1  0.64892375  0.78339780  0.25273645  1
  O  O343  1  0.59791868  0.74789874  0.72415077  1
  O  O344  1  0.41792558  0.24718379  0.27348908  1
  O  O345  1  0.38889501  0.24361972  0.73970977  1
  O  O346  1  0.36081917  0.70883331  0.29851307  1
  O  O347  1  0.36871040  0.74868523  0.71986367  1
  O  O348  1  0.84276615  0.29320766  0.16169917  1
  O  O349  1  0.89710174  0.27327637  0.76086071  1
  O  O350  1  0.88488676  0.77816811  0.25683444  1
  O  O351  1  0.88811063  0.73882287  0.72170612  1
  O  O352  1  0.35836822  0.47773973  0.49493029  1
  O  O353  1  0.37937714  0.50398932  1.00140276  1
  O  O354  1  0.39434083  1.01585281  0.51529659  1
  O  O355  1  0.37409936  0.98284098  0.98628875  1
  O  O356  1  0.91256492  0.40055130  0.53784733  1
  O  O357  1  0.93422694  0.52981415  1.02304261  1
  O  O358  1  0.88174049  1.09161134  0.44952336  1
  O  O359  1  0.91100194  0.99413122  0.97045003  1
  O  O360  1  0.14610337  0.01872211  0.01497304  1
  O  O361  1  0.12887046  0.01448106  0.50634104  1
  O  O362  1  0.09860949  0.52960776  0.03868173  1
  O  O363  1  0.13367740  0.51961320  0.47937715  1
  O  O364  1  0.59360607  -0.02973445  -0.01105215  1
  O  O365  1  0.62034363  -0.00035071  0.51954695  1
  O  O366  1  0.59313438  0.52681650  0.00622233  1
  O  O367  1  0.64660608  0.50799864  0.49593785  1
  O  O368  1  0.36281587  0.38703861  0.11082113  1
  O  O369  1  0.37747774  0.35671805  0.61849685  1
  O  O370  1  0.36780935  0.80502119  0.19180695  1
  O  O371  1  0.35967290  0.87410605  0.61957818  1
  O  O372  1  0.81254819  0.32496353  0.10368796  1
  O  O373  1  0.92820012  0.36409320  0.60090720  1
  O  O374  1  0.88091015  0.85910134  0.10950497  1
  O  O375  1  0.87931726  0.86518605  0.61302591  1
  O  O376  1  0.13418867  0.12811458  0.38829615  1
  O  O377  1  0.14856547  0.13369921  0.88707766  1
  O  O378  1  0.11575314  0.64713134  0.38131625  1
  O  O379  1  0.14003217  0.63269872  0.85754546  1
  O  O380  1  0.60993273  0.12616861  0.33812631  1
  O  O381  1  0.61915426  0.10786759  0.88518833  1
  O  O382  1  0.63106925  0.62962328  0.39271639  1
  O  O383  1  0.62980625  0.64118922  0.83825276  1
