# generated using pymatgen
data_VZnO4
_symmetry_space_group_name_H-M   'P 1'
_cell_length_a   17.00806138
_cell_length_b   16.84111621
_cell_length_c   17.01375392
_cell_angle_alpha   89.89704259
_cell_angle_beta   89.78821504
_cell_angle_gamma   89.59688518
_symmetry_Int_Tables_number   1
_chemical_formula_structural   VZnO4
_chemical_formula_sum   'V64 Zn64 O256'
_cell_volume   4873.16860068
_cell_formula_units_Z   64
loop_
 _symmetry_equiv_pos_site_id
 _symmetry_equiv_pos_as_xyz
  1  'x, y, z'
loop_
 _atom_site_type_symbol
 _atom_site_label
 _atom_site_symmetry_multiplicity
 _atom_site_fract_x
 _atom_site_fract_y
 _atom_site_fract_z
 _atom_site_occupancy
  V  V0  1  0.75770230  0.12439649  0.87112306  1
  V  V1  1  0.50600409  -0.00575071  0.00257043  1
  V  V2  1  0.71513993  0.12890544  0.37695131  1
  V  V3  1  0.63881388  0.76197489  0.86956955  1
  V  V4  1  0.27207987  0.63057071  0.89261103  1
  V  V5  1  0.73811803  0.49875803  0.71777768  1
  V  V6  1  0.00454765  0.49738047  0.49846581  1
  V  V7  1  0.36710977  0.24954640  0.12181853  1
  V  V8  1  -0.00993844  0.75315782  0.24190047  1
  V  V9  1  0.35956550  0.12095086  0.25900295  1
  V  V10  1  0.74889024  0.76103128  0.49831342  1
  V  V11  1  0.35556918  0.74985340  0.11357594  1
  V  V12  1  0.36669327  -0.01690868  0.38091288  1
  V  V13  1  0.50476873  0.63660607  0.12552814  1
  V  V14  1  0.13140139  0.12432493  0.51805202  1
  V  V15  1  0.86869942  0.00756708  0.39252127  1
  V  V16  1  0.63240126  0.63062152  -0.00402062  1
  V  V17  1  0.24964836  0.52547123  0.28044170  1
  V  V18  1  0.88555771  0.13376662  0.73518183  1
  V  V19  1  0.73764879  0.00035504  0.23766672  1
  V  V20  1  0.62970322  0.75325980  0.35215924  1
  V  V21  1  0.74859470  0.00715265  0.73321848  1
  V  V22  1  0.13424842  0.65015368  0.50212462  1
  V  V23  1  0.24306603  0.85806065  0.63561603  1
  V  V24  1  0.22547425  -0.00470916  0.74753545  1
  V  V25  1  0.89504926  0.12873295  0.23612387  1
  V  V26  1  0.12406669  0.61050750  0.01548977  1
  V  V27  1  -0.07282112  0.90346035  0.89649192  1
  V  V28  1  0.74451340  0.60630159  0.86655599  1
  V  V29  1  0.37785891  0.86087853  0.51727074  1
  V  V30  1  0.86773035  0.62243945  0.73559958  1
  V  V31  1  0.62360053  0.25386992  0.87581964  1
  V  V32  1  0.27944029  0.50600493  0.75360644  1
  V  V33  1  0.36664003  0.88049240  -0.00080398  1
  V  V34  1  -0.00504328  0.88841055  0.38583992  1
  V  V35  1  0.76166578  0.26038568  0.00819325  1
  V  V36  1  0.00230541  0.63610762  0.61850577  1
  V  V37  1  0.39557560  0.64080976  0.72765441  1
  V  V38  1  0.11010695  0.25240702  0.87665002  1
  V  V39  1  0.36248184  0.37197356  0.00114708  1
  V  V40  1  0.49773546  0.87721253  0.87029271  1
  V  V41  1  0.09110023  0.37850383  0.73822466  1
  V  V42  1  0.37529176  0.10194673  0.75240848  1
  V  V43  1  0.63667862  0.48679511  0.12719893  1
  V  V44  1  0.61710283  0.34947112  0.26164772  1
  V  V45  1  0.48248207  0.52391302  0.46891229  1
  V  V46  1  0.50164869  0.12109416  0.60478377  1
  V  V47  1  0.85928740  0.76303851  0.62360056  1
  V  V48  1  0.77016347  0.61290206  0.35928960  1
  V  V49  1  -0.01810062  0.49300636  0.00920464  1
  V  V50  1  0.49519745  0.37797908  0.87560226  1
  V  V51  1  0.14076457  0.38423270  0.30413157  1
  V  V52  1  0.63079098  0.88735508  0.73066667  1
  V  V53  1  0.51298540  -0.00987606  0.50118547  1
  V  V54  1  0.12879577  0.76576318  0.37620326  1
  V  V55  1  0.63181150  0.61262501  0.49718457  1
  V  V56  1  0.61909106  0.12217833  -0.00410102  1
  V  V57  1  0.62299435  0.37467838  0.72618386  1
  V  V58  1  0.10815247  0.73268676  0.86952770  1
  V  V59  1  0.24387819  0.12826285  0.87968187  1
  V  V60  1  0.50453927  0.12412207  0.13838056  1
  V  V61  1  0.50201731  0.49716481  -0.00341204  1
  V  V62  1  0.48415931  0.24890904  0.74162805  1
  V  V63  1  0.71529549  0.25460842  0.50351623  1
  Zn  Zn64  1  0.16544945  0.26583474  0.16831903  1
  Zn  Zn65  1  0.19218754  0.20314638  0.70473770  1
  Zn  Zn66  1  0.17263279  0.69467434  0.19256720  1
  Zn  Zn67  1  0.19879451  0.66602491  0.69375889  1
  Zn  Zn68  1  0.68155646  0.18187040  0.18950191  1
  Zn  Zn69  1  0.67660264  0.18763111  0.68476547  1
  Zn  Zn70  1  0.70358794  0.67334718  0.17924944  1
  Zn  Zn71  1  0.64419780  0.70443807  0.66769348  1
  Zn  Zn72  1  0.29615775  0.30681942  0.28181261  1
  Zn  Zn73  1  0.30491502  0.31856976  0.81879446  1
  Zn  Zn74  1  0.31819244  0.76861947  0.31092694  1
  Zn  Zn75  1  0.30999515  0.80268608  0.81039715  1
  Zn  Zn76  1  0.80842851  0.30811234  0.20360185  1
  Zn  Zn77  1  0.80995022  0.31614863  0.79670552  1
  Zn  Zn78  1  0.80992714  0.81443653  0.31294652  1
  Zn  Zn79  1  0.81178289  0.81619948  0.81181177  1
  Zn  Zn80  1  0.19868959  0.46819385  0.46078138  1
  Zn  Zn81  1  0.15144030  0.47096072  0.88593973  1
  Zn  Zn82  1  0.19464284  0.92729234  0.44832156  1
  Zn  Zn83  1  0.19302304  0.91307485  0.89610058  1
  Zn  Zn84  1  0.69680748  0.43411514  0.42030042  1
  Zn  Zn85  1  0.68890382  0.43333003  0.93580287  1
  Zn  Zn86  1  0.69196719  0.93744773  0.42812083  1
  Zn  Zn87  1  0.71282756  0.93399292  0.93640244  1
  Zn  Zn88  1  0.32725959  0.07161123  0.05046045  1
  Zn  Zn89  1  0.32366726  0.04790106  0.57603328  1
  Zn  Zn90  1  0.32198174  0.56251581  0.06291910  1
  Zn  Zn91  1  0.30618278  0.56577807  0.56658458  1
  Zn  Zn92  1  0.80433620  0.09116861  0.07427240  1
  Zn  Zn93  1  0.80384756  0.08681984  0.55960523  1
  Zn  Zn94  1  0.82570707  0.43744558  0.08493982  1
  Zn  Zn95  1  0.81766171  0.56337591  0.54310260  1
  Zn  Zn96  1  0.44687156  0.43907105  0.18146574  1
  Zn  Zn97  1  0.43596654  0.42806079  0.67003175  1
  Zn  Zn98  1  0.38581305  0.90664150  0.21433441  1
  Zn  Zn99  1  0.46036321  0.80855654  0.68601396  1
  Zn  Zn100  1  0.99670544  0.38227406  0.16892184  1
  Zn  Zn101  1  0.92900420  0.44968085  0.65026020  1
  Zn  Zn102  1  0.90075682  0.91687310  0.22405433  1
  Zn  Zn103  1  0.92678911  0.93070279  0.70942602  1
  Zn  Zn104  1  0.01752634  0.11539223  0.36374008  1
  Zn  Zn105  1  0.05033795  0.06176861  0.82720420  1
  Zn  Zn106  1  0.05912913  0.57413911  0.32229064  1
  Zn  Zn107  1  0.04914919  0.57385969  0.81595474  1
  Zn  Zn108  1  0.55221907  -0.06428706  0.30938654  1
  Zn  Zn109  1  0.56174681  0.06245094  0.81290768  1
  Zn  Zn110  1  0.57382326  0.56727648  0.30739313  1
  Zn  Zn111  1  0.56451790  0.55831352  0.80826007  1
  Zn  Zn112  1  0.50341675  0.12130880  0.37417848  1
  Zn  Zn113  1  0.43204951  0.18775642  0.92979851  1
  Zn  Zn114  1  0.44350563  0.69083019  0.42469917  1
  Zn  Zn115  1  0.45401173  0.70046717  0.94215442  1
  Zn  Zn116  1  0.87287701  0.23131621  0.38261610  1
  Zn  Zn117  1  0.93437009  0.32024234  0.92296646  1
  Zn  Zn118  1  0.93801647  0.70309661  0.43509650  1
  Zn  Zn119  1  0.93485391  0.63874875  0.93085195  1
  Zn  Zn120  1  0.11346129  0.37671292  0.02457795  1
  Zn  Zn121  1  0.25138173  0.37199834  0.62185462  1
  Zn  Zn122  1  0.02147412  0.76912815  0.03254606  1
  Zn  Zn123  1  0.04047246  0.83526194  0.57825648  1
  Zn  Zn124  1  0.55702693  0.30630297  0.06502696  1
  Zn  Zn125  1  0.55100920  0.33400451  0.45180683  1
  Zn  Zn126  1  0.50864226  0.76676588  0.23645260  1
  Zn  Zn127  1  0.57014031  0.80791251  0.54573281  1
  O  O128  1  0.12948109  0.00553877  0.24121848  1
  O  O129  1  0.13490932  0.13689023  0.62184879  1
  O  O130  1  0.14367250  0.61622081  0.11287122  1
  O  O131  1  0.10371769  0.66147809  0.61598670  1
  O  O132  1  0.60927335  0.13302197  0.10904904  1
  O  O133  1  0.59576117  0.12282527  0.63690161  1
  O  O134  1  0.62659859  0.61772538  0.10630795  1
  O  O135  1  0.63271262  0.61525305  0.59672374  1
  O  O136  1  0.40123157  0.34311439  0.36256157  1
  O  O137  1  0.38428601  0.36739319  0.89092432  1
  O  O138  1  0.37894322  0.88206407  0.39195306  1
  O  O139  1  0.39555752  0.86610479  0.87892866  1
  O  O140  1  0.89850930  0.36332191  0.40685704  1
  O  O141  1  0.85769591  0.38002901  0.87073950  1
  O  O142  1  0.87758189  0.89878468  0.36855839  1
  O  O143  1  0.82253457  0.89627728  0.91273310  1
  O  O144  1  0.26723877  -0.00705739  0.38672325  1
  O  O145  1  0.23753688  0.01202903  0.85868559  1
  O  O146  1  0.26770874  0.52096431  0.37793224  1
  O  O147  1  0.25709407  0.51745246  0.85788102  1
  O  O148  1  0.75337030  0.01325254  0.36886444  1
  O  O149  1  0.73607325  0.02403356  0.86982442  1
  O  O150  1  0.76293067  0.51166681  0.37441185  1
  O  O151  1  0.73622340  0.50466583  0.85711452  1
  O  O152  1  0.29422056  0.50735599  0.16233228  1
  O  O153  1  0.22895588  0.54880347  0.67419019  1
  O  O154  1  0.24139112  1.01076021  0.12093234  1
  O  O155  1  0.25813582  0.98355174  0.64615726  1
  O  O156  1  0.73448331  0.49963564  0.11074665  1
  O  O157  1  0.73985076  0.50054814  0.62084372  1
  O  O158  1  0.73926428  1.02397564  0.13872178  1
  O  O159  1  0.74263149  1.01648905  0.63607829  1
  O  O160  1  0.04450158  0.37453231  0.27450323  1
  O  O161  1  -0.00802119  0.38205475  0.71651991  1
  O  O162  1  -0.00307728  0.87495305  0.26620807  1
  O  O163  1  -0.07479183  0.85754063  0.80246175  1
  O  O164  1  0.51895719  0.37969352  0.23975138  1
  O  O165  1  0.50488025  0.36832656  0.75233646  1
  O  O166  1  0.49253665  0.87918176  0.23624161  1
  O  O167  1  0.52091897  0.87984819  0.76529614  1
  O  O168  1  0.50281419  0.11776046  0.23602410  1
  O  O169  1  0.48512253  0.13687075  0.76405970  1
  O  O170  1  0.50871910  0.62627885  0.22548085  1
  O  O171  1  0.49178995  0.62195621  0.75323876  1
  O  O172  1  0.99429051  0.12262487  0.25185807  1
  O  O173  1  0.98210326  0.11848304  0.75554871  1
  O  O174  1  1.00476650  0.65271174  0.25976923  1
  O  O175  1  0.97099172  0.62477211  0.73899864  1
  O  O176  1  0.37867848  0.25842680  0.00701567  1
  O  O177  1  0.36594597  0.26357536  0.49545116  1
  O  O178  1  0.38594998  0.77037692  0.00533395  1
  O  O179  1  0.39207973  0.76389526  0.49997939  1
  O  O180  1  0.85798237  0.25049958  -0.00819237  1
  O  O181  1  0.85206421  0.22940704  0.50201888  1
  O  O182  1  0.88013401  0.71407752  0.01392416  1
  O  O183  1  0.85634857  0.74899521  0.51051344  1
  O  O184  1  0.12915267  0.22614221  0.50137720  1
  O  O185  1  0.13887795  0.27298242  0.97071187  1
  O  O186  1  0.10595901  0.75629943  0.49303537  1
  O  O187  1  0.11835286  0.71955999  0.99208085  1
  O  O188  1  0.61403092  0.25310937  0.49573922  1
  O  O189  1  0.62529962  0.24233982  0.99042095  1
  O  O190  1  0.63690193  0.73875010  0.48112738  1
  O  O191  1  0.63343246  0.73066185  0.98656610  1
  O  O192  1  0.48717586  0.22901205  0.11476065  1
  O  O193  1  0.49191428  0.23630111  0.64225939  1
  O  O194  1  0.52067333  0.73513225  0.11636140  1
  O  O195  1  0.53991684  0.74824825  0.63456146  1
  O  O196  1  1.11803503  0.13823280  0.13429581  1
  O  O197  1  0.90131161  0.27277637  0.55203279  1
  O  O198  1  1.01424239  0.76622911  0.14351489  1
  O  O199  1  0.96819424  0.74976405  0.62465532  1
  O  O200  1  -0.01370823  0.21909808  0.39913868  1
  O  O201  1  0.01033252  0.24457950  0.88264494  1
  O  O202  1  -0.00071254  0.77166486  0.36740860  1
  O  O203  1  0.00845839  0.71418952  0.87772265  1
  O  O204  1  0.45392813  0.29316000  0.38243671  1
  O  O205  1  0.50530369  0.25991186  0.86756222  1
  O  O206  1  0.52699529  0.74063480  0.35493764  1
  O  O207  1  0.52312465  0.76797048  0.88098031  1
  O  O208  1  0.23815629  0.11573614  0.52479939  1
  O  O209  1  0.25466548  0.12079125  0.97864458  1
  O  O210  1  0.23149836  0.64594298  0.51785528  1
  O  O211  1  0.24442504  0.60704089  0.99405978  1
  O  O212  1  0.72959204  0.12550287  0.48297827  1
  O  O213  1  0.74069466  0.13438044  0.98721406  1
  O  O214  1  0.74363350  0.62850477  0.48442137  1
  O  O215  1  0.73501634  0.60801179  0.97259778  1
  O  O216  1  0.26712406  0.38231797  0.00209040  1
  O  O217  1  0.26669972  0.45757092  0.54829083  1
  O  O218  1  0.27087242  0.88794906  -0.02427199  1
  O  O219  1  0.26883220  0.87597209  0.52403065  1
  O  O220  1  0.74866444  0.36382068  0.00452368  1
  O  O221  1  0.73849654  0.35286076  0.48833439  1
  O  O222  1  0.72347593  0.87791133  0.05327445  1
  O  O223  1  0.74156636  0.86053847  0.49623822  1
  O  O224  1  0.14121056  0.50073446  0.28213678  1
  O  O225  1  0.10874631  0.48351118  0.77399504  1
  O  O226  1  0.14621691  0.93520700  0.24243072  1
  O  O227  1  0.12728713  1.00349435  0.74885610  1
  O  O228  1  0.62627029  0.50436580  0.22639038  1
  O  O229  1  0.62458086  0.48557898  0.73969966  1
  O  O230  1  0.64090830  0.98824290  0.25876825  1
  O  O231  1  0.63172687  0.99380172  0.75263783  1
  O  O232  1  0.37812218  0.00957616  0.27027461  1
  O  O233  1  0.38120459  0.00635333  0.76152177  1
  O  O234  1  0.35576274  0.51079364  0.21913085  1
  O  O235  1  0.38226015  0.51278634  0.73333722  1
  O  O236  1  0.86207058  0.02337099  0.25144272  1
  O  O237  1  0.85269807  0.01285517  0.74916391  1
  O  O238  1  0.89474244  0.40527362  0.34777992  1
  O  O239  1  0.85046648  0.51145117  0.72622549  1
  O  O240  1  0.14724319  0.38439874  0.40357768  1
  O  O241  1  0.12618323  0.36126718  0.84993065  1
  O  O242  1  0.10688166  0.88087322  0.39081193  1
  O  O243  1  0.11850541  0.83664716  0.87822989  1
  O  O244  1  0.61528433  0.37293190  0.36553879  1
  O  O245  1  0.61401980  0.36645475  0.87173928  1
  O  O246  1  0.63030257  0.85938795  0.36657063  1
  O  O247  1  0.63245735  0.86629974  0.88599520  1
  O  O248  1  0.38412894  0.12607075  0.13349708  1
  O  O249  1  0.38957207  0.11769736  0.64362753  1
  O  O250  1  0.39714410  0.64374677  0.09934613  1
  O  O251  1  0.38055479  0.63346936  0.63015100  1
  O  O252  1  0.88822526  0.13189143  0.13501781  1
  O  O253  1  0.87806607  0.11841366  0.63600817  1
  O  O254  1  0.83822872  0.67984872  0.07288468  1
  O  O255  1  0.87431300  0.63235647  0.62651955  1
  O  O256  1  0.26752543  0.24280337  0.11837322  1
  O  O257  1  0.25431050  0.25880539  0.63269668  1
  O  O258  1  0.25888381  0.73775004  0.12021074  1
  O  O259  1  0.25764910  0.75955738  0.65287949  1
  O  O260  1  0.75003838  0.23965974  0.11077758  1
  O  O261  1  0.73467623  0.23417233  0.60203976  1
  O  O262  1  0.78051590  0.72651186  0.09931366  1
  O  O263  1  0.74397779  0.74277805  0.60501657  1
  O  O264  1  0.31360707  0.29947717  0.46062281  1
  O  O265  1  0.23936744  0.23267906  0.85313077  1
  O  O266  1  0.22623403  0.77789857  0.38457418  1
  O  O267  1  0.24771158  0.73230272  0.87952907  1
  O  O268  1  0.74910878  0.23022234  0.38660831  1
  O  O269  1  0.73589059  0.24535213  0.88108813  1
  O  O270  1  0.74838863  0.74588302  0.38076426  1
  O  O271  1  0.73998475  0.74005850  0.87264283  1
  O  O272  1  0.08975922  0.13244054  0.06780419  1
  O  O273  1  0.03159676  0.10740527  0.53378344  1
  O  O274  1  0.01738972  0.60889724  0.02008992  1
  O  O275  1  -0.00717960  0.63545219  0.51415634  1
  O  O276  1  0.50446607  0.11381957  -0.01282331  1
  O  O277  1  0.49864732  0.11961361  0.50269239  1
  O  O278  1  0.51865889  0.61673872  -0.00401825  1
  O  O279  1  0.52203090  0.62725179  0.48283591  1
  O  O280  1  0.47862035  0.41212081  0.50220155  1
  O  O281  1  0.49997086  0.37951863  0.98996896  1
  O  O282  1  0.49348620  0.88450597  0.50618437  1
  O  O283  1  0.49789991  0.88888167  0.99100485  1
  O  O284  1  1.03014483  0.40475601  0.50973995  1
  O  O285  1  1.00046682  0.39103325  0.98268720  1
  O  O286  1  0.98084894  0.87200623  0.48311220  1
  O  O287  1  0.97177507  0.84867779  0.96908529  1
  O  O288  1  0.49499591  0.51154661  0.36959232  1
  O  O289  1  0.50653479  0.48733615  0.88242651  1
  O  O290  1  0.49218768  1.00170378  0.38947087  1
  O  O291  1  0.51079256  0.98496610  0.88303489  1
  O  O292  1  0.99541724  0.51593488  0.39874902  1
  O  O293  1  0.98224393  0.53558040  0.89970856  1
  O  O294  1  0.98362898  1.00121908  0.38013553  1
  O  O295  1  0.97838836  0.99121407  0.88413646  1
  O  O296  1  0.02134291  0.00121356  0.05209362  1
  O  O297  1  0.00922593  -0.06969935  0.63898389  1
  O  O298  1  0.00692358  0.48312289  0.10788854  1
  O  O299  1  0.01287661  0.53336463  0.62348876  1
  O  O300  1  0.50186192  0.01655643  0.10407950  1
  O  O301  1  0.49698429  0.01224231  0.60506036  1
  O  O302  1  0.51158928  0.51246484  0.11038913  1
  O  O303  1  0.50068625  0.46040068  0.56856619  1
  O  O304  1  0.24737320  0.40897608  0.26565084  1
  O  O305  1  0.26939156  0.40201260  0.74774498  1
  O  O306  1  0.28943743  0.86020825  0.25472645  1
  O  O307  1  0.24924837  0.88518979  0.75330249  1
  O  O308  1  0.71772113  0.36447689  0.24211020  1
  O  O309  1  0.73234918  0.38505351  0.74007193  1
  O  O310  1  0.77775504  0.90035363  0.23832919  1
  O  O311  1  0.73952360  0.89535323  0.75241913  1
  O  O312  1  0.26430518  0.12183751  0.25671663  1
  O  O313  1  0.25944674  0.10889684  0.74605200  1
  O  O314  1  0.23772326  0.62519356  0.25839948  1
  O  O315  1  0.29471063  0.62986316  0.77471596  1
  O  O316  1  0.74171559  0.11836964  0.26524684  1
  O  O317  1  0.74039953  0.12123452  0.75814469  1
  O  O318  1  0.76569150  0.62575787  0.25885748  1
  O  O319  1  0.73547281  0.60699946  0.74721405  1
  O  O320  1  0.38822832  0.12963870  0.35913602  1
  O  O321  1  0.35761555  0.13241665  0.85982571  1
  O  O322  1  0.36414818  0.67722731  0.35041614  1
  O  O323  1  0.37162297  0.62934452  0.90658208  1
  O  O324  1  0.87267020  0.11187131  0.36694558  1
  O  O325  1  0.85460802  0.12877355  0.86280247  1
  O  O326  1  0.86610965  0.63360061  0.38274293  1
  O  O327  1  0.84789601  0.62682234  0.84860150  1
  O  O328  1  0.08845739  0.32899765  0.12252103  1
  O  O329  1  0.13992130  0.38400355  0.65066334  1
  O  O330  1  0.03269760  0.96384675  0.11301456  1
  O  O331  1  0.14673711  0.86234094  0.61892276  1
  O  O332  1  0.61909521  0.38475922  0.11936342  1
  O  O333  1  0.61526461  0.36510068  0.63262332  1
  O  O334  1  0.66708550  0.86836082  0.09859296  1
  O  O335  1  0.62686060  0.88367623  0.63439196  1
  O  O336  1  0.18041219  0.28145933  0.27980250  1
  O  O337  1  0.11036223  0.26384442  0.75334959  1
  O  O338  1  0.11755789  0.76151049  0.27022006  1
  O  O339  1  0.12693103  0.71067184  0.77154744  1
  O  O340  1  0.61016397  0.24921948  0.24912413  1
  O  O341  1  0.61562102  0.26078460  0.75715904  1
  O  O342  1  0.64298297  0.74663458  0.24990338  1
  O  O343  1  0.63877215  0.77353352  0.76200158  1
  O  O344  1  0.37305828  0.23728077  0.23282823  1
  O  O345  1  0.38582257  0.25796067  0.75529044  1
  O  O346  1  0.38901302  0.75385343  0.21098874  1
  O  O347  1  0.39182212  0.74625494  0.75331547  1
  O  O348  1  0.86730226  0.22955956  0.26435608  1
  O  O349  1  0.86219253  0.23371946  0.74294127  1
  O  O350  1  0.88762265  0.76486630  0.24352120  1
  O  O351  1  0.83948818  0.73018725  0.73000057  1
  O  O352  1  0.38878654  0.55129134  0.48266683  1
  O  O353  1  0.39188420  0.48192224  1.01162683  1
  O  O354  1  0.38406033  0.99291456  0.49432291  1
  O  O355  1  0.39151425  0.99132475  0.99758836  1
  O  O356  1  0.89974503  0.48613487  0.53988979  1
  O  O357  1  0.88104374  0.50477925  1.01272200  1
  O  O358  1  0.85963392  1.00927008  0.49017943  1
  O  O359  1  0.88002258  0.97696698  1.04750494  1
  O  O360  1  0.18690603  -0.02324842  0.08547407  1
  O  O361  1  0.14504461  0.01632124  0.51077595  1
  O  O362  1  0.12377058  0.49441071  -0.00586914  1
  O  O363  1  0.11395206  0.54183261  0.50030630  1
  O  O364  1  0.61920977  0.01270899  -0.00769685  1
  O  O365  1  0.61131094  -0.01071842  0.49234202  1
  O  O366  1  0.61701373  0.50190570  0.00139989  1
  O  O367  1  0.62179736  0.51216497  0.47556775  1
  O  O368  1  0.38488125  0.35741325  0.11562426  1
  O  O369  1  0.36418088  0.36609380  0.61146248  1
  O  O370  1  0.36290598  0.86942511  0.10464187  1
  O  O371  1  0.38148473  0.86680540  0.62076439  1
  O  O372  1  0.88505919  0.37007667  0.15062084  1
  O  O373  1  0.87116786  0.33317015  0.58401922  1
  O  O374  1  0.88043472  0.91697555  0.09227003  1
  O  O375  1  0.85618525  0.86043767  0.63684515  1
  O  O376  1  0.12535932  0.12136726  0.41158874  1
  O  O377  1  0.13241822  0.13574007  0.86737997  1
  O  O378  1  0.11986327  0.65433272  0.39215618  1
  O  O379  1  0.14075263  0.61806774  0.89046088  1
  O  O380  1  0.61650252  0.13226325  0.36969030  1
  O  O381  1  0.62362306  0.13856882  0.87889611  1
  O  O382  1  0.64652306  0.63477159  0.36944499  1
  O  O383  1  0.62989548  0.63358463  0.87172064  1
