# generated using pymatgen
data_VZnO4
_symmetry_space_group_name_H-M   'P 1'
_cell_length_a   17.12776558
_cell_length_b   17.01929709
_cell_length_c   16.95822990
_cell_angle_alpha   89.78567699
_cell_angle_beta   90.10713446
_cell_angle_gamma   89.78161142
_symmetry_Int_Tables_number   1
_chemical_formula_structural   VZnO4
_chemical_formula_sum   'V64 Zn64 O256'
_cell_volume   4943.28766580
_cell_formula_units_Z   64
loop_
 _symmetry_equiv_pos_site_id
 _symmetry_equiv_pos_as_xyz
  1  'x, y, z'
loop_
 _atom_site_type_symbol
 _atom_site_label
 _atom_site_symmetry_multiplicity
 _atom_site_fract_x
 _atom_site_fract_y
 _atom_site_fract_z
 _atom_site_occupancy
  V  V0  1  0.78809392  0.24253641  0.50539062  1
  V  V1  1  0.24878086  0.65396042  0.87890458  1
  V  V2  1  0.12512572  0.00821216  0.11891721  1
  V  V3  1  0.47889921  0.75435901  0.77919022  1
  V  V4  1  0.12544967  0.86995771  0.26073686  1
  V  V5  1  0.74680547  0.73966619  0.49553782  1
  V  V6  1  0.37604099  0.36779775  0.01452383  1
  V  V7  1  0.37359384  0.37556365  0.50655680  1
  V  V8  1  0.01650878  0.61513781  0.13756230  1
  V  V9  1  0.49951096  0.38366178  0.87135264  1
  V  V10  1  0.37929940  0.12738274  0.23848356  1
  V  V11  1  0.62997431  0.85700999  0.77035704  1
  V  V12  1  -0.03230542  0.51037870  0.47863853  1
  V  V13  1  0.85444698  0.26320601  0.12275361  1
  V  V14  1  0.23552607  0.75259806  0.50620628  1
  V  V15  1  0.23577660  0.62653371  0.37749642  1
  V  V16  1  0.49240259  -0.00874972  -0.00663016  1
  V  V17  1  0.50813609  0.00617398  0.50987214  1
  V  V18  1  0.87372057  0.11170330  0.74217899  1
  V  V19  1  0.13444871  0.65535396  0.01042558  1
  V  V20  1  0.49860625  0.33964737  0.38210308  1
  V  V21  1  0.38722988  0.09151294  0.75731503  1
  V  V22  1  0.73277055  0.74872839  -0.00089231  1
  V  V23  1  0.74839814  0.11459887  0.88940290  1
  V  V24  1  0.60782287  0.12817760  0.00244886  1
  V  V25  1  0.01088236  0.25242885  0.24620238  1
  V  V26  1  0.84958064  0.59525321  0.24736747  1
  V  V27  1  0.37961720  0.75114299  0.14620122  1
  V  V28  1  -0.03588894  0.37792515  0.36457823  1
  V  V29  1  0.50269364  0.24528020  0.73921135  1
  V  V30  1  0.62574137  0.74484998  0.37635049  1
  V  V31  1  0.74832628  0.37624445  0.61598280  1
  V  V32  1  0.24655256  0.13414460  0.37253607  1
  V  V33  1  -0.01762646  0.00990119  0.00203100  1
  V  V34  1  0.49458509  0.60981565  0.12546164  1
  V  V35  1  0.62092790  0.37912954  0.24501883  1
  V  V36  1  0.87551430  0.74091014  0.62607245  1
  V  V37  1  0.27461734  0.47826129  0.73599658  1
  V  V38  1  -0.00944619  0.85864389  0.88970139  1
  V  V39  1  0.24286511  0.24307139  0.50928233  1
  V  V40  1  0.74190558  0.88613288  0.61387496  1
  V  V41  1  0.11047188  0.85338383  0.75130782  1
  V  V42  1  0.75879052  0.53377709  0.74225543  1
  V  V43  1  -0.01444707  0.75754388  0.25050124  1
  V  V44  1  0.49774226  0.65838851  0.62583077  1
  V  V45  1  0.73367566  -0.00130939  0.75520607  1
  V  V46  1  0.36974129  0.00299696  0.37155425  1
  V  V47  1  0.24816371  0.87194366  0.13458300  1
  V  V48  1  0.50601105  0.23709594  0.22744691  1
  V  V49  1  0.37498832  0.86946487  0.51658876  1
  V  V50  1  0.00732985  0.00622829  0.48983441  1
  V  V51  1  0.36789852  0.87256172  -0.00576572  1
  V  V52  1  0.23185413  0.38713946  0.12898833  1
  V  V53  1  0.49661110  0.87660203  0.36512643  1
  V  V54  1  0.37429422  0.60292744  0.26576537  1
  V  V55  1  0.21885424  -0.00871839  0.71814828  1
  V  V56  1  0.10955236  0.52643630  0.62139596  1
  V  V57  1  0.76186315  0.87700024  0.11994921  1
  V  V58  1  0.61540179  0.00652657  0.13530982  1
  V  V59  1  0.62412282  0.24856921  0.87105094  1
  V  V60  1  0.63189403  0.87284977  0.24909579  1
  V  V61  1  0.87428168  0.12048185  0.25059207  1
  V  V62  1  0.53792510  0.53050740  0.50604925  1
  V  V63  1  0.74311039  0.11768193  0.37781575  1
  Zn  Zn64  1  0.21404915  0.21733340  0.19864493  1
  Zn  Zn65  1  0.36978664  0.23564097  0.62709441  1
  Zn  Zn66  1  0.19280508  0.68906370  0.19571450  1
  Zn  Zn67  1  0.18838382  0.68951356  0.68377090  1
  Zn  Zn68  1  0.68871244  0.18758064  0.19214766  1
  Zn  Zn69  1  0.73076688  0.22409266  0.71936199  1
  Zn  Zn70  1  0.69032636  0.67442114  0.15821915  1
  Zn  Zn71  1  0.67931059  0.69143481  0.67478788  1
  Zn  Zn72  1  0.32195828  0.31290407  0.31071844  1
  Zn  Zn73  1  0.32506602  0.31454055  0.80301186  1
  Zn  Zn74  1  0.30404544  0.81048652  0.32075919  1
  Zn  Zn75  1  0.30164180  0.82888710  0.80970369  1
  Zn  Zn76  1  0.80371990  0.29128771  0.30302481  1
  Zn  Zn77  1  0.86792527  0.32429233  0.73344977  1
  Zn  Zn78  1  0.80957992  0.82215776  0.31401367  1
  Zn  Zn79  1  0.81813390  0.77052199  0.82610156  1
  Zn  Zn80  1  0.23432295  0.46313303  0.47630991  1
  Zn  Zn81  1  0.38940350  0.51104277  0.87641058  1
  Zn  Zn82  1  0.19865302  0.93331690  0.43719646  1
  Zn  Zn83  1  0.16522665  0.90201517  0.95617046  1
  Zn  Zn84  1  0.70785475  0.38373161  0.40460523  1
  Zn  Zn85  1  0.68435572  0.40858241  0.80066585  1
  Zn  Zn86  1  0.68448976  0.94568821  0.43148810  1
  Zn  Zn87  1  0.68354945  0.93505295  0.94883962  1
  Zn  Zn88  1  0.31156811  0.04777198  0.07334739  1
  Zn  Zn89  1  0.31881332  0.06309572  0.56406180  1
  Zn  Zn90  1  0.30578887  0.54643108  0.05199699  1
  Zn  Zn91  1  0.31519432  0.58015552  0.57157860  1
  Zn  Zn92  1  0.80172814  0.06398992  0.07577242  1
  Zn  Zn93  1  0.80582894  0.05955483  0.56727746  1
  Zn  Zn94  1  0.83343149  0.62027273  0.06028417  1
  Zn  Zn95  1  0.75184959  0.52759651  0.50598949  1
  Zn  Zn96  1  0.44015294  0.43369734  0.19922021  1
  Zn  Zn97  1  0.44410685  0.43494467  0.68506346  1
  Zn  Zn98  1  0.43718536  0.94181716  0.18586630  1
  Zn  Zn99  1  0.45803725  0.92171365  0.68659485  1
  Zn  Zn100  1  0.93648792  0.43692139  0.18014310  1
  Zn  Zn101  1  0.89954443  0.47920824  0.62692573  1
  Zn  Zn102  1  0.94590579  0.94092680  0.18780254  1
  Zn  Zn103  1  0.89308793  0.89096210  0.73793377  1
  Zn  Zn104  1  0.06801732  0.06575567  0.29302481  1
  Zn  Zn105  1  0.03060957  0.01306422  0.79726515  1
  Zn  Zn106  1  0.02862843  0.60406833  0.34915012  1
  Zn  Zn107  1  0.12716173  0.54689428  0.82001030  1
  Zn  Zn108  1  0.56053953  0.06597174  0.32270251  1
  Zn  Zn109  1  0.55656126  0.05586690  0.80940105  1
  Zn  Zn110  1  0.55383463  0.55967856  0.31746110  1
  Zn  Zn111  1  0.56582129  0.56157742  0.77047587  1
  Zn  Zn112  1  0.42863109  0.18266768  0.44530827  1
  Zn  Zn113  1  0.43700408  0.18930478  0.93026638  1
  Zn  Zn114  1  0.43951783  0.69163953  0.43607435  1
  Zn  Zn115  1  0.42109914  0.68801553  0.95209671  1
  Zn  Zn116  1  0.94047646  0.19174184  0.41942017  1
  Zn  Zn117  1  0.92589219  0.17888010  0.95026991  1
  Zn  Zn118  1  0.91740090  0.70012799  0.42433507  1
  Zn  Zn119  1  0.95273307  0.71387323  0.97789775  1
  Zn  Zn120  1  0.09375912  0.27724968  0.09370904  1
  Zn  Zn121  1  0.09178186  0.35934286  0.51015918  1
  Zn  Zn122  1  0.05434850  0.81643963  0.07809915  1
  Zn  Zn123  1  0.06045932  0.81590808  0.56965218  1
  Zn  Zn124  1  0.56192892  0.32194671  0.05904727  1
  Zn  Zn125  1  0.54547236  0.35771716  0.58430687  1
  Zn  Zn126  1  0.55398082  0.81167211  0.06751866  1
  Zn  Zn127  1  0.56820946  0.82799382  0.55926081  1
  O  O128  1  0.12565123  0.10364877  0.13297576  1
  O  O129  1  0.10365429  0.18296078  0.65364245  1
  O  O130  1  0.12976801  0.62889825  0.11853478  1
  O  O131  1  0.11944762  0.62393894  0.61257761  1
  O  O132  1  0.62986448  0.11305484  0.11573110  1
  O  O133  1  0.62263945  0.13089934  0.60465366  1
  O  O134  1  0.58873301  0.63665097  0.14197565  1
  O  O135  1  0.59471365  0.62251868  0.63650797  1
  O  O136  1  0.39250200  0.36736914  0.38169148  1
  O  O137  1  0.39440296  0.37647406  0.87196034  1
  O  O138  1  0.38532225  0.88675215  0.36910481  1
  O  O139  1  0.36201984  0.87712895  0.89594257  1
  O  O140  1  0.86742553  0.37312350  0.36606488  1
  O  O141  1  0.90405392  0.37892710  0.83267374  1
  O  O142  1  0.87598077  0.87648674  0.38206086  1
  O  O143  1  0.89049363  0.85958417  0.85899228  1
  O  O144  1  0.26689474  0.00742903  0.37968584  1
  O  O145  1  0.20322854  0.12117275  0.95403661  1
  O  O146  1  0.25135185  0.52611795  0.38707456  1
  O  O147  1  0.22932183  0.49034813  0.82656272  1
  O  O148  1  0.75556951  0.01769765  0.38348529  1
  O  O149  1  0.73198399  0.00770511  0.87048215  1
  O  O150  1  0.73927070  0.49155689  0.39998052  1
  O  O151  1  0.75885482  0.49582754  0.83676950  1
  O  O152  1  0.25984431  0.48371105  0.13646260  1
  O  O153  1  0.23821026  0.52787614  0.64892284  1
  O  O154  1  0.23697703  0.98646225  0.12894301  1
  O  O155  1  0.24012729  1.00173332  0.62044862  1
  O  O156  1  0.74011276  0.47587743  0.04529823  1
  O  O157  1  0.75353023  0.48093860  0.61843236  1
  O  O158  1  0.72478438  0.98467222  0.11704959  1
  O  O159  1  0.74034825  0.99333849  0.63614794  1
  O  O160  1  -0.00658360  0.36927929  0.25984506  1
  O  O161  1  0.05931155  0.31497058  0.77505669  1
  O  O162  1  0.01186182  0.86283069  0.24291022  1
  O  O163  1  0.00700708  0.89407361  0.76694991  1
  O  O164  1  0.50000322  0.35101397  0.26089215  1
  O  O165  1  0.50648099  0.36073224  0.75817154  1
  O  O166  1  0.50575779  0.88288327  0.26200791  1
  O  O167  1  0.51921526  0.85361516  0.75386450  1
  O  O168  1  0.49323448  0.12964062  0.25110352  1
  O  O169  1  0.49937796  0.13785494  0.75027878  1
  O  O170  1  0.47731323  0.61861733  0.24825237  1
  O  O171  1  0.50018042  0.65358593  0.74658007  1
  O  O172  1  0.98836106  0.14455957  0.26514192  1
  O  O173  1  0.96854492  0.10436165  0.77223979  1
  O  O174  1  1.02354329  0.63975611  0.24026431  1
  O  O175  1  0.96024491  0.59124900  0.81100633  1
  O  O176  1  0.38506278  0.26942598  -0.01269669  1
  O  O177  1  0.36575071  0.24988523  0.50852428  1
  O  O178  1  0.37402700  0.77095680  0.01897921  1
  O  O179  1  0.38314378  0.76961180  0.49783268  1
  O  O180  1  0.87118029  0.23795174  0.02591930  1
  O  O181  1  0.88664112  0.24022396  0.50743392  1
  O  O182  1  0.85027964  0.72379007  0.00995673  1
  O  O183  1  0.85048599  0.75557766  0.49587206  1
  O  O184  1  0.14382296  0.26390687  0.49848401  1
  O  O185  1  0.08347066  0.31565196  0.95799312  1
  O  O186  1  0.13776807  0.76861721  0.50305216  1
  O  O187  1  0.13393709  0.75361182  1.00838425  1
  O  O188  1  0.61283579  0.17247573  0.54695162  1
  O  O189  1  0.61102777  0.23226267  0.99469953  1
  O  O190  1  0.63203334  0.76378679  0.48415106  1
  O  O191  1  0.63366365  0.76700279  1.00559197  1
  O  O192  1  0.50341335  0.24284261  0.12945827  1
  O  O193  1  0.51440433  0.25826758  0.63991881  1
  O  O194  1  0.47971612  0.75414848  0.13153712  1
  O  O195  1  0.49899650  0.75878144  0.62406733  1
  O  O196  1  0.99599685  0.25670736  0.14196931  1
  O  O197  1  1.03830833  0.21158575  0.64638103  1
  O  O198  1  1.00221757  0.73804393  0.13859728  1
  O  O199  1  0.97022141  0.76426320  0.60186533  1
  O  O200  1  -0.00443726  0.27364967  0.36563113  1
  O  O201  1  -0.04432419  0.26299056  0.87101973  1
  O  O202  1  -0.00032776  0.73855390  0.35212471  1
  O  O203  1  0.00393068  0.75796175  0.88748337  1
  O  O204  1  0.50105650  0.23985170  0.37603070  1
  O  O205  1  0.51078772  0.25578711  0.86484902  1
  O  O206  1  0.51192488  0.77214552  0.38151022  1
  O  O207  1  0.48658533  0.74530732  0.87750217  1
  O  O208  1  0.25598588  0.13322596  0.48558445  1
  O  O209  1  0.25588712  0.14033543  1.00017056  1
  O  O210  1  0.25501719  0.64041571  0.49197876  1
  O  O211  1  0.23853376  0.62644597  1.00289397  1
  O  O212  1  0.76465909  0.13227645  0.49107684  1
  O  O213  1  0.72709741  0.10961502  0.99331726  1
  O  O214  1  0.74170658  0.64289399  0.49857003  1
  O  O215  1  0.72585212  0.64986477  1.04449762  1
  O  O216  1  0.27122145  0.36350676  0.03272892  1
  O  O217  1  0.27006592  0.35212212  0.48550744  1
  O  O218  1  0.26152111  0.88354534  0.01686827  1
  O  O219  1  0.26708719  0.86449141  0.49515621  1
  O  O220  1  0.79945445  0.46194957  0.00356217  1
  O  O221  1  0.76138160  0.35274952  0.50669841  1
  O  O222  1  0.75266662  0.86673358  0.01234740  1
  O  O223  1  0.73830020  0.88342644  0.51187052  1
  O  O224  1  0.14514954  0.44854686  0.28724662  1
  O  O225  1  0.09417976  0.50564384  0.71976354  1
  O  O226  1  0.10902341  0.97967327  0.23095408  1
  O  O227  1  0.12801549  1.02436186  0.74343997  1
  O  O228  1  0.60324854  0.47695337  0.25922663  1
  O  O229  1  0.64900663  0.49839862  0.73507082  1
  O  O230  1  0.61585659  0.99856950  0.23949457  1
  O  O231  1  0.62831780  0.98655567  0.75339512  1
  O  O232  1  0.38422529  0.01261766  0.26310755  1
  O  O233  1  0.43070813  0.00147538  0.76208241  1
  O  O234  1  0.37118996  0.50359960  0.25990490  1
  O  O235  1  0.37507626  0.49874781  0.75222809  1
  O  O236  1  0.89218947  0.02201976  0.24665723  1
  O  O237  1  0.84408032  0.00123620  0.75714544  1
  O  O238  1  0.85886916  0.49565784  0.24234980  1
  O  O239  1  0.85828537  0.51521553  0.72362967  1
  O  O240  1  0.14957451  0.39982894  0.34067448  1
  O  O241  1  0.13801960  0.35380627  0.93020948  1
  O  O242  1  0.13481018  0.88228563  0.35898424  1
  O  O243  1  0.10754724  0.87389966  0.86614924  1
  O  O244  1  0.59656089  0.36722677  0.37519039  1
  O  O245  1  0.62069668  0.35494920  0.87767394  1
  O  O246  1  0.61309036  0.88404602  0.36240153  1
  O  O247  1  0.63010692  0.87275827  0.86859966  1
  O  O248  1  0.37164809  0.11695832  0.14019653  1
  O  O249  1  0.36829367  0.11853930  0.65343507  1
  O  O250  1  0.37275591  0.63986663  0.14639936  1
  O  O251  1  0.40545403  0.61590482  0.62630968  1
  O  O252  1  0.85698555  0.13575733  0.14452048  1
  O  O253  1  0.87529066  0.10674361  0.64210736  1
  O  O254  1  0.90075137  0.62199192  0.15247980  1
  O  O255  1  0.86955772  0.64477334  0.61692117  1
  O  O256  1  0.19654357  0.23909448  0.08995656  1
  O  O257  1  0.24988900  0.23906653  0.60828182  1
  O  O258  1  0.26258413  0.76526703  0.13193597  1
  O  O259  1  0.25349479  0.74082656  0.60684126  1
  O  O260  1  0.75454578  0.25929972  0.13508989  1
  O  O261  1  0.75446281  0.24227699  0.60508158  1
  O  O262  1  0.74134406  0.77670569  0.13035825  1
  O  O263  1  0.74801839  0.75866154  0.60645037  1
  O  O264  1  0.25808915  0.23661807  0.37764423  1
  O  O265  1  0.23871801  0.26152764  0.85970746  1
  O  O266  1  0.25532192  0.74161107  0.39295422  1
  O  O267  1  0.25377870  0.75198453  0.88462012  1
  O  O268  1  0.75416760  0.24481691  0.40069615  1
  O  O269  1  0.72551175  0.22463383  0.87708863  1
  O  O270  1  0.73399200  0.76092968  0.38212788  1
  O  O271  1  0.74370416  0.73992124  0.89849651  1
  O  O272  1  0.00306366  0.10809287  -0.00858609  1
  O  O273  1  0.00978707  0.11045902  0.47471356  1
  O  O274  1  0.02411294  0.63325304  0.02155158  1
  O  O275  1  -0.01034428  0.60972773  0.46334788  1
  O  O276  1  0.50457466  0.11323714  0.00066278  1
  O  O277  1  0.48306351  0.10425892  0.50312161  1
  O  O278  1  0.47645492  0.62510784  0.02559492  1
  O  O279  1  0.50662926  0.63401738  0.51220209  1
  O  O280  1  0.48520304  0.35443223  0.48835427  1
  O  O281  1  0.50308745  0.37657290  0.97729308  1
  O  O282  1  0.48940643  0.88527427  0.48895052  1
  O  O283  1  0.48347064  0.88489562  1.00966422  1
  O  O284  1  0.99405076  0.39363452  0.47248246  1
  O  O285  1  0.92345516  0.33186990  0.89284487  1
  O  O286  1  1.00413506  0.90387515  0.49996692  1
  O  O287  1  0.99527340  0.87054386  0.99553347  1
  O  O288  1  0.50579949  0.50720208  0.41275240  1
  O  O289  1  0.50752647  0.48613001  0.85130419  1
  O  O290  1  0.49013491  0.99234240  0.38185096  1
  O  O291  1  0.50587256  0.99561890  0.89614616  1
  O  O292  1  0.98725062  0.49038907  0.37019741  1
  O  O293  1  1.03926172  0.46090513  0.87869323  1
  O  O294  1  1.00684752  1.00285336  0.38412796  1
  O  O295  1  0.99473179  0.98036621  0.90007342  1
  O  O296  1  0.01384085  -0.01431156  0.10738148  1
  O  O297  1  0.02137754  0.02523094  0.59023073  1
  O  O298  1  0.01089159  0.51570344  0.13836764  1
  O  O299  1  0.00775419  0.50584787  0.58433620  1
  O  O300  1  0.51096171  -0.00050016  0.11876594  1
  O  O301  1  0.50481682  -0.01348389  0.60834099  1
  O  O302  1  0.49144477  0.51024520  0.13182952  1
  O  O303  1  0.50715967  0.47399897  0.59203672  1
  O  O304  1  0.26081674  0.33164020  0.21608934  1
  O  O305  1  0.27178117  0.37914771  0.72163326  1
  O  O306  1  0.24018755  0.87526958  0.24334477  1
  O  O307  1  0.22142238  0.88924694  0.75781139  1
  O  O308  1  0.71677882  0.36230094  0.27959324  1
  O  O309  1  0.74833806  0.34550433  0.72807158  1
  O  O310  1  0.73405461  0.88357783  0.24603804  1
  O  O311  1  0.73797844  0.88685715  0.75246904  1
  O  O312  1  0.27239274  0.13725271  0.25986757  1
  O  O313  1  0.28441819  0.04854293  0.76918498  1
  O  O314  1  0.26457859  0.63521642  0.26772850  1
  O  O315  1  0.23093732  0.63907261  0.77862102  1
  O  O316  1  0.76025307  0.13394700  0.26624805  1
  O  O317  1  0.74039065  0.10860783  0.76403730  1
  O  O318  1  0.75420381  0.62290284  0.23466343  1
  O  O319  1  0.74880025  0.63354999  0.74560612  1
  O  O320  1  0.37063657  0.11182990  0.37024246  1
  O  O321  1  0.38169547  0.13009714  0.85206409  1
  O  O322  1  0.37836396  0.62826488  0.36631470  1
  O  O323  1  0.34880101  0.62037466  0.89004475  1
  O  O324  1  0.86399815  0.13415396  0.36043177  1
  O  O325  1  0.84704617  0.11999810  0.88606721  1
  O  O326  1  0.88219044  0.62631849  0.33878586  1
  O  O327  1  0.91576676  0.59178259  0.86758636  1
  O  O328  1  0.13259434  0.38632411  0.11978656  1
  O  O329  1  0.11540604  0.34157663  0.73922276  1
  O  O330  1  0.14142912  0.87337212  0.12829656  1
  O  O331  1  0.10957108  0.87720976  0.65180029  1
  O  O332  1  0.61805166  0.37018627  0.14427817  1
  O  O333  1  0.64943148  0.36407493  0.61341130  1
  O  O334  1  0.61710175  0.88407854  0.14171571  1
  O  O335  1  0.63993860  0.86524839  0.64158738  1
  O  O336  1  0.10896700  0.24561188  0.25033327  1
  O  O337  1  0.20279130  0.20723347  0.80960202  1
  O  O338  1  0.12461495  0.76695885  0.24780723  1
  O  O339  1  0.11381218  0.75454030  0.74778567  1
  O  O340  1  0.60677279  0.24747431  0.24856635  1
  O  O341  1  0.61884622  0.23593773  0.76579736  1
  O  O342  1  0.62577571  0.77101694  0.26421584  1
  O  O343  1  0.63503238  0.75680767  0.76146871  1
  O  O344  1  0.39378535  0.23332030  0.25302765  1
  O  O345  1  0.39564481  0.24912258  0.74204288  1
  O  O346  1  0.37483844  0.76031376  0.24627862  1
  O  O347  1  0.38325515  0.77076313  0.75815798  1
  O  O348  1  0.88306857  0.24436278  0.23814031  1
  O  O349  1  0.84888187  0.21378322  0.75317390  1
  O  O350  1  0.88615714  0.76464456  0.24812310  1
  O  O351  1  0.87199113  0.75923409  0.73078500  1
  O  O352  1  0.35166989  0.47640208  0.51187748  1
  O  O353  1  0.36686747  0.47644174  0.98541650  1
  O  O354  1  0.37866647  0.98744069  0.48824956  1
  O  O355  1  0.38537155  0.99222236  1.00861305  1
  O  O356  1  0.87205231  0.50697877  0.50263118  1
  O  O357  1  0.85939646  0.51491547  1.00786808  1
  O  O358  1  0.90566205  1.00901729  0.49927388  1
  O  O359  1  0.88417424  1.00890527  1.01720327  1
  O  O360  1  0.12438208  -0.00740217  0.01282451  1
  O  O361  1  0.11167948  -0.00202346  0.48344347  1
  O  O362  1  0.01491749  0.47058793  -0.05324357  1
  O  O363  1  0.14457805  0.45626429  0.54402813  1
  O  O364  1  0.60791080  0.00263442  0.01160358  1
  O  O365  1  0.60594663  0.00134432  0.49026631  1
  O  O366  1  0.63761273  0.57001561  -0.04952841  1
  O  O367  1  0.63474147  0.51769735  0.50238081  1
  O  O368  1  0.40560500  0.37125203  0.11010370  1
  O  O369  1  0.38827707  0.36113321  0.60874229  1
  O  O370  1  0.36267933  0.87429346  0.13073097  1
  O  O371  1  0.37704893  0.88006809  0.61475775  1
  O  O372  1  0.87573024  0.36231294  0.12356245  1
  O  O373  1  0.86509005  0.36983360  0.63085359  1
  O  O374  1  0.85685301  0.88936553  0.13770294  1
  O  O375  1  0.84379128  0.87191613  0.63257176  1
  O  O376  1  0.15144943  0.11549319  0.35518028  1
  O  O377  1  0.13293580  0.19101382  0.82666597  1
  O  O378  1  0.13843773  0.62977447  0.36933091  1
  O  O379  1  0.13736728  0.62410864  0.90219220  1
  O  O380  1  0.64305601  0.12493947  0.37061069  1
  O  O381  1  0.61782871  0.12501109  0.89103747  1
  O  O382  1  0.61256103  0.64862858  0.36580032  1
  O  O383  1  0.61457775  0.61548736  0.89923227  1
