# generated using pymatgen
data_VZnO4
_symmetry_space_group_name_H-M   'P 1'
_cell_length_a   16.96840278
_cell_length_b   16.99086646
_cell_length_c   16.97293728
_cell_angle_alpha   89.57853855
_cell_angle_beta   90.03858979
_cell_angle_gamma   90.37374288
_symmetry_Int_Tables_number   1
_chemical_formula_structural   VZnO4
_chemical_formula_sum   'V64 Zn64 O256'
_cell_volume   4893.19386942
_cell_formula_units_Z   64
loop_
 _symmetry_equiv_pos_site_id
 _symmetry_equiv_pos_as_xyz
  1  'x, y, z'
loop_
 _atom_site_type_symbol
 _atom_site_label
 _atom_site_symmetry_multiplicity
 _atom_site_fract_x
 _atom_site_fract_y
 _atom_site_fract_z
 _atom_site_occupancy
  V  V0  1  0.74222230  0.76591661  0.49276979  1
  V  V1  1  -0.00381935  0.87368860  0.89054345  1
  V  V2  1  0.10915172  0.62519780  0.02162458  1
  V  V3  1  0.37867409  0.49348766  0.35738620  1
  V  V4  1  0.01729101  -0.00387962  0.51040778  1
  V  V5  1  0.47846624  0.85149161  0.82696561  1
  V  V6  1  0.75676293  0.50781693  0.74230608  1
  V  V7  1  0.78497824  0.25546618  0.49572625  1
  V  V8  1  0.51171907  0.22563889  0.25845535  1
  V  V9  1  0.00161015  0.61991357  0.60238077  1
  V  V10  1  0.72449071  0.12295249  0.82978774  1
  V  V11  1  0.87165576  0.50263489  0.89173717  1
  V  V12  1  0.48356090  0.37760136  0.90611829  1
  V  V13  1  0.74471170  0.86069589  0.10509688  1
  V  V14  1  0.61132180  0.14081927  0.50892478  1
  V  V15  1  0.74477065  0.63725878  0.88486786  1
  V  V16  1  0.38473240  0.24316893  0.63596001  1
  V  V17  1  0.13067379  0.21511988  0.37159665  1
  V  V18  1  0.75097951  0.12500530  0.38157512  1
  V  V19  1  0.48863705  0.62540738  0.15236000  1
  V  V20  1  0.87021349  0.78169061  0.62638719  1
  V  V21  1  0.00536296  0.13715752  0.62073302  1
  V  V22  1  0.63694972  -0.00576284  0.62681837  1
  V  V23  1  0.59748936  0.76967421  0.37499165  1
  V  V24  1  0.10100670  0.02176351  0.12534372  1
  V  V25  1  0.87226529  -0.00641769  0.38775645  1
  V  V26  1  0.63011356  0.50056275  0.61464694  1
  V  V27  1  0.88132070  0.63020433  0.74275576  1
  V  V28  1  0.78101221  0.37750186  0.61715487  1
  V  V29  1  0.12228186  0.86460395  0.23556336  1
  V  V30  1  0.86857217  0.62756794  0.25686543  1
  V  V31  1  0.11883191  0.50214224  0.15098513  1
  V  V32  1  0.74389200  0.24026757  0.01967139  1
  V  V33  1  0.23624839  0.89094584  0.61739647  1
  V  V34  1  0.49176677  -0.03316104  -0.00705393  1
  V  V35  1  0.49162758  0.61747747  0.64999977  1
  V  V36  1  0.14282057  0.75182108  0.38240299  1
  V  V37  1  0.12756316  0.74777145  0.87827207  1
  V  V38  1  0.51856692  0.36928736  0.36546837  1
  V  V39  1  0.01572848  0.23895672  0.77579675  1
  V  V40  1  0.50550680  0.50900464  0.49611452  1
  V  V41  1  0.24953191  0.23365881  0.51081892  1
  V  V42  1  0.37285503  0.25452837  0.12504267  1
  V  V43  1  0.24327343  -0.00481451  0.76001562  1
  V  V44  1  0.24956764  0.60528342  0.37258791  1
  V  V45  1  0.38018506  0.37683110  0.51028762  1
  V  V46  1  0.61710259  0.49259724  0.12759011  1
  V  V47  1  0.61876154  0.74734473  0.87528490  1
  V  V48  1  0.21678517  0.14321761  0.87629775  1
  V  V49  1  0.73946024  -0.00617251  0.24261392  1
  V  V50  1  0.00839767  0.76040179  0.74761446  1
  V  V51  1  0.63726212  0.36375068  0.74952982  1
  V  V52  1  0.36297979  0.84738982  0.50205510  1
  V  V53  1  0.25968276  0.75326081  0.01371623  1
  V  V54  1  0.51869518  0.12443234  0.09129438  1
  V  V55  1  0.88293285  0.01792241  0.87986074  1
  V  V56  1  -0.00112444  0.87200390  0.37094548  1
  V  V57  1  0.88812084  0.12800165  0.24305435  1
  V  V58  1  0.24334209  0.59083828  0.88401230  1
  V  V59  1  0.37683443  0.01343877  0.37858032  1
  V  V60  1  0.49049947  -0.01962434  0.51574428  1
  V  V61  1  0.23325569  0.39919456  0.62837273  1
  V  V62  1  0.64563517  0.86080724  0.73572904  1
  V  V63  1  0.76565744  0.37964753  0.13058558  1
  Zn  Zn64  1  0.17806916  0.19565898  0.18381893  1
  Zn  Zn65  1  0.18195574  0.18675975  0.69146853  1
  Zn  Zn66  1  0.19072885  0.69597735  0.20238535  1
  Zn  Zn67  1  0.16630774  0.63833725  0.70506487  1
  Zn  Zn68  1  0.68839790  0.18308306  0.19251075  1
  Zn  Zn69  1  0.69953643  0.19146654  0.66484149  1
  Zn  Zn70  1  0.67940953  0.69638771  0.18862689  1
  Zn  Zn71  1  0.69278053  0.68600784  0.66023000  1
  Zn  Zn72  1  0.33375543  0.27729700  0.31993071  1
  Zn  Zn73  1  0.28567910  0.31417515  0.80858034  1
  Zn  Zn74  1  0.29303681  0.86980129  0.32845041  1
  Zn  Zn75  1  0.27047411  0.84897406  0.83923293  1
  Zn  Zn76  1  0.79744601  0.29488930  0.29712096  1
  Zn  Zn77  1  0.79178814  0.32343247  0.84640803  1
  Zn  Zn78  1  0.80704085  0.81766335  0.30899360  1
  Zn  Zn79  1  0.81853711  0.81688101  0.81649693  1
  Zn  Zn80  1  0.23645756  0.38644950  0.40552345  1
  Zn  Zn81  1  0.21122785  0.45277198  1.01556343  1
  Zn  Zn82  1  0.19009449  0.94163058  0.43671375  1
  Zn  Zn83  1  0.26590752  0.97723439  0.97802966  1
  Zn  Zn84  1  0.68958478  0.42789525  0.44084029  1
  Zn  Zn85  1  0.66065201  0.42804276  0.94973196  1
  Zn  Zn86  1  0.68099575  0.93465387  0.44235322  1
  Zn  Zn87  1  0.69649847  0.96750880  0.95574612  1
  Zn  Zn88  1  0.37160288  0.11868026  0.00626692  1
  Zn  Zn89  1  0.31650995  0.05671171  0.58715105  1
  Zn  Zn90  1  0.29077663  0.59090454  0.09491860  1
  Zn  Zn91  1  0.31422957  0.56716132  0.55284920  1
  Zn  Zn92  1  0.82153408  0.05543969  0.06371437  1
  Zn  Zn93  1  0.82035554  0.06715286  0.56710687  1
  Zn  Zn94  1  0.78194299  0.55943984  0.06255290  1
  Zn  Zn95  1  0.80567582  0.58547519  0.56386138  1
  Zn  Zn96  1  0.44508379  0.43061585  0.17595103  1
  Zn  Zn97  1  0.42809315  0.37534526  0.72349994  1
  Zn  Zn98  1  0.41928369  1.00724270  0.17259993  1
  Zn  Zn99  1  0.41676642  0.94025011  0.67564204  1
  Zn  Zn100  1  0.93046007  0.45410128  0.18352075  1
  Zn  Zn101  1  0.96384793  0.44876710  0.69681834  1
  Zn  Zn102  1  0.92843969  0.94329391  0.18507843  1
  Zn  Zn103  1  0.91238584  0.98166590  0.68424860  1
  Zn  Zn104  1  0.06388540  0.04699513  0.30794895  1
  Zn  Zn105  1  0.06074568  0.05495773  0.80827114  1
  Zn  Zn106  1  0.06297687  0.57291514  0.32402800  1
  Zn  Zn107  1  0.07421409  0.54545556  0.82834901  1
  Zn  Zn108  1  0.56531819  0.04552022  0.33519573  1
  Zn  Zn109  1  0.57080187  0.01698782  0.83263637  1
  Zn  Zn110  1  0.56938396  0.58051318  0.30857645  1
  Zn  Zn111  1  0.56954233  0.54385360  0.81788965  1
  Zn  Zn112  1  0.43462187  0.19120049  0.44336743  1
  Zn  Zn113  1  0.57638721  0.20297373  0.91263828  1
  Zn  Zn114  1  0.43040684  0.68385884  0.42104360  1
  Zn  Zn115  1  0.40343042  0.70775902  0.89076004  1
  Zn  Zn116  1  0.94928296  0.17570575  0.42983723  1
  Zn  Zn117  1  0.91680954  0.21046766  0.93397908  1
  Zn  Zn118  1  0.92165357  0.70643625  0.44384944  1
  Zn  Zn119  1  0.95578557  0.65589740  0.92020320  1
  Zn  Zn120  1  0.05827370  0.32867000  0.07993149  1
  Zn  Zn121  1  0.06763856  0.30949273  0.55095894  1
  Zn  Zn122  1  0.12798673  0.86774655  0.02806903  1
  Zn  Zn123  1  0.05676914  0.81261234  0.55851083  1
  Zn  Zn124  1  0.56721731  0.30593898  0.07048386  1
  Zn  Zn125  1  0.56436389  0.32206672  0.56730982  1
  Zn  Zn126  1  0.56891566  0.80905783  0.07871183  1
  Zn  Zn127  1  0.55842933  0.79986132  0.56874429  1
  O  O128  1  0.11674836  0.12154258  0.12822564  1
  O  O129  1  0.10607846  0.12575469  0.62731531  1
  O  O130  1  0.13299959  0.62682421  0.12599156  1
  O  O131  1  0.10170890  0.62971574  0.61742845  1
  O  O132  1  0.61284372  0.12765741  0.12494754  1
  O  O133  1  0.63075187  0.11074075  0.61072546  1
  O  O134  1  0.61514285  0.60835087  0.15801467  1
  O  O135  1  0.61379252  0.60184450  0.63466318  1
  O  O136  1  0.36926885  0.38019041  0.38866490  1
  O  O137  1  0.36915779  0.37343156  0.88518135  1
  O  O138  1  0.37825064  0.88168145  0.40324293  1
  O  O139  1  0.38135951  0.81939459  0.84337631  1
  O  O140  1  0.91321588  0.37833640  0.33842294  1
  O  O141  1  0.86826906  0.40474050  0.86994696  1
  O  O142  1  0.88321549  0.88912820  0.36604763  1
  O  O143  1  0.89632671  0.85455991  0.88882320  1
  O  O144  1  0.27424644  -0.01438428  0.37317663  1
  O  O145  1  0.26225684  -0.03438372  0.85774139  1
  O  O146  1  0.26144171  0.49810903  0.37478584  1
  O  O147  1  0.25020356  0.49616163  0.91813824  1
  O  O148  1  0.75901129  0.00585373  0.38174366  1
  O  O149  1  0.75598719  0.03641525  0.88213809  1
  O  O150  1  0.76940821  0.51616569  0.41609975  1
  O  O151  1  0.75834898  0.52523906  0.86002931  1
  O  O152  1  0.23068138  0.49902065  0.11696074  1
  O  O153  1  0.24313293  0.49849980  0.61142280  1
  O  O154  1  0.27169782  1.04122188  0.20133648  1
  O  O155  1  0.22123136  0.98947819  0.60624192  1
  O  O156  1  0.73924016  0.48497784  0.13537161  1
  O  O157  1  0.75184825  0.49591243  0.61911747  1
  O  O158  1  0.74631255  1.00624561  0.14170753  1
  O  O159  1  0.73494392  0.99825327  0.61441137  1
  O  O160  1  -0.03416813  0.39377312  0.28864080  1
  O  O161  1  -0.03860561  0.33361404  0.74731050  1
  O  O162  1  0.00488096  0.88922378  0.26420571  1
  O  O163  1  0.00836240  0.85768947  0.76094109  1
  O  O164  1  0.50002909  0.37322794  0.26680482  1
  O  O165  1  0.53890633  0.38643775  0.74463606  1
  O  O166  1  0.46532542  0.85435572  0.18597503  1
  O  O167  1  0.48587022  0.86432539  0.72801180  1
  O  O168  1  0.51137028  0.12708873  0.27196259  1
  O  O169  1  0.46768871  0.11005263  0.77488553  1
  O  O170  1  0.48343301  0.63296238  0.25217690  1
  O  O171  1  0.49781944  0.60010246  0.74997137  1
  O  O172  1  0.98640743  0.11265177  0.25707138  1
  O  O173  1  1.00519297  0.13728033  0.74185293  1
  O  O174  1  0.97569850  0.62639718  0.25823301  1
  O  O175  1  0.98494224  0.63206834  0.74461058  1
  O  O176  1  0.37726649  0.23102858  0.02570348  1
  O  O177  1  0.36778745  0.25816523  0.51184088  1
  O  O178  1  0.35586310  0.74083639  -0.00955644  1
  O  O179  1  0.37184970  0.74943155  0.49694319  1
  O  O180  1  0.83351249  0.27190426  -0.02596476  1
  O  O181  1  0.88218475  0.25644009  0.48574140  1
  O  O182  1  0.88198578  0.74781379  0.01824844  1
  O  O183  1  0.86176036  0.76209733  0.52105078  1
  O  O184  1  0.14570445  0.24691344  0.49035282  1
  O  O185  1  0.15619307  0.28338610  1.01917973  1
  O  O186  1  0.11441905  0.75619803  0.47737689  1
  O  O187  1  0.13604089  0.74416528  0.99038054  1
  O  O188  1  0.62811833  0.24042727  0.51406060  1
  O  O189  1  0.63982355  0.25502797  0.99256256  1
  O  O190  1  0.62874729  0.76276092  0.48434858  1
  O  O191  1  0.61963454  0.76188537  0.97042456  1
  O  O192  1  0.49968183  0.23240568  0.13644392  1
  O  O193  1  0.48303102  0.26549791  0.62446874  1
  O  O194  1  0.52625933  0.70957869  0.10600693  1
  O  O195  1  0.50878215  0.71448387  0.62493796  1
  O  O196  1  0.98328315  0.24028297  0.08940841  1
  O  O197  1  0.99520784  0.23665293  0.60638447  1
  O  O198  1  0.91877493  0.77847537  0.07171240  1
  O  O199  1  0.99217988  0.75025091  0.63588212  1
  O  O200  1  0.03302626  0.23787459  0.38764676  1
  O  O201  1  0.01103025  0.24099529  0.87565331  1
  O  O202  1  -0.01049185  0.77160729  0.37685758  1
  O  O203  1  0.00579807  0.74748152  0.86579360  1
  O  O204  1  0.49558185  0.26023553  0.36826865  1
  O  O205  1  0.51454952  0.28943779  0.87115989  1
  O  O206  1  0.49766706  0.76135523  0.37516495  1
  O  O207  1  0.50996030  0.74461142  0.85842650  1
  O  O208  1  0.26071389  0.13668508  0.51144266  1
  O  O209  1  0.27040050  0.09652355  0.95391289  1
  O  O210  1  0.26653620  0.63050922  0.47003998  1
  O  O211  1  0.23604633  0.63670425  0.99426037  1
  O  O212  1  0.76111026  0.14485094  0.50224640  1
  O  O213  1  0.75100414  0.14025716  1.01885956  1
  O  O214  1  0.73336971  0.66879284  0.54486106  1
  O  O215  1  0.75055649  0.63700848  0.98300298  1
  O  O216  1  0.21349189  0.33175181  0.00544209  1
  O  O217  1  0.26370416  0.36992756  0.51486112  1
  O  O218  1  0.24352292  0.85698081  -0.01038496  1
  O  O219  1  0.25565085  0.87136133  0.50501242  1
  O  O220  1  0.73050351  0.37130652  0.02740409  1
  O  O221  1  0.76050905  0.36440637  0.50371935  1
  O  O222  1  0.74557598  0.88170907  0.00357030  1
  O  O223  1  0.74405619  0.86584034  0.50930541  1
  O  O224  1  0.12905593  0.51983723  0.24999657  1
  O  O225  1  0.05553430  0.46301800  0.75931310  1
  O  O226  1  0.11993329  0.98621105  0.22565692  1
  O  O227  1  0.14295809  1.00189773  0.74940710  1
  O  O228  1  0.62926930  0.51477139  0.24015093  1
  O  O229  1  0.64859233  0.49237649  0.73917105  1
  O  O230  1  0.64255334  1.01126100  0.26453336  1
  O  O231  1  0.61725168  0.98240995  0.73242771  1
  O  O232  1  0.40479488  -0.00680812  0.28314392  1
  O  O233  1  0.33663940  0.01476385  0.70593437  1
  O  O234  1  0.37870631  0.48173847  0.26057665  1
  O  O235  1  0.40799226  0.42880588  0.83164725  1
  O  O236  1  0.85928530  0.01074691  0.26431239  1
  O  O237  1  0.86464492  -0.02189846  0.78614288  1
  O  O238  1  0.87180914  0.52250228  0.26508085  1
  O  O239  1  0.87234284  0.51901671  0.75035542  1
  O  O240  1  0.19749040  0.38809662  0.28459867  1
  O  O241  1  0.05739453  0.39003704  0.91630043  1
  O  O242  1  0.11393463  0.87200786  0.36584696  1
  O  O243  1  0.11447796  0.84917731  0.87277888  1
  O  O244  1  0.61761409  0.37473016  0.37345687  1
  O  O245  1  0.67856045  0.36692026  0.84794523  1
  O  O246  1  0.61924898  0.87033191  0.37331349  1
  O  O247  1  0.60245408  0.85569694  0.83967152  1
  O  O248  1  0.41194988  0.11251949  0.12473180  1
  O  O249  1  0.37871876  0.14517014  0.62986973  1
  O  O250  1  0.39278999  0.62130005  0.11817928  1
  O  O251  1  0.39507875  0.60250895  0.62415077  1
  O  O252  1  0.87259010  0.11845664  0.14430334  1
  O  O253  1  0.90269238  0.08995384  0.64045399  1
  O  O254  1  0.86570367  0.62028745  0.15313035  1
  O  O255  1  0.88200225  0.64225040  0.63344170  1
  O  O256  1  0.27579263  0.23173551  0.14724460  1
  O  O257  1  0.25568529  0.25347244  0.61870268  1
  O  O258  1  0.25299454  0.74292431  0.11336075  1
  O  O259  1  0.26758321  0.70367786  0.65825941  1
  O  O260  1  0.74865558  0.25827892  0.12413741  1
  O  O261  1  0.77119829  0.26643797  0.60904255  1
  O  O262  1  0.74151815  0.75835309  0.11780995  1
  O  O263  1  0.77277957  0.77395898  0.64695520  1
  O  O264  1  0.24734868  0.26341164  0.39237477  1
  O  O265  1  0.23278420  0.24295590  0.87634572  1
  O  O266  1  0.24021224  0.77135927  0.37781872  1
  O  O267  1  0.23065381  0.74200346  0.86589710  1
  O  O268  1  0.75473268  0.24221624  0.39101715  1
  O  O269  1  0.75712024  0.21434164  0.85764768  1
  O  O270  1  0.76312870  0.75580937  0.39491223  1
  O  O271  1  0.73592568  0.74307400  0.86157452  1
  O  O272  1  -0.01192976  0.18715948  0.03505984  1
  O  O273  1  -0.00746479  0.10550072  0.51260039  1
  O  O274  1  0.01153421  0.64814892  0.01816072  1
  O  O275  1  -0.01261901  0.63937290  0.50466455  1
  O  O276  1  0.51052806  0.14051076  -0.00894424  1
  O  O277  1  0.51184270  0.12982912  0.50325882  1
  O  O278  1  0.47680874  0.59220869  -0.04589374  1
  O  O279  1  0.49966259  0.60633627  0.48240323  1
  O  O280  1  0.49471791  0.37743701  0.48727143  1
  O  O281  1  0.49087302  0.36800708  1.00543667  1
  O  O282  1  0.47869131  0.87591835  0.52274929  1
  O  O283  1  0.49155252  0.86989833  1.01162650  1
  O  O284  1  1.00988280  0.38909099  0.47725718  1
  O  O285  1  1.01138317  0.37956255  0.97304370  1
  O  O286  1  1.00346077  0.88728018  0.48380780  1
  O  O287  1  1.01829124  0.87284072  0.98705116  1
  O  O288  1  0.49394961  0.48495136  0.37848104  1
  O  O289  1  0.55650933  0.45669231  0.89198535  1
  O  O290  1  0.49244426  1.00122311  0.40848150  1
  O  O291  1  0.47668905  0.94837965  0.86445167  1
  O  O292  1  1.01833268  0.50280135  0.40953703  1
  O  O293  1  0.96919943  0.54000485  0.88625150  1
  O  O294  1  0.98642886  0.99706673  0.38470112  1
  O  O295  1  0.99400598  0.98073791  0.87016817  1
  O  O296  1  0.00360425  -0.00177295  0.11352717  1
  O  O297  1  0.01215501  -0.01557759  0.61028420  1
  O  O298  1  0.01411825  0.51210009  0.14158874  1
  O  O299  1  -0.01870246  0.52183741  0.60943129  1
  O  O300  1  0.51219479  0.00940834  0.09065036  1
  O  O301  1  0.50208783  0.00278296  0.61697762  1
  O  O302  1  0.50662293  0.51502245  0.12917942  1
  O  O303  1  0.51069397  0.50395886  0.60417261  1
  O  O304  1  0.25338786  0.36724854  0.24112029  1
  O  O305  1  0.25049806  0.38591061  0.72816728  1
  O  O306  1  0.22448004  0.87272693  0.24093461  1
  O  O307  1  0.24999530  0.88818133  0.72768068  1
  O  O308  1  0.74588352  0.36631370  0.23284347  1
  O  O309  1  0.75992225  0.38719278  0.72465300  1
  O  O310  1  0.74572414  0.89216812  0.25348419  1
  O  O311  1  0.73970379  0.87843841  0.75978418  1
  O  O312  1  0.25693927  0.09559805  0.24691999  1
  O  O313  1  0.24153158  0.11661446  0.77573009  1
  O  O314  1  0.26180067  0.64497975  0.27824362  1
  O  O315  1  0.20089138  0.57489419  0.78862636  1
  O  O316  1  0.75378495  0.12324380  0.27003382  1
  O  O317  1  0.74756587  0.11392446  0.73310889  1
  O  O318  1  0.76573066  0.62666322  0.26190774  1
  O  O319  1  0.76270048  0.61896288  0.73375936  1
  O  O320  1  0.37415143  0.11399439  0.38514370  1
  O  O321  1  0.41050058  0.12759932  0.81554030  1
  O  O322  1  0.37380921  0.59701855  0.37074765  1
  O  O323  1  0.33756532  0.62025834  0.86357029  1
  O  O324  1  0.86723946  0.11145566  0.37629728  1
  O  O325  1  0.90062144  0.11570355  0.87286372  1
  O  O326  1  0.87636873  0.63652288  0.36060135  1
  O  O327  1  0.85629365  0.63891927  0.85667677  1
  O  O328  1  0.11349143  0.39738358  0.14213192  1
  O  O329  1  0.13587245  0.37705274  0.61214790  1
  O  O330  1  0.10253469  0.84700147  0.14043863  1
  O  O331  1  0.14865895  0.84212667  0.61808169  1
  O  O332  1  0.60527314  0.39182332  0.13499043  1
  O  O333  1  0.64193408  0.38779662  0.62511782  1
  O  O334  1  0.64355331  0.87870347  0.12539301  1
  O  O335  1  0.62357147  0.88112858  0.62878736  1
  O  O336  1  0.14037417  0.24699207  0.27448675  1
  O  O337  1  0.11140132  0.25841383  0.74863487  1
  O  O338  1  0.11696604  0.75818844  0.26938508  1
  O  O339  1  0.11012333  0.72908336  0.76222148  1
  O  O340  1  0.60977558  0.24761566  0.24894293  1
  O  O341  1  0.64127025  0.26682823  0.72681851  1
  O  O342  1  0.63681760  0.74825306  0.27796134  1
  O  O343  1  0.63415455  0.75854107  0.73224800  1
  O  O344  1  0.40054505  0.24232559  0.24134650  1
  O  O345  1  0.37089671  0.27079709  0.73701454  1
  O  O346  1  0.39684769  0.84360998  0.15401295  1
  O  O347  1  0.32460126  0.72191678  0.70099727  1
  O  O348  1  0.87849577  0.22789929  0.26250166  1
  O  O349  1  0.90381477  0.27472977  0.75311371  1
  O  O350  1  0.86911562  0.73195157  0.24863034  1
  O  O351  1  0.88844628  0.74785154  0.74553702  1
  O  O352  1  0.39136633  0.48975915  0.49326907  1
  O  O353  1  0.43580559  0.53699503  0.97799129  1
  O  O354  1  0.38560474  1.00317108  0.50674477  1
  O  O355  1  0.39187175  1.00129204  0.98763882  1
  O  O356  1  0.82924405  0.52136596  0.46312737  1
  O  O357  1  0.85493697  0.51214374  0.98953876  1
  O  O358  1  0.87583042  0.99556106  0.48929315  1
  O  O359  1  0.86828266  0.99715113  0.98003580  1
  O  O360  1  0.16326346  -0.01894912  0.05140516  1
  O  O361  1  0.11382758  0.00368152  0.48806773  1
  O  O362  1  0.11076867  0.52155800  0.01831766  1
  O  O363  1  0.05572038  0.43517438  0.43226468  1
  O  O364  1  0.58765583  -0.00341006  -0.04956946  1
  O  O365  1  0.60769883  -0.00535754  0.51514436  1
  O  O366  1  0.63791536  0.51203273  0.02829385  1
  O  O367  1  0.61545446  0.49248560  0.50042395  1
  O  O368  1  0.37881835  0.35549515  0.12568828  1
  O  O369  1  0.37007241  0.37656134  0.61812562  1
  O  O370  1  0.35736168  0.91023016  0.13501819  1
  O  O371  1  0.34917202  0.86802369  0.61116344  1
  O  O372  1  0.86724958  0.38383729  0.12570596  1
  O  O373  1  0.87695874  0.39382375  0.61958949  1
  O  O374  1  0.84590207  0.88442673  0.13439632  1
  O  O375  1  0.88934822  0.87798923  0.63629022  1
  O  O376  1  0.13689736  0.11568312  0.36545663  1
  O  O377  1  0.12090725  0.11657698  0.88690000  1
  O  O378  1  0.14196559  0.63911524  0.37528362  1
  O  O379  1  0.12047074  0.62768873  0.89916213  1
  O  O380  1  0.64247275  0.11339770  0.40689046  1
  O  O381  1  0.61905930  0.12442899  0.84100190  1
  O  O382  1  0.62292129  0.65544051  0.37232010  1
  O  O383  1  0.63596694  0.63542767  0.86286674  1
