# generated using pymatgen
data_VZnO4
_symmetry_space_group_name_H-M   'P 1'
_cell_length_a   17.01647941
_cell_length_b   17.05603270
_cell_length_c   17.04193488
_cell_angle_alpha   90.10301007
_cell_angle_beta   89.30409633
_cell_angle_gamma   89.88699664
_symmetry_Int_Tables_number   1
_chemical_formula_structural   VZnO4
_chemical_formula_sum   'V64 Zn64 O256'
_cell_volume   4945.75995581
_cell_formula_units_Z   64
loop_
 _symmetry_equiv_pos_site_id
 _symmetry_equiv_pos_as_xyz
  1  'x, y, z'
loop_
 _atom_site_type_symbol
 _atom_site_label
 _atom_site_symmetry_multiplicity
 _atom_site_fract_x
 _atom_site_fract_y
 _atom_site_fract_z
 _atom_site_occupancy
  V  V0  1  -0.00052855  0.12927750  0.12604884  1
  V  V1  1  0.52614374  0.52960379  0.00362106  1
  V  V2  1  0.19693948  0.50146259  0.25336032  1
  V  V3  1  -0.00039713  0.73878025  0.74583509  1
  V  V4  1  0.62814317  0.78014932  0.38414694  1
  V  V5  1  0.00393741  0.87431988  0.37728417  1
  V  V6  1  0.00157161  0.87306116  0.87951288  1
  V  V7  1  0.13722810  0.87825434  0.74992236  1
  V  V8  1  0.13217577  0.23857738  0.40461008  1
  V  V9  1  0.25463768  0.48833740  0.77089513  1
  V  V10  1  0.18252696  0.83329916  0.29800220  1
  V  V11  1  0.63685081  0.25875334  0.37871817  1
  V  V12  1  0.12567980  0.36443808  0.76076774  1
  V  V13  1  0.12644414  0.14136247  -0.00571481  1
  V  V14  1  0.13031641  0.00020654  0.62849220  1
  V  V15  1  0.24721105  0.75620108  0.01726101  1
  V  V16  1  -0.01743441  0.24824538  0.27854619  1
  V  V17  1  0.62762298  0.10800269  -0.00295500  1
  V  V18  1  0.38922853  0.40461497  -0.03196685  1
  V  V19  1  0.50764131  0.02703709  0.49166459  1
  V  V20  1  0.49690667  0.87082884  0.85919841  1
  V  V21  1  0.75646490  0.89379193  0.14788930  1
  V  V22  1  0.41713595  0.87487934  0.50685521  1
  V  V23  1  0.35594082  0.64333983  0.73902494  1
  V  V24  1  0.37892800  0.76456045  0.12399224  1
  V  V25  1  0.13336341  0.73815119  0.88042565  1
  V  V26  1  0.86747398  0.51108772  0.87059450  1
  V  V27  1  0.40279150  0.61034176  0.23571637  1
  V  V28  1  0.25285373  0.10736155  0.86192761  1
  V  V29  1  0.23909177  0.35227716  0.13029732  1
  V  V30  1  0.27864098  0.24131360  -0.00943055  1
  V  V31  1  0.40337863  0.12789599  0.74515871  1
  V  V32  1  0.49562563  0.13503670  0.12921922  1
  V  V33  1  0.51236667  0.77378206  0.23076854  1
  V  V34  1  0.11363369  0.61738540  0.01976838  1
  V  V35  1  0.64208407  0.01451350  0.62031369  1
  V  V36  1  0.87104272  0.11547449  0.78217077  1
  V  V37  1  0.26611029  0.23400131  0.50915421  1
  V  V38  1  0.13120153  -0.00552479  0.12861584  1
  V  V39  1  0.74742585  0.24456992  -0.01616887  1
  V  V40  1  0.74787865  0.52442017  0.28792497  1
  V  V41  1  0.85847519  0.10773302  0.24771820  1
  V  V42  1  -0.00768827  -0.00285228  0.50466332  1
  V  V43  1  0.86669620  0.24107017  0.12397092  1
  V  V44  1  0.61078139  0.62947632  0.48783448  1
  V  V45  1  0.59797561  0.24364271  0.87339849  1
  V  V46  1  0.00307431  0.76330748  0.24065111  1
  V  V47  1  0.86991813  0.87900099  -0.00064487  1
  V  V48  1  0.25518668  0.36370497  0.62200406  1
  V  V49  1  0.37137065  0.15310359  0.25571656  1
  V  V50  1  -0.00836975  0.12727006  0.62890638  1
  V  V51  1  0.00818204  0.37550378  0.89082545  1
  V  V52  1  0.86229311  -0.00881543  0.37416601  1
  V  V53  1  0.73927305  0.38194634  0.12817446  1
  V  V54  1  0.25327253  0.01804000  0.25157518  1
  V  V55  1  0.62528954  0.00227685  0.14731145  1
  V  V56  1  0.00281927  -0.00070789  -0.00268056  1
  V  V57  1  0.87157723  0.74822805  0.12817073  1
  V  V58  1  0.87423194  0.37705546  0.00050226  1
  V  V59  1  0.58451683  0.40437232  0.77704366  1
  V  V60  1  0.44753291  0.59580551  0.59047465  1
  V  V61  1  0.00115145  0.24155046  0.76677559  1
  V  V62  1  0.11322449  0.48782116  0.61955044  1
  V  V63  1  0.76400799  -0.03539200  0.75010231  1
  Zn  Zn64  1  0.17627223  0.19937194  0.18906255  1
  Zn  Zn65  1  0.18064881  0.18273832  0.68716438  1
  Zn  Zn66  1  0.18922612  0.68306584  0.19242529  1
  Zn  Zn67  1  0.14985213  0.65129388  0.71389832  1
  Zn  Zn68  1  0.68524403  0.19214539  0.18368117  1
  Zn  Zn69  1  0.69382884  0.18466966  0.70471244  1
  Zn  Zn70  1  0.71186586  0.71553756  0.22710058  1
  Zn  Zn71  1  0.55654368  0.70211439  0.68206961  1
  Zn  Zn72  1  0.28330799  0.32749362  0.31261519  1
  Zn  Zn73  1  0.31890671  0.29606602  0.81111169  1
  Zn  Zn74  1  0.36152234  0.74700177  0.35552455  1
  Zn  Zn75  1  0.30251087  0.81512215  0.81914634  1
  Zn  Zn76  1  0.82572842  0.35258846  0.31758464  1
  Zn  Zn77  1  0.82643260  0.31457387  0.81140807  1
  Zn  Zn78  1  0.83365503  0.77894272  0.34799027  1
  Zn  Zn79  1  0.79637835  0.77085712  0.78179802  1
  Zn  Zn80  1  0.20654461  0.44384645  0.44370408  1
  Zn  Zn81  1  0.19089850  0.42430396  0.96156587  1
  Zn  Zn82  1  0.17131915  0.97555687  0.42964153  1
  Zn  Zn83  1  0.18376782  0.93584965  0.94395162  1
  Zn  Zn84  1  0.65616451  0.44674606  0.45724910  1
  Zn  Zn85  1  0.68845218  0.43004440  0.93274067  1
  Zn  Zn86  1  0.67707727  0.95589899  0.45353108  1
  Zn  Zn87  1  0.69875585  0.86118340  0.91481214  1
  Zn  Zn88  1  0.31319076  0.06296002  0.06385956  1
  Zn  Zn89  1  0.32194265  0.05184786  0.56267615  1
  Zn  Zn90  1  0.28586589  0.56631613  0.07955116  1
  Zn  Zn91  1  0.25443409  0.57519099  0.57173214  1
  Zn  Zn92  1  0.80993566  0.05947058  0.05295838  1
  Zn  Zn93  1  0.79724791  0.09442570  0.58725467  1
  Zn  Zn94  1  0.86323973  0.53941917  0.09430446  1
  Zn  Zn95  1  0.79367456  0.60599514  0.44725349  1
  Zn  Zn96  1  0.40783097  0.45233448  0.13270505  1
  Zn  Zn97  1  0.43374186  0.42154937  0.67863799  1
  Zn  Zn98  1  0.43179820  0.94852420  0.17541057  1
  Zn  Zn99  1  0.44644816  0.94142568  0.66805808  1
  Zn  Zn100  1  0.92003049  0.42550504  0.20301198  1
  Zn  Zn101  1  0.93857269  0.43494086  0.70456059  1
  Zn  Zn102  1  0.94502235  0.93835425  0.18713189  1
  Zn  Zn103  1  0.95216957  0.94738283  0.71182487  1
  Zn  Zn104  1  0.05638953  0.06881645  0.31098109  1
  Zn  Zn105  1  0.06984142  0.06127436  0.81797260  1
  Zn  Zn106  1  0.03501689  0.57248392  0.19612212  1
  Zn  Zn107  1  0.05930242  0.55208449  0.82197591  1
  Zn  Zn108  1  0.55909077  0.07705497  0.31063200  1
  Zn  Zn109  1  0.58824535  0.05962408  0.80237325  1
  Zn  Zn110  1  0.58453791  0.58547556  0.29702734  1
  Zn  Zn111  1  0.44585727  0.52531280  0.82727109  1
  Zn  Zn112  1  0.43680186  0.19562431  0.43726263  1
  Zn  Zn113  1  0.43250456  0.13052562  0.94186575  1
  Zn  Zn114  1  0.35957541  0.55572145  0.41522806  1
  Zn  Zn115  1  0.42422396  0.68055410  0.93677586  1
  Zn  Zn116  1  0.90497726  0.16671941  0.44894804  1
  Zn  Zn117  1  0.94271191  0.19051938  0.94453009  1
  Zn  Zn118  1  0.96346880  0.65663035  0.37396407  1
  Zn  Zn119  1  0.93649422  0.69171203  0.94190667  1
  Zn  Zn120  1  0.05473448  0.44188576  0.07240681  1
  Zn  Zn121  1  0.05797884  0.30790658  0.57179438  1
  Zn  Zn122  1  0.06608373  0.81517241  0.06319264  1
  Zn  Zn123  1  0.06065950  0.82065707  0.56696198  1
  Zn  Zn124  1  0.55781441  0.31501293  0.05899413  1
  Zn  Zn125  1  0.68731604  0.38114566  0.61195419  1
  Zn  Zn126  1  0.59843393  0.79184340  0.08566461  1
  Zn  Zn127  1  0.59685875  0.84122178  0.56467759  1
  O  O128  1  0.11408467  0.12481081  0.11205655  1
  O  O129  1  0.10294594  0.10486827  0.64523924  1
  O  O130  1  0.11275935  0.62519732  0.12466985  1
  O  O131  1  0.14537693  0.59107546  0.61783000  1
  O  O132  1  0.62766576  0.11459184  0.11931069  1
  O  O133  1  0.67127931  0.11690390  0.61871353  1
  O  O134  1  0.67909449  0.65266763  0.04822068  1
  O  O135  1  0.54733982  0.64779269  0.57720760  1
  O  O136  1  0.37730132  0.36361588  0.38237155  1
  O  O137  1  0.37906414  0.36961330  0.87448155  1
  O  O138  1  0.30484597  0.88566859  0.45489914  1
  O  O139  1  0.39118436  0.87693686  0.86598818  1
  O  O140  1  0.86971376  0.37998557  0.43640389  1
  O  O141  1  0.88792955  0.37643997  0.88562284  1
  O  O142  1  0.89203976  0.88278347  0.37176120  1
  O  O143  1  0.89390221  0.86852726  0.89566178  1
  O  O144  1  0.23636526  0.02038255  0.34999763  1
  O  O145  1  0.24328314  0.00978545  0.88332871  1
  O  O146  1  0.23560644  0.43966295  0.33134913  1
  O  O147  1  0.24359807  0.48016121  0.86860271  1
  O  O148  1  0.76625831  -0.01713747  0.38769386  1
  O  O149  1  0.73200631  -0.04862356  0.84714622  1
  O  O150  1  0.73901337  0.51932777  0.39173375  1
  O  O151  1  0.76991546  0.48470384  0.87443994  1
  O  O152  1  0.23910021  0.48163421  0.16023116  1
  O  O153  1  0.23469768  0.46951843  0.64253648  1
  O  O154  1  0.23516384  1.00857457  0.12617223  1
  O  O155  1  0.22681655  1.00929284  0.62275679  1
  O  O156  1  0.76686002  0.48064832  0.12625012  1
  O  O157  1  0.77418393  0.49778781  0.59664288  1
  O  O158  1  0.74546234  0.99871903  0.12631497  1
  O  O159  1  0.76754561  1.00420038  0.64472970  1
  O  O160  1  -0.05629968  0.34567673  0.27933021  1
  O  O161  1  0.00679245  0.36109438  0.76817656  1
  O  O162  1  0.00582800  0.87316314  0.26103446  1
  O  O163  1  0.00748581  0.86229853  0.76407085  1
  O  O164  1  0.43227641  0.40819464  0.34850012  1
  O  O165  1  0.50990426  0.35790634  0.72968081  1
  O  O166  1  0.50608866  0.87133961  0.21929644  1
  O  O167  1  0.47779105  0.85954287  0.75571383  1
  O  O168  1  0.48558248  0.12698595  0.23987754  1
  O  O169  1  0.50146727  0.11775901  0.75936346  1
  O  O170  1  0.50327646  0.63298918  0.23656699  1
  O  O171  1  0.45796631  0.64529972  0.69928331  1
  O  O172  1  0.98128182  0.12329834  0.23770892  1
  O  O173  1  0.99585099  0.12525094  0.76026388  1
  O  O174  1  1.00756623  0.65868231  0.26642234  1
  O  O175  1  1.03421409  0.63916680  0.75154134  1
  O  O176  1  0.37245719  0.21742072  -0.00291030  1
  O  O177  1  0.36311306  0.25251874  0.50176044  1
  O  O178  1  0.35488565  0.73753702  0.01145084  1
  O  O179  1  0.41026040  0.79381412  0.44364813  1
  O  O180  1  0.86170570  0.25082656  0.00310910  1
  O  O181  1  0.91675037  0.33130241  0.47390432  1
  O  O182  1  0.88822535  0.76987526  0.01971480  1
  O  O183  1  0.86224002  0.68472865  0.40817095  1
  O  O184  1  0.12069551  0.23883949  0.50724235  1
  O  O185  1  0.12009603  0.23632165  0.99367093  1
  O  O186  1  0.14381115  0.76440565  0.50480573  1
  O  O187  1  0.12862220  0.74554095  0.99543320  1
  O  O188  1  0.65342807  0.24638280  0.47799987  1
  O  O189  1  0.63650973  0.24912401  0.98663188  1
  O  O190  1  0.62282152  0.75998367  0.48493819  1
  O  O191  1  0.62219705  0.80547634  0.98057778  1
  O  O192  1  0.51895571  0.23190720  0.12845289  1
  O  O193  1  0.75153833  0.28217946  0.64442555  1
  O  O194  1  0.48067878  0.75553414  0.10944003  1
  O  O195  1  0.58030468  0.80630878  0.66724141  1
  O  O196  1  0.97484720  0.23159105  0.10844959  1
  O  O197  1  1.00378825  0.23033838  0.64557908  1
  O  O198  1  0.99363144  0.76284928  0.13680611  1
  O  O199  1  1.01189705  0.75735153  0.64733053  1
  O  O200  1  -0.02740911  0.21881511  0.37451245  1
  O  O201  1  0.00070719  0.26216692  0.87682302  1
  O  O202  1  0.00581688  0.77214202  0.36624218  1
  O  O203  1  0.01470602  0.75679747  0.87493016  1
  O  O204  1  0.53314435  0.25128322  0.39385738  1
  O  O205  1  0.50255995  0.23125772  0.88574700  1
  O  O206  1  0.53435083  0.76954938  0.33078027  1
  O  O207  1  0.48764097  0.76945269  0.87876549  1
  O  O208  1  0.26066098  0.13431024  0.50992228  1
  O  O209  1  0.23804436  0.12967976  0.99600586  1
  O  O210  1  0.26440621  0.71523710  0.52804458  1
  O  O211  1  0.22491933  0.63935925  1.01465313  1
  O  O212  1  0.81547852  0.16857849  0.51106426  1
  O  O213  1  0.74166448  0.13787922  1.00026205  1
  O  O214  1  0.70573279  0.62801305  0.51772430  1
  O  O215  1  0.72154358  0.64279517  0.99040547  1
  O  O216  1  0.28220041  0.34940991  -0.01092827  1
  O  O217  1  0.24321981  0.36170973  0.51988578  1
  O  O218  1  0.23984333  0.85504295  0.00164227  1
  O  O219  1  0.25492183  0.92533732  0.49884302  1
  O  O220  1  0.75774548  0.35984785  0.00414733  1
  O  O221  1  0.73716860  0.38744185  0.50881744  1
  O  O222  1  0.77081838  0.88737114  0.00562503  1
  O  O223  1  0.78671816  0.79433841  0.55616470  1
  O  O224  1  0.09715045  0.48915719  0.24634315  1
  O  O225  1  0.13291364  0.48120208  0.75492247  1
  O  O226  1  0.12971092  1.02097376  0.23144565  1
  O  O227  1  0.11306106  0.98366239  0.74434723  1
  O  O228  1  0.65125418  0.50081870  0.26426650  1
  O  O229  1  0.55056191  0.49784694  0.79287546  1
  O  O230  1  0.62904701  1.01376481  0.24494668  1
  O  O231  1  0.65182056  0.99767805  0.72995795  1
  O  O232  1  0.35437529  0.00667798  0.23781309  1
  O  O233  1  0.37907704  0.01200418  0.72482836  1
  O  O234  1  0.39613583  0.51148089  0.23253980  1
  O  O235  1  0.35994294  0.48569841  0.75460668  1
  O  O236  1  0.87719695  0.00074638  0.25822874  1
  O  O237  1  0.86970699  0.00354167  0.76641725  1
  O  O238  1  0.83691428  0.46751340  0.27692637  1
  O  O239  1  0.88661518  0.51033512  0.77108236  1
  O  O240  1  0.09322999  0.31994011  0.36857406  1
  O  O241  1  0.11315474  0.37670908  0.87832937  1
  O  O242  1  0.12202024  0.88337199  0.37110066  1
  O  O243  1  0.11920064  0.86717709  0.86944188  1
  O  O244  1  0.62052099  0.36107430  0.37711061  1
  O  O245  1  0.61264029  0.35758024  0.87330957  1
  O  O246  1  0.63350250  0.87894235  0.38416727  1
  O  O247  1  0.59682463  0.85396681  0.83962641  1
  O  O248  1  0.39200899  0.12814106  0.13028985  1
  O  O249  1  0.37952935  0.10567494  0.64492618  1
  O  O250  1  0.35357691  0.63903972  0.14709350  1
  O  O251  1  0.34412952  0.60904818  0.63160956  1
  O  O252  1  0.87797796  0.12005139  0.12762592  1
  O  O253  1  0.89329446  0.11635144  0.65719002  1
  O  O254  1  0.86986064  0.64982355  0.11920466  1
  O  O255  1  0.90227347  0.66089183  0.58235048  1
  O  O256  1  0.24009605  0.24805133  0.09546334  1
  O  O257  1  0.23823045  0.25217973  0.61819739  1
  O  O258  1  0.25147682  0.75336245  0.12257574  1
  O  O259  1  0.20752237  0.75800913  0.55402554  1
  O  O260  1  0.75523157  0.25014343  0.11034238  1
  O  O261  1  0.82867160  0.30607600  0.64620443  1
  O  O262  1  0.76813641  0.77267792  0.13782308  1
  O  O263  1  0.84478918  0.66035926  0.62640627  1
  O  O264  1  0.23932811  0.25790820  0.40130761  1
  O  O265  1  0.25766957  0.22724106  0.88703029  1
  O  O266  1  0.25119732  0.77491671  0.33832902  1
  O  O267  1  0.23701697  0.75074985  0.88910120  1
  O  O268  1  0.73934308  0.27520195  0.36608284  1
  O  O269  1  0.75553522  0.25694375  0.88435282  1
  O  O270  1  0.72071167  0.75982085  0.33577197  1
  O  O271  1  0.75477638  0.77119515  0.88322955  1
  O  O272  1  0.00989608  0.11633246  0.00338587  1
  O  O273  1  -0.01254953  0.11719889  0.52538304  1
  O  O274  1  0.01657752  0.63677510  0.00288033  1
  O  O275  1  0.04698621  0.62866133  0.46293086  1
  O  O276  1  0.52216025  0.12453299  0.01618311  1
  O  O277  1  0.48119804  0.12252122  0.51060207  1
  O  O278  1  0.50604547  0.62782927  -0.00933723  1
  O  O279  1  0.42396393  0.60856169  0.49454416  1
  O  O280  1  0.60034793  0.38339771  0.54129700  1
  O  O281  1  0.45747623  0.35367225  1.02044691  1
  O  O282  1  0.51827369  0.89983338  0.50040464  1
  O  O283  1  0.50288450  0.89265323  0.95948520  1
  O  O284  1  0.96096618  0.36685901  0.53149091  1
  O  O285  1  0.99214623  0.37144026  0.99542950  1
  O  O286  1  1.00451152  0.88159109  0.48695146  1
  O  O287  1  1.00234782  0.88417332  0.99719883  1
  O  O288  1  0.44817404  0.47502940  0.38524824  1
  O  O289  1  0.46285398  0.48144677  0.93212606  1
  O  O290  1  0.50777114  1.02106008  0.39130701  1
  O  O291  1  0.50976529  0.97233774  0.84355557  1
  O  O292  1  1.00966656  0.47676216  0.40585874  1
  O  O293  1  0.99209468  0.48048071  0.87936796  1
  O  O294  1  1.00333506  0.99210575  0.38290275  1
  O  O295  1  1.01312593  0.98620575  0.88843408  1
  O  O296  1  0.00830335  0.01137132  0.11864037  1
  O  O297  1  -0.00219276  -0.00184098  0.62137478  1
  O  O298  1  -0.02816212  0.49841676  0.13378641  1
  O  O299  1  0.01422572  0.48840011  0.64051862  1
  O  O300  1  0.52031111  0.01224828  0.13074243  1
  O  O301  1  0.53851144  0.00016487  0.62599673  1
  O  O302  1  0.50466793  0.49766670  0.09717790  1
  O  O303  1  0.46743039  0.49999416  0.60492480  1
  O  O304  1  0.20838519  0.32060462  0.22270621  1
  O  O305  1  0.24021788  0.36773909  0.75315577  1
  O  O306  1  0.23289419  0.90246764  0.24631076  1
  O  O307  1  0.23479250  0.88117251  0.75850179  1
  O  O308  1  0.75122499  0.35488116  0.22447778  1
  O  O309  1  0.83740983  0.36784606  0.70374215  1
  O  O310  1  0.75953411  0.89060431  0.24243689  1
  O  O311  1  0.78238276  0.86980788  0.72409716  1
  O  O312  1  0.26106224  0.12782193  0.23333909  1
  O  O313  1  0.23286088  0.11903944  0.76514212  1
  O  O314  1  0.21237441  0.60042625  0.26620929  1
  O  O315  1  0.24881560  0.59585379  0.75393053  1
  O  O316  1  0.76155069  0.12030448  0.23641421  1
  O  O317  1  0.77260552  0.12736593  0.76753461  1
  O  O318  1  0.76263521  0.61813219  0.25484815  1
  O  O319  1  0.67910056  0.66102136  0.78840742  1
  O  O320  1  0.38206921  0.13955196  0.35394339  1
  O  O321  1  0.36200492  0.11071745  0.85085312  1
  O  O322  1  0.36475859  0.63318950  0.33155560  1
  O  O323  1  0.39034832  0.62731744  0.83993868  1
  O  O324  1  0.86791847  0.10180101  0.35681353  1
  O  O325  1  0.88374292  0.11574264  0.88111747  1
  O  O326  1  0.95977850  0.51828938  0.37339184  1
  O  O327  1  0.87642399  0.60799593  0.89753401  1
  O  O328  1  0.15460550  0.38597170  0.07281275  1
  O  O329  1  0.12355180  0.37067768  0.64618384  1
  O  O330  1  0.11735668  0.89660253  0.12529095  1
  O  O331  1  0.12370101  0.88487793  0.64191557  1
  O  O332  1  0.64071909  0.37402627  0.10792777  1
  O  O333  1  0.66572944  0.41139107  0.71630067  1
  O  O334  1  0.64589960  0.89534906  0.12769077  1
  O  O335  1  0.67640700  0.92430688  0.56698653  1
  O  O336  1  0.07190217  0.24316826  0.23231572  1
  O  O337  1  0.11450749  0.25484273  0.75512176  1
  O  O338  1  0.12068803  0.76882080  0.23978792  1
  O  O339  1  0.12887769  0.75894550  0.76582908  1
  O  O340  1  0.62954839  0.25130689  0.27143011  1
  O  O341  1  0.62438511  0.23599256  0.77552440  1
  O  O342  1  0.60849107  0.74449926  0.18917749  1
  O  O343  1  0.71747539  0.69674033  0.72832852  1
  O  O344  1  0.36233564  0.25055382  0.25188237  1
  O  O345  1  0.37650061  0.22543323  0.74606308  1
  O  O346  1  0.40102187  0.75259125  0.23597838  1
  O  O347  1  0.32829339  0.73733612  0.73978843  1
  O  O348  1  0.87663574  0.22306030  0.23740260  1
  O  O349  1  0.89263851  0.22849729  0.76966735  1
  O  O350  1  0.89239035  0.76394294  0.23979719  1
  O  O351  1  0.90164096  0.73422637  0.76143951  1
  O  O352  1  0.26538282  0.53627267  0.46909150  1
  O  O353  1  0.34350349  0.48295352  1.02584959  1
  O  O354  1  0.40153111  0.98635969  0.51286500  1
  O  O355  1  0.39219794  1.03426325  0.99212843  1
  O  O356  1  0.87060689  0.52994922  0.50930480  1
  O  O357  1  0.87294241  0.47983996  0.99534055  1
  O  O358  1  0.88839454  1.00338576  0.48080551  1
  O  O359  1  0.89220329  0.98938890  1.00695681  1
  O  O360  1  0.11751996  0.00602218  0.01278049  1
  O  O361  1  0.10659831  -0.00078957  0.51968307  1
  O  O362  1  0.12014416  0.51616594  0.00051821  1
  O  O363  1  0.11803230  0.46532650  0.52256270  1
  O  O364  1  0.63726089  0.01221804  0.00199628  1
  O  O365  1  0.61525190  0.03862795  0.50196642  1
  O  O366  1  0.62151582  0.50702551  -0.02040905  1
  O  O367  1  0.58734474  0.53324752  0.47053728  1
  O  O368  1  0.33851741  0.36621812  0.14299586  1
  O  O369  1  0.35267030  0.36128472  0.63170509  1
  O  O370  1  0.36860852  0.86297700  0.12401613  1
  O  O371  1  0.40304280  0.85348035  0.60377901  1
  O  O372  1  0.86778570  0.35735492  0.11443145  1
  O  O373  1  0.84840835  0.49558394  0.57692598  1
  O  O374  1  0.87022278  0.87997103  0.11937462  1
  O  O375  1  0.85097929  0.82629185  0.56080785  1
  O  O376  1  0.11737240  0.14618442  0.36344464  1
  O  O377  1  0.13311995  0.11969487  0.89020807  1
  O  O378  1  0.11363297  0.61445031  0.43406622  1
  O  O379  1  0.12333946  0.63753634  0.88331135  1
  O  O380  1  0.64164422  0.15278917  0.36725193  1
  O  O381  1  0.62155596  0.12846945  0.89072162  1
  O  O382  1  0.60800953  0.65486701  0.38368428  1
  O  O383  1  0.60380999  0.64814179  0.77668521  1
