# generated using pymatgen
data_VZnO4
_symmetry_space_group_name_H-M   'P 1'
_cell_length_a   16.92138873
_cell_length_b   16.92304977
_cell_length_c   16.91483405
_cell_angle_alpha   89.75648666
_cell_angle_beta   90.12304593
_cell_angle_gamma   89.85070870
_symmetry_Int_Tables_number   1
_chemical_formula_structural   VZnO4
_chemical_formula_sum   'V64 Zn64 O256'
_cell_volume   4843.68583605
_cell_formula_units_Z   64
loop_
 _symmetry_equiv_pos_site_id
 _symmetry_equiv_pos_as_xyz
  1  'x, y, z'
loop_
 _atom_site_type_symbol
 _atom_site_label
 _atom_site_symmetry_multiplicity
 _atom_site_fract_x
 _atom_site_fract_y
 _atom_site_fract_z
 _atom_site_occupancy
  V  V0  1  0.11095805  0.01106917  0.62078596  1
  V  V1  1  0.36612946  0.13247806  0.26884939  1
  V  V2  1  0.25696997  0.37506534  0.10721521  1
  V  V3  1  0.24075672  0.00569077  0.75799193  1
  V  V4  1  0.61258347  0.87923431  0.73864949  1
  V  V5  1  0.00473819  0.48354315  0.50585487  1
  V  V6  1  0.00199217  0.61708116  0.62814399  1
  V  V7  1  0.63836060  0.76569730  0.87587651  1
  V  V8  1  0.23489153  0.20864805  0.50549735  1
  V  V9  1  0.36803968  0.49499488  0.90692186  1
  V  V10  1  0.60871665  0.38695550  0.25233833  1
  V  V11  1  0.75308047  0.50833128  0.23359401  1
  V  V12  1  -0.01192300  0.85400357  0.39186590  1
  V  V13  1  0.59933028  0.26969261  0.39565560  1
  V  V14  1  0.84122754  0.78888962  0.12600332  1
  V  V15  1  -0.00085721  0.63360627  0.13759643  1
  V  V16  1  0.62221364  0.50617722  0.11049240  1
  V  V17  1  0.26230186  0.74921152  -0.00185494  1
  V  V18  1  0.11682876  0.49586175  0.12134161  1
  V  V19  1  0.37492903  0.25194234  0.09924044  1
  V  V20  1  0.64404870  0.65599945  0.00339263  1
  V  V21  1  0.88103522  0.36964236  0.01178127  1
  V  V22  1  0.25599148  -0.00477299  0.26115095  1
  V  V23  1  0.73807477  0.61773921  0.37604511  1
  V  V24  1  0.75627323  0.23987054  0.02888330  1
  V  V25  1  0.27598722  0.88028498  0.11280875  1
  V  V26  1  0.48007310  0.88117054  0.88840098  1
  V  V27  1  0.12337279  0.12354199  -0.01054464  1
  V  V28  1  0.36710040  0.76705469  0.61488472  1
  V  V29  1  0.13800317  0.25303912  0.86846937  1
  V  V30  1  0.48653637  0.62736151  0.59791788  1
  V  V31  1  0.76397808  0.74536319  0.48809066  1
  V  V32  1  0.86850634  0.73854877  0.63887130  1
  V  V33  1  -0.01477841  0.23625207  0.74606675  1
  V  V34  1  0.62434006  0.89183956  0.25750080  1
  V  V35  1  0.48104513  0.75680669  0.23638789  1
  V  V36  1  0.13238006  0.37833031  0.27240551  1
  V  V37  1  0.26795253  0.51483569  0.24677870  1
  V  V38  1  0.74128484  0.15771284  0.36815920  1
  V  V39  1  -0.00525282  0.00009043  0.00365906  1
  V  V40  1  0.12710284  0.86740335  0.22876524  1
  V  V41  1  -0.00618873  0.38038952  0.86578511  1
  V  V42  1  0.49191971  0.64180298  0.11359298  1
  V  V43  1  0.22856148  0.87387861  0.62400228  1
  V  V44  1  0.12888141  0.76788696  0.87104341  1
  V  V45  1  0.12417570  0.21611554  0.37096781  1
  V  V46  1  0.54674752  0.24578081  0.75888437  1
  V  V47  1  -0.00114820  0.75363648  0.75785075  1
  V  V48  1  0.27831811  0.48206337  0.74188873  1
  V  V49  1  0.48569263  0.74323270  0.75409016  1
  V  V50  1  0.50007499  0.12752002  0.13602011  1
  V  V51  1  0.65126260  0.47516347  0.62927273  1
  V  V52  1  0.74888627  0.88068597  0.61976011  1
  V  V53  1  0.88428216  0.49926620  0.37034053  1
  V  V54  1  -0.02420909  0.12091587  0.61641473  1
  V  V55  1  0.85196432  0.37218687  0.50820398  1
  V  V56  1  0.75801881  0.13160062  0.88287671  1
  V  V57  1  0.12350492  0.63861835  0.48780539  1
  V  V58  1  0.75692190  -0.01875189  0.78104272  1
  V  V59  1  0.49748247  0.12457180  0.62845205  1
  V  V60  1  0.62767470  0.09581513  0.50119758  1
  V  V61  1  0.59451346  0.75537938  0.37753168  1
  V  V62  1  0.48662993  0.01410809  0.00414938  1
  V  V63  1  0.12111464  0.61943527  -0.01093844  1
  Zn  Zn64  1  0.19140847  0.18620783  0.17522544  1
  Zn  Zn65  1  0.17251696  0.19624565  0.68501903  1
  Zn  Zn66  1  0.18272896  0.69191554  0.17622119  1
  Zn  Zn67  1  0.18213726  0.68637783  0.68518289  1
  Zn  Zn68  1  0.72111141  0.11461442  0.16265528  1
  Zn  Zn69  1  0.70739519  0.15431308  0.68859105  1
  Zn  Zn70  1  0.68711919  0.69698321  0.19406026  1
  Zn  Zn71  1  0.69379249  0.64810248  0.66321994  1
  Zn  Zn72  1  0.28890660  0.30500193  0.31442856  1
  Zn  Zn73  1  0.32066223  0.33783793  0.84381880  1
  Zn  Zn74  1  0.27707732  0.77528435  0.29515476  1
  Zn  Zn75  1  0.30529858  0.82240804  0.80500471  1
  Zn  Zn76  1  0.79636306  0.33148461  0.30998475  1
  Zn  Zn77  1  0.82871937  0.28822031  0.83490087  1
  Zn  Zn78  1  0.81600952  0.82321142  0.30012324  1
  Zn  Zn79  1  0.79777708  0.62504213  0.83629304  1
  Zn  Zn80  1  0.20839597  0.49343265  0.44343325  1
  Zn  Zn81  1  0.18294340  0.43845912  0.92697157  1
  Zn  Zn82  1  0.18420526  0.94407553  0.44671676  1
  Zn  Zn83  1  0.19093150  0.93909929  0.93944156  1
  Zn  Zn84  1  0.66720842  0.43861309  0.44613343  1
  Zn  Zn85  1  0.73321196  0.45349701  0.96879214  1
  Zn  Zn86  1  0.69021704  0.91434825  0.42008100  1
  Zn  Zn87  1  0.65322667  0.97834109  0.94269667  1
  Zn  Zn88  1  0.30387832  0.07329133  0.06744002  1
  Zn  Zn89  1  0.30643457  0.08657568  0.63169152  1
  Zn  Zn90  1  0.30297722  0.57188091  0.07008159  1
  Zn  Zn91  1  0.30842945  0.57757820  0.57598331  1
  Zn  Zn92  1  0.81012545  -0.01544443  0.07363880  1
  Zn  Zn93  1  0.81555686  0.19014977  0.54404372  1
  Zn  Zn94  1  0.85238350  0.58383635  0.01375935  1
  Zn  Zn95  1  0.81575174  0.56150623  0.55394136  1
  Zn  Zn96  1  0.43796782  0.44697176  0.16054550  1
  Zn  Zn97  1  0.48604362  0.45136812  0.74697581  1
  Zn  Zn98  1  0.43940297  0.94318231  0.19679455  1
  Zn  Zn99  1  0.42749612  0.94636863  0.69019910  1
  Zn  Zn100  1  0.94751948  0.32761752  0.20252218  1
  Zn  Zn101  1  0.92669713  0.42726044  0.69004432  1
  Zn  Zn102  1  0.96666012  0.91856492  0.14372993  1
  Zn  Zn103  1  0.92919473  0.93238309  0.68279459  1
  Zn  Zn104  1  0.06237861  0.03681775  0.28604063  1
  Zn  Zn105  1  0.06157451  0.05856120  0.81468906  1
  Zn  Zn106  1  0.06807083  0.55616911  0.30893205  1
  Zn  Zn107  1  0.06269282  0.56423261  0.80983951  1
  Zn  Zn108  1  0.58833347  0.09935053  0.28784459  1
  Zn  Zn109  1  0.56490391  0.06295984  0.81394754  1
  Zn  Zn110  1  0.56796960  0.58110573  0.29359692  1
  Zn  Zn111  1  0.61951535  0.56868765  0.80502258  1
  Zn  Zn112  1  0.44308175  0.17982741  0.44567035  1
  Zn  Zn113  1  0.58621441  0.18274953  0.94743185  1
  Zn  Zn114  1  0.40216903  0.69619172  0.42851294  1
  Zn  Zn115  1  0.44875873  0.67861885  0.92829198  1
  Zn  Zn116  1  0.93343364  0.20743155  0.33988522  1
  Zn  Zn117  1  0.94172300  0.18336550  0.94071331  1
  Zn  Zn118  1  0.93741121  0.67612096  0.43174778  1
  Zn  Zn119  1  0.93883880  0.70790490  0.95275843  1
  Zn  Zn120  1  0.07327353  0.31919461  0.04445441  1
  Zn  Zn121  1  0.00816144  0.25775248  0.50984993  1
  Zn  Zn122  1  0.06751079  0.80732149  0.05691632  1
  Zn  Zn123  1  0.05550495  0.80881365  0.56173999  1
  Zn  Zn124  1  0.59585219  0.28217115  0.11499617  1
  Zn  Zn125  1  0.64005569  0.28373347  0.60742775  1
  Zn  Zn126  1  0.57323544  0.84220105  0.06628931  1
  Zn  Zn127  1  0.58435888  0.76812795  0.58019587  1
  O  O128  1  0.06374929  0.18553494  0.16162698  1
  O  O129  1  0.10871326  0.11273597  0.62470506  1
  O  O130  1  0.12198388  0.61019263  0.11827809  1
  O  O131  1  0.10571923  0.63114868  0.61433635  1
  O  O132  1  0.59854119  0.13809306  0.15779528  1
  O  O133  1  0.64022549  0.09525960  0.60191253  1
  O  O134  1  0.62653662  0.63056079  0.11440380  1
  O  O135  1  0.59052102  0.65453629  0.61390932  1
  O  O136  1  0.34913483  0.32228135  0.42509798  1
  O  O137  1  0.40393806  0.39820343  0.88363094  1
  O  O138  1  0.34471844  0.86193846  0.39022544  1
  O  O139  1  0.38527101  0.88724191  0.85823785  1
  O  O140  1  0.86035431  0.39774232  0.38623457  1
  O  O141  1  0.88740327  0.36997426  0.88211538  1
  O  O142  1  0.89617965  0.88128102  0.35629335  1
  O  O143  1  0.90887319  0.89102169  0.87822078  1
  O  O144  1  0.24579770  -0.01198898  0.36037629  1
  O  O145  1  0.24400503  -0.00004242  0.85815665  1
  O  O146  1  0.26148752  0.50791913  0.34796619  1
  O  O147  1  0.26654111  0.49304389  0.87168068  1
  O  O148  1  0.82394920  -0.00940137  0.42415481  1
  O  O149  1  0.75364456  -0.02735704  0.88268416  1
  O  O150  1  0.73457830  0.51440226  0.37974746  1
  O  O151  1  0.74097407  0.49061950  0.85230925  1
  O  O152  1  0.24499820  0.48674387  0.12704812  1
  O  O153  1  0.27098244  0.49381568  0.64143086  1
  O  O154  1  0.25767139  0.98114818  0.12011697  1
  O  O155  1  0.22377920  0.98881642  0.62948129  1
  O  O156  1  0.74363516  0.51599723  0.13397250  1
  O  O157  1  0.73515864  0.53962383  0.63012967  1
  O  O158  1  0.71516703  1.02285447  0.10184033  1
  O  O159  1  0.75619362  0.97518854  0.60875292  1
  O  O160  1  0.03306944  0.38019630  0.25127165  1
  O  O161  1  -0.00790173  0.36160756  0.75749265  1
  O  O162  1  0.02570546  0.86840747  0.22978225  1
  O  O163  1  -0.00923574  0.85073534  0.74160432  1
  O  O164  1  0.51098808  0.40603042  0.24141851  1
  O  O165  1  0.50512897  0.33870956  0.74426178  1
  O  O166  1  0.50622108  0.86125629  0.24357781  1
  O  O167  1  0.50585748  0.87971388  0.74820663  1
  O  O168  1  0.47598921  0.12295874  0.24365831  1
  O  O169  1  0.51267103  0.13380513  0.74215034  1
  O  O170  1  0.50338996  0.64614156  0.22763768  1
  O  O171  1  0.50507095  0.64732407  0.75416359  1
  O  O172  1  0.97097402  0.10465878  0.27918650  1
  O  O173  1  0.99527493  0.13199618  0.74815474  1
  O  O174  1  1.00244407  0.61089377  0.23602125  1
  O  O175  1  1.00134455  0.62692779  0.73425210  1
  O  O176  1  0.36746556  0.24534940  0.00431352  1
  O  O177  1  0.35025202  0.26276701  0.47665568  1
  O  O178  1  0.35730776  0.73641214  -0.02369037  1
  O  O179  1  0.37715642  0.77344982  0.51709625  1
  O  O180  1  0.86749971  0.25420374  -0.00204262  1
  O  O181  1  0.88224165  0.27097510  0.49280167  1
  O  O182  1  0.89281874  0.76455376  0.03988963  1
  O  O183  1  0.86448428  0.74341760  0.50562772  1
  O  O184  1  0.12795420  0.21484209  0.48652618  1
  O  O185  1  0.12097148  0.23982831  0.97966765  1
  O  O186  1  0.12285716  0.73805481  0.49912506  1
  O  O187  1  0.13054851  0.74417276  0.98225995  1
  O  O188  1  0.61196875  0.28476723  0.49190558  1
  O  O189  1  0.64593470  0.24841724  1.01894471  1
  O  O190  1  0.62913997  0.74881442  0.47731287  1
  O  O191  1  0.63089702  0.76373234  0.99291824  1
  O  O192  1  0.48453324  0.24099075  0.11712123  1
  O  O193  1  0.54238469  0.22578499  0.63744368  1
  O  O194  1  0.50848677  0.75359125  0.12880928  1
  O  O195  1  0.48162965  0.76021540  0.63920460  1
  O  O196  1  1.02357913  0.24569817  0.13329395  1
  O  O197  1  1.00173708  0.23327357  0.63661310  1
  O  O198  1  1.02574393  0.73227380  0.13411571  1
  O  O199  1  0.98654908  0.73911280  0.63230957  1
  O  O200  1  0.02523060  0.25265360  0.38659300  1
  O  O201  1  -0.00019593  0.25161372  0.86117267  1
  O  O202  1  -0.00592566  0.75374491  0.37366988  1
  O  O203  1  0.00564772  0.74695007  0.86397773  1
  O  O204  1  0.50065988  0.26022121  0.38145640  1
  O  O205  1  0.53122368  0.22880286  0.86000396  1
  O  O206  1  0.49386942  0.73610283  0.35670710  1
  O  O207  1  0.49535243  0.76672613  0.86512075  1
  O  O208  1  0.26453950  0.11413140  0.51816663  1
  O  O209  1  0.20116939  0.13291954  1.06337590  1
  O  O210  1  0.22157370  0.60149169  0.50384353  1
  O  O211  1  0.23305162  0.64173002  1.00712423  1
  O  O212  1  0.73040580  0.13174949  0.47581550  1
  O  O213  1  0.75834935  0.13915816  0.99197929  1
  O  O214  1  0.74564874  0.63604148  0.48766765  1
  O  O215  1  0.74141205  0.63860432  0.99968973  1
  O  O216  1  0.24572719  0.37627384  0.00874705  1
  O  O217  1  0.21603174  0.38265569  0.51695361  1
  O  O218  1  0.25326311  0.86475923  0.00335319  1
  O  O219  1  0.24129243  0.87862904  0.52285590  1
  O  O220  1  0.76329716  0.34833068  0.00513289  1
  O  O221  1  0.75351470  0.37593372  0.49399815  1
  O  O222  1  0.86157013  0.85896118  -0.07842728  1
  O  O223  1  0.74033568  0.85214350  0.50935006  1
  O  O224  1  0.13822133  0.49396004  0.23501240  1
  O  O225  1  0.16453014  0.53345089  0.75246119  1
  O  O226  1  0.14654784  0.97954410  0.23573745  1
  O  O227  1  0.12762667  1.00200897  0.73981579  1
  O  O228  1  0.63257955  0.50890753  0.23381446  1
  O  O229  1  0.58954341  0.50138181  0.71053102  1
  O  O230  1  0.59284490  0.98668714  0.27194457  1
  O  O231  1  0.63288224  0.98079465  0.75871448  1
  O  O232  1  0.36290437  0.00955062  0.25140690  1
  O  O233  1  0.34454651  0.01368433  0.72574982  1
  O  O234  1  0.36658096  0.50279710  0.22875341  1
  O  O235  1  0.37954469  0.49349939  0.75743044  1
  O  O236  1  0.90784553  0.07170254  0.22792445  1
  O  O237  1  0.85324346  -0.02332142  0.75591252  1
  O  O238  1  0.85656769  0.49979366  0.26652825  1
  O  O239  1  0.84213319  0.49340715  0.76334013  1
  O  O240  1  0.14105985  0.39683388  0.36879637  1
  O  O241  1  0.10872009  0.36100360  0.88271176  1
  O  O242  1  0.10515425  0.88558804  0.36328009  1
  O  O243  1  0.11919165  0.86521700  0.87732699  1
  O  O244  1  0.61457897  0.37828062  0.36176174  1
  O  O245  1  0.58531649  0.42016865  0.89112330  1
  O  O246  1  0.59272493  0.85893715  0.37720662  1
  O  O247  1  0.60588004  0.87276855  0.87148619  1
  O  O248  1  0.37514506  0.14370262  0.12937982  1
  O  O249  1  0.40095817  0.14977507  0.61398602  1
  O  O250  1  0.39382492  0.63351549  0.10718671  1
  O  O251  1  0.37691973  0.65407388  0.62438996  1
  O  O252  1  0.87141507  0.12386753  0.18844220  1
  O  O253  1  0.87563321  0.12114186  0.62205896  1
  O  O254  1  0.90170580  0.61841149  0.11019602  1
  O  O255  1  0.88669468  0.63263301  0.61581263  1
  O  O256  1  0.26142344  0.26823199  0.12799797  1
  O  O257  1  0.23506892  0.24482616  0.60023497  1
  O  O258  1  0.25730026  0.75863258  0.10521500  1
  O  O259  1  0.25527045  0.76184061  0.63872723  1
  O  O260  1  0.76029448  0.22294158  0.12753547  1
  O  O261  1  0.74051708  0.22984255  0.61538410  1
  O  O262  1  0.74393893  0.76186075  0.11909574  1
  O  O263  1  0.75947788  0.73591708  0.61471979  1
  O  O264  1  0.23035465  0.23766813  0.39290070  1
  O  O265  1  0.23743414  0.26385483  0.86622869  1
  O  O266  1  0.30615499  0.70708248  0.37744086  1
  O  O267  1  0.23522520  0.75858662  0.87634004  1
  O  O268  1  0.71928548  0.25945396  0.36100355  1
  O  O269  1  0.73920953  0.23105824  0.87005061  1
  O  O270  1  0.76125064  0.74145451  0.38225741  1
  O  O271  1  0.73332860  0.77238990  0.86746005  1
  O  O272  1  0.01906139  0.12431226  0.00657474  1
  O  O273  1  -0.01251621  0.13338362  0.51841554  1
  O  O274  1  0.02077743  0.63379163  0.01015494  1
  O  O275  1  0.00472832  0.61563846  0.50824094  1
  O  O276  1  0.51269985  0.11590116  0.01577885  1
  O  O277  1  0.52072374  0.12523064  0.51112062  1
  O  O278  1  0.52194991  0.64685168  0.01247841  1
  O  O279  1  0.47561428  0.64161095  0.49723658  1
  O  O280  1  0.44997272  0.40932231  0.49727350  1
  O  O281  1  0.54983811  0.38675501  0.94674845  1
  O  O282  1  0.45367250  0.96020787  0.49266740  1
  O  O283  1  0.47375133  0.86608723  0.98688008  1
  O  O284  1  0.99723334  0.38325409  0.50988971  1
  O  O285  1  0.98859313  0.36777348  0.98443717  1
  O  O286  1  0.98393484  0.86410798  0.49273619  1
  O  O287  1  1.00577567  0.89450438  1.02207870  1
  O  O288  1  0.48826294  0.51607495  0.36752811  1
  O  O289  1  0.54301992  0.49034774  0.86015230  1
  O  O290  1  0.40549908  0.89272384  0.36476065  1
  O  O291  1  0.50227977  0.99333650  0.89359390  1
  O  O292  1  0.98787595  0.50215556  0.38573291  1
  O  O293  1  1.00722071  0.47996972  0.85996386  1
  O  O294  1  1.04731441  0.95127584  0.36886069  1
  O  O295  1  1.00627455  1.00823330  0.89871426  1
  O  O296  1  0.01353918  0.01702510  0.11248018  1
  O  O297  1  -0.00172949  0.00944752  0.63631048  1
  O  O298  1  0.01929870  0.50061521  0.11998939  1
  O  O299  1  -0.01147420  0.50828051  0.61824234  1
  O  O300  1  0.48334945  0.02159806  0.12258904  1
  O  O301  1  0.49704890  0.02180792  0.63791966  1
  O  O302  1  0.51617039  0.52649293  0.11850229  1
  O  O303  1  0.47380932  0.53255435  0.61516466  1
  O  O304  1  0.24506173  0.38640929  0.24049771  1
  O  O305  1  0.26171076  0.38244570  0.75387054  1
  O  O306  1  0.26062198  0.88352955  0.23455519  1
  O  O307  1  0.24330856  0.89172246  0.73936735  1
  O  O308  1  0.72979541  0.40547793  0.25228250  1
  O  O309  1  0.78607855  0.44862435  0.79566062  1
  O  O310  1  0.72288153  0.89337027  0.30635415  1
  O  O311  1  0.73337160  0.88071986  0.73431339  1
  O  O312  1  0.25551736  0.10767509  0.24137088  1
  O  O313  1  0.23967579  0.11322751  0.72803360  1
  O  O314  1  0.25234882  0.61339219  0.22356600  1
  O  O315  1  0.22195942  0.59515933  0.75298053  1
  O  O316  1  0.71245115  0.10902644  0.28051700  1
  O  O317  1  0.74133307  0.08921072  0.77415825  1
  O  O318  1  0.74621889  0.61815265  0.26407985  1
  O  O319  1  0.71018521  0.63249511  0.77281627  1
  O  O320  1  0.37633769  0.12479161  0.36821780  1
  O  O321  1  0.36272140  0.12499450  0.87341001  1
  O  O322  1  0.42149769  0.54597883  0.37613037  1
  O  O323  1  0.41276665  0.58365723  0.88279603  1
  O  O324  1  0.84038646  0.14813034  0.37243612  1
  O  O325  1  0.85842810  0.12518050  0.87730887  1
  O  O326  1  0.85756134  0.60496444  0.38352528  1
  O  O327  1  0.87881919  0.62371460  0.90765761  1
  O  O328  1  0.13665182  0.38407735  0.11845919  1
  O  O329  1  0.18531898  0.38672015  0.58311753  1
  O  O330  1  0.14632029  0.86228013  0.12815925  1
  O  O331  1  0.12418260  0.87166404  0.63020124  1
  O  O332  1  0.61890746  0.40396406  0.12362661  1
  O  O333  1  0.68062144  0.38202587  0.64886192  1
  O  O334  1  0.63797432  0.87613672  0.15991473  1
  O  O335  1  0.63107001  0.86198082  0.63251709  1
  O  O336  1  0.14650680  0.26563079  0.27077915  1
  O  O337  1  0.11027739  0.24736183  0.76426347  1
  O  O338  1  0.16298941  0.77052449  0.26041694  1
  O  O339  1  0.11115638  0.74203920  0.76221684  1
  O  O340  1  0.61778039  0.28834877  0.23122982  1
  O  O341  1  0.64688204  0.24432545  0.74945304  1
  O  O342  1  0.62336534  0.76044749  0.27010150  1
  O  O343  1  0.60812663  0.76969467  0.76343280  1
  O  O344  1  0.35733329  0.23370231  0.25524748  1
  O  O345  1  0.36414669  0.17253040  0.81910266  1
  O  O346  1  0.38350202  0.75944548  0.23770058  1
  O  O347  1  0.38265886  0.75271360  0.75291163  1
  O  O348  1  0.87799199  0.27108862  0.26518101  1
  O  O349  1  0.88429626  0.24826047  0.74568574  1
  O  O350  1  0.86842548  0.75948327  0.22030260  1
  O  O351  1  0.88208030  0.73336189  0.74051244  1
  O  O352  1  0.34683793  0.49390274  0.49301894  1
  O  O353  1  0.36426706  0.49696136  1.00808288  1
  O  O354  1  0.39018189  0.99516602  0.49396882  1
  O  O355  1  0.38514010  1.01589069  1.00284870  1
  O  O356  1  0.88233689  0.49098155  0.49258558  1
  O  O357  1  0.84710994  0.47053421  0.99786866  1
  O  O358  1  0.86933752  1.00727850  0.47812266  1
  O  O359  1  0.89320212  1.01068896  1.00644751  1
  O  O360  1  0.12748529  0.01823727  -0.00922057  1
  O  O361  1  0.11275236  -0.00673525  0.52087669  1
  O  O362  1  0.13412460  0.51176852  0.00641089  1
  O  O363  1  0.10374640  0.50090020  0.49856417  1
  O  O364  1  0.58044314  -0.04383063  0.02578888  1
  O  O365  1  0.63453041  0.00264956  0.46680213  1
  O  O366  1  0.64374293  0.51834137  0.00883158  1
  O  O367  1  0.61040429  0.47800163  0.53484381  1
  O  O368  1  0.36860118  0.36455239  0.11868817  1
  O  O369  1  0.39116372  0.43544826  0.53348592  1
  O  O370  1  0.37461022  0.87614102  0.12107653  1
  O  O371  1  0.35865393  0.87013630  0.63615438  1
  O  O372  1  0.89675447  0.36679704  0.11011297  1
  O  O373  1  0.86248298  0.38517231  0.60810767  1
  O  O374  1  0.85379181  0.89549522  0.13432478  1
  O  O375  1  0.85688464  0.85175263  0.63017064  1
  O  O376  1  0.11684860  0.12132733  0.34502830  1
  O  O377  1  0.13464480  0.13667824  0.88264304  1
  O  O378  1  0.11428233  0.62043376  0.38860617  1
  O  O379  1  0.12070633  0.62667143  0.88726128  1
  O  O380  1  0.61363151  0.15542770  0.38997245  1
  O  O381  1  0.64396872  0.09093575  0.89846993  1
  O  O382  1  0.63328213  0.63950346  0.37034514  1
  O  O383  1  0.61836142  0.65412350  0.89581619  1
