# generated using pymatgen
data_VZnO4
_symmetry_space_group_name_H-M   'P 1'
_cell_length_a   17.06556295
_cell_length_b   17.35286022
_cell_length_c   17.33177394
_cell_angle_alpha   90.37483847
_cell_angle_beta   91.26215719
_cell_angle_gamma   90.29925678
_symmetry_Int_Tables_number   1
_chemical_formula_structural   VZnO4
_chemical_formula_sum   'V64 Zn64 O256'
_cell_volume   5131.13886148
_cell_formula_units_Z   64
loop_
 _symmetry_equiv_pos_site_id
 _symmetry_equiv_pos_as_xyz
  1  'x, y, z'
loop_
 _atom_site_type_symbol
 _atom_site_label
 _atom_site_symmetry_multiplicity
 _atom_site_fract_x
 _atom_site_fract_y
 _atom_site_fract_z
 _atom_site_occupancy
  V  V0  1  0.74620274  0.42615816  0.73905918  1
  V  V1  1  0.62520144  0.13026353  0.00714709  1
  V  V2  1  0.00772996  0.33408820  0.92402888  1
  V  V3  1  0.12404690  0.62610350  0.49453478  1
  V  V4  1  0.11859189  0.37077403  0.72167407  1
  V  V5  1  0.89723642  0.12365455  0.78698633  1
  V  V6  1  0.40758828  0.50916285  0.87239292  1
  V  V7  1  0.60105243  0.24883376  0.36830756  1
  V  V8  1  0.25947420  0.13819474  0.86495440  1
  V  V9  1  0.00025274  0.24054162  0.71558396  1
  V  V10  1  0.04490772  0.33203384  0.37004619  1
  V  V11  1  0.00971752  0.90420262  0.88659987  1
  V  V12  1  0.11492548  0.87843917  0.75157651  1
  V  V13  1  0.37308103  0.75993965  0.62503726  1
  V  V14  1  0.51090163  0.79809021  0.74144368  1
  V  V15  1  0.64493459  0.23612211  0.88119908  1
  V  V16  1  0.27666788  -0.01257473  0.27016347  1
  V  V17  1  0.47104518  0.51227499  0.46817853  1
  V  V18  1  0.62129456  0.79116331  0.87435164  1
  V  V19  1  0.74704969  0.87472377  0.11707945  1
  V  V20  1  0.89572744  0.01148332  0.36389376  1
  V  V21  1  0.49597509  -0.00962098  -0.02239231  1
  V  V22  1  0.51791884  0.13471944  0.64077856  1
  V  V23  1  0.73957955  0.00693379  0.25691037  1
  V  V24  1  0.49127450  0.87815735  0.37405009  1
  V  V25  1  0.25678233  0.10852262  0.40715315  1
  V  V26  1  0.86183745  0.53810194  0.87839836  1
  V  V27  1  0.84345421  0.73483642  0.66583832  1
  V  V28  1  0.61668467  0.87614848  0.24580017  1
  V  V29  1  0.88763502  0.23652931  0.14478843  1
  V  V30  1  0.50332978  0.01354045  0.48549312  1
  V  V31  1  0.00666805  0.65570131  0.14955995  1
  V  V32  1  0.63197880  0.01459918  0.61074947  1
  V  V33  1  0.75558978  0.90014582  0.61502186  1
  V  V34  1  0.69948587  0.62004994  0.87578537  1
  V  V35  1  0.46838696  0.11688897  0.11284672  1
  V  V36  1  0.34153072  0.34446036  0.03313692  1
  V  V37  1  0.73015291  0.73998975  0.00892234  1
  V  V38  1  0.14194863  0.86832782  0.24863483  1
  V  V39  1  0.01552397  0.86876847  0.38873800  1
  V  V40  1  0.19793128  0.54444866  0.74571906  1
  V  V41  1  0.27053007  0.87710173  0.11918738  1
  V  V42  1  0.13496196  0.37255490  0.22698642  1
  V  V43  1  0.37070906  0.11854562  0.26308099  1
  V  V44  1  -0.00450963  0.04214047  0.13394102  1
  V  V45  1  0.75726661  0.02334944  0.75752357  1
  V  V46  1  0.61211075  0.00089027  0.12191129  1
  V  V47  1  0.49048170  0.74538925  0.24176428  1
  V  V48  1  0.25918712  0.51326236  0.22199038  1
  V  V49  1  0.75986852  0.61901112  0.36331367  1
  V  V50  1  0.51234933  0.25733408  0.75867271  1
  V  V51  1  0.76226826  0.36573987  0.14992802  1
  V  V52  1  0.37854940  0.26339238  0.61049945  1
  V  V53  1  0.74667232  0.75513712  0.49670770  1
  V  V54  1  0.78000149  0.23886733  0.51519203  1
  V  V55  1  0.63638586  0.51477052  0.13938359  1
  V  V56  1  0.44206849  0.61015686  0.72903264  1
  V  V57  1  0.62488261  0.75162903  0.37669685  1
  V  V58  1  0.49994144  0.63090959  0.10926397  1
  V  V59  1  0.37167878  0.87832970  0.50289191  1
  V  V60  1  0.32839896  0.69834208  0.06198033  1
  V  V61  1  0.37295077  0.87023083  -0.01976032  1
  V  V62  1  0.48843394  0.25887131  0.22598234  1
  V  V63  1  0.87055350  0.88591148  0.48863671  1
  Zn  Zn64  1  0.07614316  0.19761013  0.21184626  1
  Zn  Zn65  1  0.19460962  0.20260318  0.67516979  1
  Zn  Zn66  1  0.20286972  0.70476941  0.20024138  1
  Zn  Zn67  1  0.16995602  0.73883761  0.67337996  1
  Zn  Zn68  1  0.69381321  0.20442375  0.21956864  1
  Zn  Zn69  1  0.72701767  0.22199422  0.70794226  1
  Zn  Zn70  1  0.68163363  0.69200031  0.19133552  1
  Zn  Zn71  1  0.63776510  0.68056750  0.70732000  1
  Zn  Zn72  1  0.29073437  0.29605200  0.23088028  1
  Zn  Zn73  1  0.31493520  0.40902600  0.71607221  1
  Zn  Zn74  1  0.30983072  0.80474778  0.31209411  1
  Zn  Zn75  1  0.31100779  0.81624475  0.79112694  1
  Zn  Zn76  1  0.79737199  0.31588568  0.35157224  1
  Zn  Zn77  1  0.83072872  0.27942395  0.83677670  1
  Zn  Zn78  1  0.80496696  0.81810151  0.31282969  1
  Zn  Zn79  1  0.83833284  0.77565667  0.86958772  1
  Zn  Zn80  1  0.25040629  0.38813401  0.38831139  1
  Zn  Zn81  1  0.21335806  0.35210306  0.88260674  1
  Zn  Zn82  1  0.18442166  0.95996959  0.46572393  1
  Zn  Zn83  1  0.16781017  0.90665123  0.95424401  1
  Zn  Zn84  1  0.69128961  0.43734603  0.30116964  1
  Zn  Zn85  1  0.66831484  0.37746587  1.00117343  1
  Zn  Zn86  1  0.67627613  0.93680173  0.43145940  1
  Zn  Zn87  1  0.71265796  0.96017979  0.95095210  1
  Zn  Zn88  1  0.29179240  0.04043474  0.03496388  1
  Zn  Zn89  1  0.34508475  0.06427136  0.58219454  1
  Zn  Zn90  1  0.26336071  0.50901805  0.01281068  1
  Zn  Zn91  1  0.31161155  0.56868869  0.59023854  1
  Zn  Zn92  1  0.82159163  0.07564639  0.06464315  1
  Zn  Zn93  1  0.78683436  0.06600394  0.51177504  1
  Zn  Zn94  1  0.77347686  0.51488431  0.02318799  1
  Zn  Zn95  1  0.73608288  0.56824648  0.63609377  1
  Zn  Zn96  1  0.42554715  0.44988826  0.17255677  1
  Zn  Zn97  1  0.49566988  0.41468486  0.66215741  1
  Zn  Zn98  1  0.43808990  0.93317122  0.17897002  1
  Zn  Zn99  1  0.43761840  0.95440799  0.67619153  1
  Zn  Zn100  1  0.91126536  0.37949404  0.26104772  1
  Zn  Zn101  1  0.93178733  0.41734812  0.78005513  1
  Zn  Zn102  1  0.92046553  0.89728461  0.21338923  1
  Zn  Zn103  1  0.89107695  0.90139946  0.76638185  1
  Zn  Zn104  1  0.08714128  0.05416691  0.31851014  1
  Zn  Zn105  1  0.07831277  0.05619687  0.79596747  1
  Zn  Zn106  1  0.08332808  0.56149223  0.29978753  1
  Zn  Zn107  1  0.07301263  0.48773301  0.85833245  1
  Zn  Zn108  1  0.55226669  0.06388041  0.30438244  1
  Zn  Zn109  1  0.58326754  0.05934293  0.81280234  1
  Zn  Zn110  1  0.56623587  0.57793002  0.30596986  1
  Zn  Zn111  1  0.57744856  0.41828488  0.84086263  1
  Zn  Zn112  1  0.39440793  0.25550049  0.40141928  1
  Zn  Zn113  1  0.45091711  0.19694122  0.94031045  1
  Zn  Zn114  1  0.44488363  0.70605089  0.44215427  1
  Zn  Zn115  1  0.46133387  0.69119175  0.91848915  1
  Zn  Zn116  1  0.91975580  0.21177486  0.41214042  1
  Zn  Zn117  1  0.95685663  0.15351882  0.98555325  1
  Zn  Zn118  1  0.92924070  0.69903807  0.43460636  1
  Zn  Zn119  1  0.89788556  0.65686945  0.97685629  1
  Zn  Zn120  1  -0.00318374  0.35145916  0.10504608  1
  Zn  Zn121  1  0.12632265  0.42031060  0.52035698  1
  Zn  Zn122  1  0.04627376  0.85709304  0.08751369  1
  Zn  Zn123  1  0.00157090  0.83173754  0.59886523  1
  Zn  Zn124  1  0.49937870  0.47008485  0.01725645  1
  Zn  Zn125  1  0.61670324  0.29378566  0.57077496  1
  Zn  Zn126  1  0.55401751  0.81471301  0.05805969  1
  Zn  Zn127  1  0.57047176  0.83066398  0.56006200  1
  O  O128  1  0.06022785  0.08495745  0.20747578  1
  O  O129  1  0.13605965  0.10382503  0.64983603  1
  O  O130  1  0.11220934  0.66796779  0.13232933  1
  O  O131  1  0.11516087  0.67284151  0.58491326  1
  O  O132  1  0.59603780  0.10768773  0.11468788  1
  O  O133  1  0.61916441  0.11774839  0.60536175  1
  O  O134  1  0.61222630  0.62002504  0.13223288  1
  O  O135  1  0.65554942  0.63508511  0.61248481  1
  O  O136  1  0.32293179  0.31963943  0.34344424  1
  O  O137  1  0.36369860  0.44114715  0.81689767  1
  O  O138  1  0.38575057  0.85587552  0.38987061  1
  O  O139  1  0.35445402  0.86126327  0.88450797  1
  O  O140  1  0.91493917  0.31110068  0.35578610  1
  O  O141  1  0.91870187  0.34184455  0.86881994  1
  O  O142  1  0.89096441  0.88770174  0.38107929  1
  O  O143  1  0.90959473  0.87065547  0.88247208  1
  O  O144  1  0.28995352  -0.00934382  0.36622336  1
  O  O145  1  0.27430610  0.03978879  0.84971373  1
  O  O146  1  0.25296210  0.48894909  0.34188907  1
  O  O147  1  0.23027729  0.54158867  0.83627663  1
  O  O148  1  0.72501112  0.00200865  0.35472088  1
  O  O149  1  0.74189792  0.01115107  0.85042502  1
  O  O150  1  0.73844245  0.52320762  0.36414395  1
  O  O151  1  0.74833516  0.52835219  0.90532267  1
  O  O152  1  0.25467733  0.50624335  0.12302143  1
  O  O153  1  0.27122235  0.51142895  0.67787618  1
  O  O154  1  0.25490329  0.97468174  0.12254555  1
  O  O155  1  0.18163285  1.05379304  0.60896806  1
  O  O156  1  0.73428458  0.53106486  0.12893314  1
  O  O157  1  0.75699901  0.46264333  0.64779072  1
  O  O158  1  0.72508536  0.98216248  0.13575817  1
  O  O159  1  0.74494700  1.01201504  0.59910672  1
  O  O160  1  0.02700347  0.37536706  0.27355725  1
  O  O161  1  0.00477815  0.35265797  0.72847799  1
  O  O162  1  0.04533205  0.86487186  0.27849779  1
  O  O163  1  0.00590182  0.87831733  0.77245410  1
  O  O164  1  0.46771702  0.35200508  0.21064884  1
  O  O165  1  0.52174283  0.35816057  0.75933511  1
  O  O166  1  0.50155476  0.86931788  0.25460192  1
  O  O167  1  0.50343054  0.89534698  0.74639009  1
  O  O168  1  0.47689368  0.11253797  0.22702911  1
  O  O169  1  0.51675200  0.11765694  0.73812886  1
  O  O170  1  0.50048526  0.64604392  0.24596168  1
  O  O171  1  0.52546847  0.66126232  0.73347630  1
  O  O172  1  1.04985548  0.17282060  0.32328610  1
  O  O173  1  1.00310692  0.13478154  0.75911236  1
  O  O174  1  1.03959844  0.65532527  0.25096770  1
  O  O175  1  1.00116137  0.64537737  0.73733542  1
  O  O176  1  0.38904390  0.27819239  -0.02160128  1
  O  O177  1  0.39554571  0.26966404  0.51325208  1
  O  O178  1  0.38540547  0.75335696  -0.00788737  1
  O  O179  1  0.39003529  0.76246630  0.51881750  1
  O  O180  1  0.87016171  0.18321108  0.05687580  1
  O  O181  1  0.88025696  0.22033561  0.51729787  1
  O  O182  1  0.83425674  0.74944123  -0.01746087  1
  O  O183  1  0.85451385  0.77750306  0.47973245  1
  O  O184  1  0.14278722  0.23067151  0.53804099  1
  O  O185  1  0.16298607  0.24946385  1.04268724  1
  O  O186  1  0.15687608  0.70982097  0.45178490  1
  O  O187  1  0.04769156  0.73695383  0.93406450  1
  O  O188  1  0.59600119  0.26020285  0.46498002  1
  O  O189  1  0.61225375  0.22857543  0.99875812  1
  O  O190  1  0.63373102  0.76920606  0.48433800  1
  O  O191  1  0.62038018  0.76362739  0.98161430  1
  O  O192  1  0.47234122  0.21520132  0.11841596  1
  O  O193  1  0.54296649  0.23688040  0.64755296  1
  O  O194  1  0.51314773  0.74260181  0.13630757  1
  O  O195  1  0.51321840  0.77907839  0.64096232  1
  O  O196  1  0.99366305  0.24178210  0.14315470  1
  O  O197  1  0.99267876  0.22599361  0.62441506  1
  O  O198  1  1.01054757  0.75973612  0.13675279  1
  O  O199  1  0.93018692  0.74905719  0.62134940  1
  O  O200  1  0.04005300  0.22266080  0.38783638  1
  O  O201  1  0.01864944  0.24040251  0.94874272  1
  O  O202  1  0.00033717  0.77251271  0.39081734  1
  O  O203  1  -0.00446266  0.69401641  0.90459701  1
  O  O204  1  0.49204098  0.25780934  0.33591764  1
  O  O205  1  0.51527968  0.23505996  0.85875049  1
  O  O206  1  0.50972812  0.75829776  0.36513805  1
  O  O207  1  0.51453466  0.77094661  0.85877654  1
  O  O208  1  0.28215471  0.10566144  0.50296214  1
  O  O209  1  0.26803182  0.13407740  0.96728091  1
  O  O210  1  0.22454841  0.60105515  0.52155397  1
  O  O211  1  0.27109997  0.63463985  1.01595026  1
  O  O212  1  0.74345259  0.15511557  0.47004903  1
  O  O213  1  0.71952916  0.12077447  1.03089471  1
  O  O214  1  0.74977421  0.65973106  0.48036557  1
  O  O215  1  0.72456812  0.64213868  1.00380682  1
  O  O216  1  0.26430084  0.39203923  -0.02420250  1
  O  O217  1  0.23136447  0.41151677  0.49220650  1
  O  O218  1  0.26302466  0.86351797  0.00972066  1
  O  O219  1  0.27420959  0.89058539  0.49334096  1
  O  O220  1  0.77021938  0.39903268  0.04924038  1
  O  O221  1  0.76705677  0.31849253  0.45941020  1
  O  O222  1  0.72998364  0.86536606  0.01744040  1
  O  O223  1  0.75326485  0.88093019  0.49639191  1
  O  O224  1  0.14287083  0.48742958  0.25349814  1
  O  O225  1  0.10794246  0.48023780  0.74891652  1
  O  O226  1  0.16533107  0.96706882  0.27185562  1
  O  O227  1  0.13026269  0.97389496  0.73939041  1
  O  O228  1  0.61670042  0.50469394  0.24215229  1
  O  O229  1  0.66017574  0.45525631  0.77568002  1
  O  O230  1  0.61828278  0.99144229  0.24014084  1
  O  O231  1  0.65406149  1.02401760  0.72664730  1
  O  O232  1  0.37952080  0.00568056  0.24338549  1
  O  O233  1  0.34820223  0.01487557  0.67691414  1
  O  O234  1  0.35995114  0.50320599  0.24003143  1
  O  O235  1  0.46423619  0.51731121  0.71199717  1
  O  O236  1  0.84890908  -0.01581091  0.27044940  1
  O  O237  1  0.87955830  0.02416838  0.76259247  1
  O  O238  1  0.91944834  0.50038068  0.30306960  1
  O  O239  1  0.82887170  0.46804314  0.79368966  1
  O  O240  1  0.14358190  0.34479596  0.35107935  1
  O  O241  1  0.09479641  0.37478727  0.87842953  1
  O  O242  1  0.10890791  0.88736955  0.42096548  1
  O  O243  1  0.11520517  0.86892073  0.86006846  1
  O  O244  1  0.62930978  0.35335665  0.34167367  1
  O  O245  1  0.63044479  0.34052117  0.90515900  1
  O  O246  1  0.60932814  0.87049678  0.36222976  1
  O  O247  1  0.64261550  0.88433777  0.88103782  1
  O  O248  1  0.37039907  0.09664877  0.10225810  1
  O  O249  1  0.41965910  0.15292273  0.60949110  1
  O  O250  1  0.39298190  0.64259021  0.11994661  1
  O  O251  1  0.38491507  0.64515356  0.64403725  1
  O  O252  1  0.89989881  0.06130289  0.14912480  1
  O  O253  1  0.93442907  0.08449357  0.58554153  1
  O  O254  1  0.91203809  0.66327732  0.18075307  1
  O  O255  1  0.82539823  0.63931874  0.66392648  1
  O  O256  1  0.14420949  0.18417170  0.06321575  1
  O  O257  1  0.28254822  0.24294772  0.62271281  1
  O  O258  1  0.26923334  0.75582076  0.12444869  1
  O  O259  1  0.27594420  0.75343847  0.62598971  1
  O  O260  1  0.75669461  0.26572591  0.14396454  1
  O  O261  1  0.72498680  0.25413521  0.60245947  1
  O  O262  1  0.72799535  0.76070661  0.11425601  1
  O  O263  1  0.76133882  0.77853125  0.60613948  1
  O  O264  1  0.22986253  0.19654937  0.38908021  1
  O  O265  1  0.23761264  0.23889803  0.87785153  1
  O  O266  1  0.29658881  0.70193501  0.36704597  1
  O  O267  1  0.26696393  0.70367929  0.85733820  1
  O  O268  1  0.70671497  0.25215826  0.32357515  1
  O  O269  1  0.74468217  0.23528962  0.89155339  1
  O  O270  1  0.73291554  0.77012698  0.38102075  1
  O  O271  1  0.71782711  0.73615147  0.88356791  1
  O  O272  1  0.01397284  0.07539835  0.04310550  1
  O  O273  1  0.10391429  0.17634024  0.51157095  1
  O  O274  1  -0.01495923  0.64877320  0.05072485  1
  O  O275  1  0.02227007  0.64159725  0.48081665  1
  O  O276  1  0.49251050  0.10543280  0.00132796  1
  O  O277  1  0.49582315  0.10632883  0.47931956  1
  O  O278  1  0.50090666  0.63541366  0.01148204  1
  O  O279  1  0.49010676  0.61269553  0.49382974  1
  O  O280  1  0.43833462  0.42572170  0.42625287  1
  O  O281  1  0.41256098  0.41460521  1.06372853  1
  O  O282  1  0.49842462  0.87967819  0.48500855  1
  O  O283  1  0.48663980  0.88223658  0.99244484  1
  O  O284  1  1.03930124  0.38063912  0.45551005  1
  O  O285  1  0.99178350  0.38889270  1.00294442  1
  O  O286  1  0.97777267  0.88097777  0.50003146  1
  O  O287  1  1.05007347  0.88722785  0.98375415  1
  O  O288  1  0.47203730  0.54637020  0.37112466  1
  O  O289  1  0.50217633  0.47425945  0.90329510  1
  O  O290  1  0.50321388  0.98793968  0.37859543  1
  O  O291  1  0.51086378  1.00078869  0.88299282  1
  O  O292  1  0.97814999  0.52509567  0.34288188  1
  O  O293  1  0.95995440  0.50759235  0.85188980  1
  O  O294  1  0.99599494  0.98895044  0.35785227  1
  O  O295  1  1.01516786  1.00089074  0.87438786  1
  O  O296  1  -0.00067063  -0.06057101  0.14593191  1
  O  O297  1  -0.00423658  0.04789093  0.58169720  1
  O  O298  1  0.01098070  0.55521910  0.14810259  1
  O  O299  1  -0.01341461  0.59296036  0.69120307  1
  O  O300  1  0.49921284  -0.00201554  0.10943382  1
  O  O301  1  0.51459373  0.01649062  0.60964132  1
  O  O302  1  0.50100887  0.52818342  0.12735905  1
  O  O303  1  0.47772079  0.47613430  0.56270522  1
  O  O304  1  0.23808531  0.39669268  0.22446881  1
  O  O305  1  0.21628887  0.36754869  0.76587466  1
  O  O306  1  0.28515744  0.88516814  0.23359659  1
  O  O307  1  0.20820966  0.82543370  0.75174760  1
  O  O308  1  0.79155136  0.39318535  0.25459835  1
  O  O309  1  0.76610753  0.32694393  0.74938788  1
  O  O310  1  0.72796561  0.87943933  0.24108761  1
  O  O311  1  0.78081504  0.92322316  0.72078622  1
  O  O312  1  0.26558778  0.09260619  0.25134467  1
  O  O313  1  0.25439674  0.15577906  0.76426028  1
  O  O314  1  0.23610076  0.61012264  0.23921681  1
  O  O315  1  0.17605749  0.63822068  0.72515701  1
  O  O316  1  0.73478134  0.10037373  0.23289430  1
  O  O317  1  0.78433250  0.12818301  0.74620892  1
  O  O318  1  0.74806786  0.64875822  0.26918946  1
  O  O319  1  0.70833282  0.62039584  0.77775875  1
  O  O320  1  0.37006416  0.12995352  0.36224724  1
  O  O321  1  0.36243020  0.15349398  0.86352085  1
  O  O322  1  0.35619697  0.65828135  0.37870896  1
  O  O323  1  0.41520204  0.61039175  0.83415110  1
  O  O324  1  0.89495172  0.10833480  0.37050354  1
  O  O325  1  0.89676496  0.13516984  0.88303524  1
  O  O326  1  0.85866231  0.63277782  0.38273084  1
  O  O327  1  0.85751355  0.63455682  0.86018643  1
  O  O328  1  0.09692917  0.39128543  0.13769211  1
  O  O329  1  0.13080651  0.38191707  0.62755497  1
  O  O330  1  0.15108958  0.85711039  0.14625725  1
  O  O331  1  0.09317960  0.82653648  0.65888531  1
  O  O332  1  0.66742852  0.39256568  0.16278580  1
  O  O333  1  0.59154109  0.39180779  0.61176440  1
  O  O334  1  0.61151756  0.88258223  0.13402242  1
  O  O335  1  0.64657321  0.89955080  0.61571452  1
  O  O336  1  0.15976274  0.27158226  0.21782622  1
  O  O337  1  0.11040459  0.25858641  0.72736063  1
  O  O338  1  0.18949423  0.78482538  0.28476586  1
  O  O339  1  0.20239230  0.70979905  0.88760425  1
  O  O340  1  0.58628429  0.24555051  0.21715940  1
  O  O341  1  0.63402336  0.23159345  0.77792821  1
  O  O342  1  0.61513402  0.76303007  0.26112415  1
  O  O343  1  0.61960022  0.78009899  0.76330634  1
  O  O344  1  0.37273608  0.21477964  0.23204221  1
  O  O345  1  0.41791514  0.24702369  0.72702655  1
  O  O346  1  0.39371304  0.75826933  0.24787424  1
  O  O347  1  0.39908909  0.77228622  0.73545249  1
  O  O348  1  0.86857134  0.19692733  0.22745593  1
  O  O349  1  0.89699195  0.22808595  0.75270467  1
  O  O350  1  0.89190085  0.80112526  0.25488392  1
  O  O351  1  0.84623066  0.78022406  0.75698707  1
  O  O352  1  0.37056157  0.53522038  0.49468414  1
  O  O353  1  0.36201147  0.52227520  0.95637779  1
  O  O354  1  0.39895424  0.98281115  0.50746264  1
  O  O355  1  0.38371830  0.97885651  0.98495723  1
  O  O356  1  0.91007292  0.50026112  0.53769802  1
  O  O357  1  0.87826245  0.54058901  0.98106719  1
  O  O358  1  0.85837077  0.99481713  0.46403051  1
  O  O359  1  0.81234183  0.99726774  0.98996039  1
  O  O360  1  0.19584933  0.00844152  -0.01865178  1
  O  O361  1  0.14419948  -0.00553660  0.57632355  1
  O  O362  1  0.13640298  0.51866858  0.00408209  1
  O  O363  1  0.10353852  0.53052515  0.53416692  1
  O  O364  1  0.60872662  0.00130086  0.00593037  1
  O  O365  1  0.61160606  -0.00254977  0.50026216  1
  O  O366  1  0.61144665  0.46671164  0.04543323  1
  O  O367  1  0.57110213  0.49076805  0.46706023  1
  O  O368  1  0.30669322  0.30376961  0.11357829  1
  O  O369  1  0.38747385  0.36490954  0.64213884  1
  O  O370  1  0.37419845  0.87132434  0.10435731  1
  O  O371  1  0.38424184  0.86862553  0.61018720  1
  O  O372  1  0.88709529  0.34758807  0.14966327  1
  O  O373  1  0.93266570  0.46805298  0.59725386  1
  O  O374  1  0.84359388  0.87872009  0.12433613  1
  O  O375  1  0.86579286  0.89996875  0.59299733  1
  O  O376  1  0.16231757  0.05695362  0.40808769  1
  O  O377  1  0.15628271  0.11735242  0.86391805  1
  O  O378  1  0.12813410  0.58152583  0.40102097  1
  O  O379  1  0.10363388  0.55716861  0.94942718  1
  O  O380  1  0.60260504  0.14958383  0.35116562  1
  O  O381  1  0.62462164  0.12621039  0.89744874  1
  O  O382  1  0.63077615  0.65101021  0.37212460  1
  O  O383  1  0.60492625  0.61566295  0.88984308  1
