# generated using pymatgen
data_VZnO4
_symmetry_space_group_name_H-M   'P 1'
_cell_length_a   17.08478515
_cell_length_b   16.94246008
_cell_length_c   17.02431213
_cell_angle_alpha   90.94773284
_cell_angle_beta   90.10165717
_cell_angle_gamma   90.57874414
_symmetry_Int_Tables_number   1
_chemical_formula_structural   VZnO4
_chemical_formula_sum   'V64 Zn64 O256'
_cell_volume   4926.89351364
_cell_formula_units_Z   64
loop_
 _symmetry_equiv_pos_site_id
 _symmetry_equiv_pos_as_xyz
  1  'x, y, z'
loop_
 _atom_site_type_symbol
 _atom_site_label
 _atom_site_symmetry_multiplicity
 _atom_site_fract_x
 _atom_site_fract_y
 _atom_site_fract_z
 _atom_site_occupancy
  V  V0  1  0.70698096  0.24121141  0.50096941  1
  V  V1  1  0.90733323  0.26026592  0.13787987  1
  V  V2  1  0.49463438  0.38159123  0.36495385  1
  V  V3  1  0.73263210  0.02379132  0.77268512  1
  V  V4  1  0.40445876  0.73782400  0.10962973  1
  V  V5  1  0.63658071  0.75097272  0.39778335  1
  V  V6  1  0.36780462  0.87754252  0.51334596  1
  V  V7  1  0.61175957  0.26046446  0.34312252  1
  V  V8  1  -0.00238586  -0.00049670  0.01330179  1
  V  V9  1  0.13685723  0.48842057  0.59335243  1
  V  V10  1  0.14732340  0.25704259  0.35826137  1
  V  V11  1  0.37789411  0.36560477  0.50746539  1
  V  V12  1  0.48241793  0.88155234  0.87712320  1
  V  V13  1  0.51368087  0.50267875  0.50264720  1
  V  V14  1  0.72983505  0.12215817  0.34566222  1
  V  V15  1  0.12476234  -0.00979402  0.13276556  1
  V  V16  1  0.13411286  0.51382796  0.12210887  1
  V  V17  1  0.49769645  0.12625965  0.13323925  1
  V  V18  1  0.75660076  0.60713866  0.39861130  1
  V  V19  1  0.62731858  0.87821880  0.75847675  1
  V  V20  1  0.89189758  0.12872406  0.25973169  1
  V  V21  1  0.02339908  0.00794961  0.49998761  1
  V  V22  1  0.23791719  0.52921110  0.27861588  1
  V  V23  1  0.36056035  0.39180447  -0.00921924  1
  V  V24  1  0.13967536  0.23088815  0.89425648  1
  V  V25  1  0.87448258  0.48667743  0.85608455  1
  V  V26  1  0.09506914  0.87079751  0.26676684  1
  V  V27  1  0.60543504  -0.02976002  0.12255884  1
  V  V28  1  0.36045033  0.11865649  0.78901323  1
  V  V29  1  0.49941400  0.01032550  0.50447829  1
  V  V30  1  0.49356912  0.15178379  0.64064523  1
  V  V31  1  0.88512444  0.85867461  -0.03807040  1
  V  V32  1  0.26611536  -0.02421653  0.25638642  1
  V  V33  1  0.62609454  0.86960382  0.25947823  1
  V  V34  1  0.48963018  0.87831108  0.38141158  1
  V  V35  1  0.61185744  0.52039319  0.13708544  1
  V  V36  1  0.73204926  0.36449312  0.62705358  1
  V  V37  1  0.88152689  0.89483090  0.48433544  1
  V  V38  1  0.26602490  0.12274212  0.38276630  1
  V  V39  1  0.01577149  0.37022291  0.88358705  1
  V  V40  1  0.66018940  0.61997220  -0.01766212  1
  V  V41  1  0.61857679  0.25319660  0.90343509  1
  V  V42  1  0.46784615  -0.00683776  0.00209050  1
  V  V43  1  0.76704984  0.86389820  0.11548129  1
  V  V44  1  0.14144524  0.14047630  0.51254341  1
  V  V45  1  0.36048082  0.74320599  0.62204325  1
  V  V46  1  0.37522183  0.14709886  0.24936897  1
  V  V47  1  0.62452239  0.02122095  0.62083734  1
  V  V48  1  0.20639210  0.75854968  -0.00613515  1
  V  V49  1  0.26789687  0.34662442  0.64628724  1
  V  V50  1  0.25458824  0.24506221  0.03573004  1
  V  V51  1  0.75269237  0.89897450  0.61757516  1
  V  V52  1  0.86739766  0.73973312  0.62774515  1
  V  V53  1  0.52928121  0.62622258  0.62673734  1
  V  V54  1  0.13120378  0.76850425  0.40771121  1
  V  V55  1  0.00771371  0.22698361  0.76255644  1
  V  V56  1  0.91545730  0.24461271  0.58571036  1
  V  V57  1  0.00751470  0.51835730  0.00497507  1
  V  V58  1  0.75930026  0.40536245  0.13605813  1
  V  V59  1  0.10488551  0.75980787  0.77809653  1
  V  V60  1  0.49024955  0.72376812  0.27220047  1
  V  V61  1  0.87164373  0.12591258  0.80745043  1
  V  V62  1  0.49553826  0.75567942  0.74394174  1
  V  V63  1  -0.00848305  0.58135055  0.62524107  1
  Zn  Zn64  1  0.19109477  0.17205195  0.18776909  1
  Zn  Zn65  1  0.19497105  0.16826794  0.70814242  1
  Zn  Zn66  1  0.22930232  0.66459488  0.14821749  1
  Zn  Zn67  1  0.15270384  0.69639342  0.59814428  1
  Zn  Zn68  1  0.70638931  0.14039094  0.13309711  1
  Zn  Zn69  1  0.70261448  0.21942631  0.71702713  1
  Zn  Zn70  1  0.71124766  0.67266286  0.20097520  1
  Zn  Zn71  1  0.70085150  0.70552870  0.67961797  1
  Zn  Zn72  1  0.30871843  0.32934520  0.31725609  1
  Zn  Zn73  1  0.32481356  0.30339174  0.82303521  1
  Zn  Zn74  1  0.30688186  0.79343852  0.32657686  1
  Zn  Zn75  1  0.28135444  0.83251441  0.82870082  1
  Zn  Zn76  1  0.80046780  0.30801443  0.30328380  1
  Zn  Zn77  1  0.84544908  0.33710317  0.78277734  1
  Zn  Zn78  1  0.83140821  0.74978805  0.33611154  1
  Zn  Zn79  1  0.86122529  0.88964781  0.75922640  1
  Zn  Zn80  1  0.20562957  0.42895424  0.43685347  1
  Zn  Zn81  1  0.18215943  0.42780389  0.95204019  1
  Zn  Zn82  1  0.19459500  0.94614728  0.43777391  1
  Zn  Zn83  1  0.11295686  0.88047098  0.93027280  1
  Zn  Zn84  1  0.68838174  0.42884523  0.43993824  1
  Zn  Zn85  1  0.69632365  0.44114271  0.95261728  1
  Zn  Zn86  1  0.68373955  0.94402373  0.43670948  1
  Zn  Zn87  1  0.72011505  0.99172375  0.98265132  1
  Zn  Zn88  1  0.30203433  0.05490627  0.07773165  1
  Zn  Zn89  1  0.32014417  0.06570103  0.57288853  1
  Zn  Zn90  1  0.30726669  0.59021813  0.01839819  1
  Zn  Zn91  1  0.33837119  0.54850877  0.59306064  1
  Zn  Zn92  1  0.85653391  0.08661568  0.06084740  1
  Zn  Zn93  1  0.85111296  0.11320240  0.48484861  1
  Zn  Zn94  1  0.81908063  0.54770155  0.03659475  1
  Zn  Zn95  1  0.80432292  0.55681380  0.58813086  1
  Zn  Zn96  1  0.43614534  0.46571275  0.18721642  1
  Zn  Zn97  1  0.44572897  0.43910698  0.68106240  1
  Zn  Zn98  1  0.43203299  0.91324699  0.18739470  1
  Zn  Zn99  1  0.43475334  0.94300356  0.68810041  1
  Zn  Zn100  1  0.87421753  0.36212576  0.00041840  1
  Zn  Zn101  1  0.96617903  0.40451017  0.67350196  1
  Zn  Zn102  1  0.93566259  0.94275857  0.19984565  1
  Zn  Zn103  1  0.88701484  1.04126909  0.64355859  1
  Zn  Zn104  1  0.07456907  0.06103196  0.32368232  1
  Zn  Zn105  1  0.06289609  0.05432466  0.84671008  1
  Zn  Zn106  1  0.11349345  0.65267240  0.26161714  1
  Zn  Zn107  1  0.04123938  0.57195349  0.80880760  1
  Zn  Zn108  1  0.55574141  0.05792486  0.31016010  1
  Zn  Zn109  1  0.52598256  0.05407877  0.80317374  1
  Zn  Zn110  1  0.58299987  0.56057841  0.33186851  1
  Zn  Zn111  1  0.54546159  0.57789136  0.83055327  1
  Zn  Zn112  1  0.44455813  0.19236013  0.43311210  1
  Zn  Zn113  1  0.42601459  0.18851298  0.96188588  1
  Zn  Zn114  1  0.45628505  0.69730188  0.46183373  1
  Zn  Zn115  1  0.49657484  0.69465025  0.94331259  1
  Zn  Zn116  1  0.98314659  0.19661070  0.40512016  1
  Zn  Zn117  1  0.95661599  0.18994249  0.96008182  1
  Zn  Zn118  1  0.93627238  0.69545032  0.47177294  1
  Zn  Zn119  1  0.95265361  0.68090256  0.90163618  1
  Zn  Zn120  1  0.07749569  0.32590094  0.07099037  1
  Zn  Zn121  1  0.09317516  0.32827762  0.54150291  1
  Zn  Zn122  1  0.04654349  0.80546218  0.08342944  1
  Zn  Zn123  1  0.05373902  0.83505904  0.58843160  1
  Zn  Zn124  1  0.60888962  0.30203101  0.13238241  1
  Zn  Zn125  1  0.56166589  0.31937312  0.55656035  1
  Zn  Zn126  1  0.60239637  0.75186795  0.10261291  1
  Zn  Zn127  1  0.56451548  0.82898408  0.57144165  1
  O  O128  1  0.12490838  0.09094643  0.14326555  1
  O  O129  1  0.14625071  0.13136880  0.61044476  1
  O  O130  1  0.11523178  0.62705974  0.15133638  1
  O  O131  1  0.09195464  0.59764124  0.57987290  1
  O  O132  1  0.59868164  0.08406044  0.13964597  1
  O  O133  1  0.60724589  0.11986248  0.62469444  1
  O  O134  1  0.64705573  0.62373163  0.12067772  1
  O  O135  1  0.62764505  0.63333885  0.62977607  1
  O  O136  1  0.38804528  0.37797739  0.39157761  1
  O  O137  1  0.38363282  0.36977997  0.89484752  1
  O  O138  1  0.38716536  0.86455321  0.39631319  1
  O  O139  1  0.38672280  0.87895297  0.84825346  1
  O  O140  1  0.89592856  0.36527651  0.35485671  1
  O  O141  1  0.89721489  0.36698686  0.88441988  1
  O  O142  1  0.87540675  0.85658007  0.39318340  1
  O  O143  1  0.88605157  0.89360861  0.86862359  1
  O  O144  1  0.25074429  0.01180820  0.36137898  1
  O  O145  1  0.27898279  -0.04023917  0.70117962  1
  O  O146  1  0.22832142  0.52103447  0.37731743  1
  O  O147  1  0.23554708  0.49564098  0.86735031  1
  O  O148  1  0.72010005  0.02511626  0.36776433  1
  O  O149  1  0.72831247  0.00917662  0.86965795  1
  O  O150  1  0.74799837  0.50759081  0.37942009  1
  O  O151  1  0.77668585  0.47566186  0.87604847  1
  O  O152  1  0.22969847  0.53859738  0.09907545  1
  O  O153  1  0.22703460  0.53365925  0.59695012  1
  O  O154  1  0.23991761  0.98817994  0.15103544  1
  O  O155  1  0.24962983  0.98837367  0.63432937  1
  O  O156  1  0.78205167  0.50534755  0.13575756  1
  O  O157  1  0.76533956  0.45861209  0.62654685  1
  O  O158  1  0.71417948  0.95384753  0.12843335  1
  O  O159  1  0.72902142  1.01501081  0.63782637  1
  O  O160  1  -0.04883238  0.36965158  0.29587390  1
  O  O161  1  0.00020147  0.33456396  0.76831367  1
  O  O162  1  -0.00269343  0.88120389  0.27336533  1
  O  O163  1  0.06762709  0.96399398  0.70750268  1
  O  O164  1  0.48361246  0.39739017  0.26813981  1
  O  O165  1  0.51305563  0.41799965  0.77533841  1
  O  O166  1  0.49156542  0.86535673  0.27729352  1
  O  O167  1  0.51294043  0.87279801  0.74083250  1
  O  O168  1  0.48129261  0.11656429  0.24532462  1
  O  O169  1  0.51431890  0.14673676  0.73957868  1
  O  O170  1  0.49887277  0.62759763  0.29006224  1
  O  O171  1  0.51442631  0.64753436  0.73970141  1
  O  O172  1  0.98742973  0.13931663  0.29946610  1
  O  O173  1  0.97870197  0.11769248  0.79730448  1
  O  O174  1  0.95242483  0.73866153  0.20485376  1
  O  O175  1  0.97564541  0.60527713  0.71904853  1
  O  O176  1  0.35731763  0.26268653  0.01187610  1
  O  O177  1  0.38772171  0.26571189  0.49995930  1
  O  O178  1  0.42150404  0.74230547  0.01241310  1
  O  O179  1  0.38094816  0.76480111  0.51577275  1
  O  O180  1  0.89011248  0.24646563  0.03164035  1
  O  O181  1  0.90517898  0.22715161  0.48240801  1
  O  O182  1  0.88569717  0.75907632  -0.05211412  1
  O  O183  1  0.87844746  0.79305028  0.53534282  1
  O  O184  1  0.15539023  0.24244992  0.49787975  1
  O  O185  1  0.14344782  0.25787125  1.00170232  1
  O  O186  1  0.12045440  0.77250499  0.51227144  1
  O  O187  1  0.10203246  0.77206852  0.98858049  1
  O  O188  1  0.60885757  0.24336611  0.48005274  1
  O  O189  1  0.61691049  0.25928751  1.00906300  1
  O  O190  1  0.61713318  0.76175861  0.49546510  1
  O  O191  1  0.59863525  0.70672207  0.99830557  1
  O  O192  1  0.51685059  0.22228365  0.12667750  1
  O  O193  1  0.50371843  0.24859950  0.62101638  1
  O  O194  1  0.49932977  0.72552581  0.16019268  1
  O  O195  1  0.51042650  0.74535315  0.63199402  1
  O  O196  1  1.00490143  0.27707899  0.14361141  1
  O  O197  1  0.99466837  0.20844125  0.66528594  1
  O  O198  1  0.96696787  0.72705218  0.12732636  1
  O  O199  1  0.95177923  0.67885379  0.58436959  1
  O  O200  1  0.05636058  0.28369028  0.39396985  1
  O  O201  1  0.01886543  0.25030835  0.88808682  1
  O  O202  1  0.02240952  0.72069353  0.39335055  1
  O  O203  1  0.04797724  0.68837647  0.83256575  1
  O  O204  1  0.50282163  0.26769375  0.36747946  1
  O  O205  1  0.51348531  0.25216961  0.91096162  1
  O  O206  1  0.50922211  0.76002848  0.38350597  1
  O  O207  1  0.50064203  0.77022595  0.85136869  1
  O  O208  1  0.25581858  0.10969731  0.48852208  1
  O  O209  1  0.25439620  0.14344917  1.02721689  1
  O  O210  1  0.30711685  0.61723577  0.46087337  1
  O  O211  1  0.24528811  0.66890942  0.96471695  1
  O  O212  1  0.74216362  0.14760542  0.46924171  1
  O  O213  1  0.74884761  0.08400931  1.04386436  1
  O  O214  1  0.75255130  0.60696036  0.50019004  1
  O  O215  1  0.75995821  0.63241722  0.99478738  1
  O  O216  1  0.25741835  0.36450939  0.00533295  1
  O  O217  1  0.27602702  0.38012754  0.51418847  1
  O  O218  1  0.23236204  0.84204960  -0.06617609  1
  O  O219  1  0.27106766  0.88791696  0.49891238  1
  O  O220  1  0.76498074  0.38872502  0.02579517  1
  O  O221  1  0.73958441  0.34636586  0.50560340  1
  O  O222  1  0.78465019  0.87849175  0.00888347  1
  O  O223  1  0.76060043  0.90168308  0.51351060  1
  O  O224  1  0.14494102  0.50892084  0.23829526  1
  O  O225  1  0.05038863  0.48492622  0.65807851  1
  O  O226  1  0.12927050  0.98093805  0.25845882  1
  O  O227  1  0.11525809  1.01420683  0.74814833  1
  O  O228  1  0.62849747  0.52191120  0.23650104  1
  O  O229  1  0.57016351  0.46892626  0.78264537  1
  O  O230  1  0.60250342  0.97395444  0.24524592  1
  O  O231  1  0.62273857  1.00764560  0.74474584  1
  O  O232  1  0.36529979  -0.01500744  0.24851777  1
  O  O233  1  0.41592630  0.02856451  0.76001653  1
  O  O234  1  0.34383129  0.49723944  0.24917350  1
  O  O235  1  0.35591565  0.50793681  0.70871000  1
  O  O236  1  0.87947326  0.03027855  0.24217754  1
  O  O237  1  0.85019254  0.02517390  0.75910685  1
  O  O238  1  0.90939450  0.51952825  0.25975636  1
  O  O239  1  0.88707988  0.44888738  0.75642337  1
  O  O240  1  0.19712554  0.35082114  0.35295046  1
  O  O241  1  0.11838138  0.35925306  0.87737788  1
  O  O242  1  0.12157424  0.87281067  0.38349780  1
  O  O243  1  0.08312661  0.84823709  0.81905139  1
  O  O244  1  0.60687617  0.36967222  0.37530559  1
  O  O245  1  0.62649127  0.35776692  0.90527738  1
  O  O246  1  0.61140180  0.87232061  0.37481236  1
  O  O247  1  0.60634592  0.88815990  0.85507912  1
  O  O248  1  0.38290264  0.12020943  0.14303860  1
  O  O249  1  0.39434462  0.12740966  0.63122208  1
  O  O250  1  0.34294496  0.65343174  0.11782219  1
  O  O251  1  0.39738636  0.64655848  0.61734781  1
  O  O252  1  0.90037945  0.14536877  0.14623117  1
  O  O253  1  0.86833300  0.14686744  0.60422249  1
  O  O254  1  0.93041872  0.58517790  0.23888967  1
  O  O255  1  0.80741318  0.65702506  0.65188458  1
  O  O256  1  0.24331322  0.25883627  0.13438131  1
  O  O257  1  0.25264569  0.24917745  0.64351287  1
  O  O258  1  0.22681835  0.76767208  0.09146236  1
  O  O259  1  0.26312927  0.72820788  0.62072685  1
  O  O260  1  0.70979040  0.25239127  0.11978516  1
  O  O261  1  0.70943531  0.23641220  0.60309547  1
  O  O262  1  0.72359948  0.77017903  0.12682503  1
  O  O263  1  0.76172745  0.79539062  0.63387883  1
  O  O264  1  0.26236842  0.22620022  0.37462906  1
  O  O265  1  0.23595476  0.25048120  0.87610982  1
  O  O266  1  0.22776848  0.74862529  0.39528276  1
  O  O267  1  0.20418047  0.75084543  0.79011577  1
  O  O268  1  0.72033888  0.25537450  0.36830651  1
  O  O269  1  0.71947147  0.23945639  0.90955683  1
  O  O270  1  0.73117832  0.77845928  0.39275508  1
  O  O271  1  0.76427995  0.73577432  0.84383868  1
  O  O272  1  0.00690175  0.09995700  0.00811684  1
  O  O273  1  0.03899814  0.13184939  0.48970799  1
  O  O274  1  -0.00106869  0.61518163  -0.01643988  1
  O  O275  1  -0.00942484  0.54674793  0.42156699  1
  O  O276  1  0.48289260  0.10161127  0.02362853  1
  O  O277  1  0.49283285  0.11183299  0.50262294  1
  O  O278  1  0.46929418  0.59295337  -0.09294358  1
  O  O279  1  0.51096829  0.61492199  0.51451977  1
  O  O280  1  0.49487157  0.38511171  0.49487449  1
  O  O281  1  0.46110038  0.38327616  1.04444876  1
  O  O282  1  0.49451446  0.88512380  0.49736319  1
  O  O283  1  0.48266172  0.87917991  0.97805006  1
  O  O284  1  0.99114605  0.32825142  0.58446878  1
  O  O285  1  1.00792676  0.38004983  0.98978582  1
  O  O286  1  0.98979996  0.89688826  0.51256557  1
  O  O287  1  0.97567220  0.87039633  1.01426538  1
  O  O288  1  0.50877420  0.49441064  0.39346755  1
  O  O289  1  0.36157980  0.56552153  0.77437657  1
  O  O290  1  0.50491463  0.98864255  0.39262015  1
  O  O291  1  0.49858649  0.99463935  0.89625410  1
  O  O292  1  1.01178259  0.41059116  0.31050155  1
  O  O293  1  1.00926291  0.47794612  0.86849025  1
  O  O294  1  1.00418022  1.01158113  0.39991889  1
  O  O295  1  1.03971484  0.97182939  0.91839933  1
  O  O296  1  0.01136985  -0.01485524  0.12267863  1
  O  O297  1  -0.01278597  0.03306130  0.59220202  1
  O  O298  1  0.01165604  0.51702668  0.10496792  1
  O  O299  1  -0.08333888  0.52295652  0.58757888  1
  O  O300  1  0.49084650  -0.02066363  0.11289475  1
  O  O301  1  0.51073538  0.00229449  0.61672678  1
  O  O302  1  0.51243802  0.52280244  0.12933016  1
  O  O303  1  0.51150135  0.52149821  0.62856190  1
  O  O304  1  0.28772955  0.43055738  0.24259054  1
  O  O305  1  0.27707664  0.36892089  0.74266075  1
  O  O306  1  0.25107605  0.87704277  0.27218430  1
  O  O307  1  0.24041170  0.89793685  0.72896503  1
  O  O308  1  0.74994325  0.37857747  0.23265507  1
  O  O309  1  0.74739795  0.32911313  0.72815526  1
  O  O310  1  0.72231305  0.86615182  0.25295596  1
  O  O311  1  0.73768506  0.90704014  0.74772223  1
  O  O312  1  0.27059571  0.11324623  0.25712365  1
  O  O313  1  0.26261812  0.10212968  0.76613602  1
  O  O314  1  0.24054364  0.63216259  0.26203626  1
  O  O315  1  0.19294273  0.49674268  0.80180597  1
  O  O316  1  0.74052061  0.12661716  0.24494868  1
  O  O317  1  0.75210822  0.12949754  0.76609734  1
  O  O318  1  0.76311072  0.65514246  0.29360167  1
  O  O319  1  0.75201433  0.67687499  0.80137244  1
  O  O320  1  0.37484713  0.12563357  0.36344544  1
  O  O321  1  0.37366738  0.11767733  0.88935151  1
  O  O322  1  0.35977759  0.62941286  0.41129510  1
  O  O323  1  0.31276923  0.62015022  0.77273384  1
  O  O324  1  0.84112365  0.13736859  0.35672421  1
  O  O325  1  0.86346727  0.12570172  0.90473287  1
  O  O326  1  0.85777035  0.65501230  0.40234478  1
  O  O327  1  0.89405215  0.58651397  0.85423632  1
  O  O328  1  0.13101467  0.41247755  0.12332917  1
  O  O329  1  0.16783146  0.38863552  0.62915816  1
  O  O330  1  0.10753169  0.87006813  0.16092051  1
  O  O331  1  0.10355344  0.93059649  0.64741242  1
  O  O332  1  0.64478908  0.41365627  0.12168322  1
  O  O333  1  0.63243461  0.37393451  0.62842240  1
  O  O334  1  0.59208352  0.86247721  0.14961847  1
  O  O335  1  0.63746857  0.89669769  0.63303152  1
  O  O336  1  0.13185534  0.23386393  0.26312660  1
  O  O337  1  0.11204171  0.21761697  0.77422093  1
  O  O338  1  0.11617787  0.76915989  0.28113845  1
  O  O339  1  0.08485794  0.76000062  0.67314223  1
  O  O340  1  0.60762758  0.27200678  0.24725240  1
  O  O341  1  0.61898290  0.25691006  0.79999658  1
  O  O342  1  0.60583252  0.75694807  0.27333028  1
  O  O343  1  0.62739593  0.77503426  0.74206742  1
  O  O344  1  0.36903108  0.24556496  0.25270440  1
  O  O345  1  0.37668531  0.21816280  0.76979908  1
  O  O346  1  0.39044901  0.73667183  0.27720515  1
  O  O347  1  0.39388044  0.76068399  0.72995040  1
  O  O348  1  0.86918355  0.24136932  0.24082011  1
  O  O349  1  0.88477381  0.22532176  0.77796082  1
  O  O350  1  0.87750604  0.73072541  0.22427560  1
  O  O351  1  0.90269216  0.78818658  0.70850718  1
  O  O352  1  0.40179387  0.48694188  0.52070795  1
  O  O353  1  0.35124315  0.49259366  0.99015793  1
  O  O354  1  0.39199666  0.98792515  0.51574415  1
  O  O355  1  0.37042671  0.98996247  1.00896269  1
  O  O356  1  0.93787354  0.49720592  0.41966638  1
  O  O357  1  0.89924917  0.48987625  0.98178493  1
  O  O358  1  0.87435918  0.99820398  0.48281612  1
  O  O359  1  0.89603066  0.99306326  1.00392810  1
  O  O360  1  0.13197095  -0.03386827  0.03509237  1
  O  O361  1  0.12790909  0.01135745  0.50401589  1
  O  O362  1  0.11484427  0.50665989  0.00039812  1
  O  O363  1  0.11141043  0.44583181  0.50168356  1
  O  O364  1  0.60880929  -0.02775347  0.02107920  1
  O  O365  1  0.61297092  0.00005194  0.51369733  1
  O  O366  1  0.63582753  0.52081918  0.01197608  1
  O  O367  1  0.61183956  0.48678442  0.50868713  1
  O  O368  1  0.40553679  0.38373181  0.10352929  1
  O  O369  1  0.37608326  0.36924952  0.62208808  1
  O  O370  1  0.37276834  0.82902588  0.13904005  1
  O  O371  1  0.37871758  0.86572464  0.61983926  1
  O  O372  1  0.86257836  0.35623604  0.13392093  1
  O  O373  1  0.84811825  0.30924308  0.61910681  1
  O  O374  1  0.85809127  0.87219723  0.15247222  1
  O  O375  1  0.85231549  0.92447908  0.64045127  1
  O  O376  1  0.15130926  0.13518460  0.38014542  1
  O  O377  1  0.13051482  0.13166533  0.89927904  1
  O  O378  1  0.08496768  0.66316894  0.38236502  1
  O  O379  1  0.15675307  0.56567097  0.78831526  1
  O  O380  1  0.61946409  0.14701776  0.35008554  1
  O  O381  1  0.60888294  0.14857577  0.89982633  1
  O  O382  1  0.64591584  0.64172594  0.38939890  1
  O  O383  1  0.64432951  0.60660309  0.88278842  1
