# generated using pymatgen
data_VZnO4
_symmetry_space_group_name_H-M   'P 1'
_cell_length_a   16.92494716
_cell_length_b   16.94956997
_cell_length_c   17.01941810
_cell_angle_alpha   89.98311724
_cell_angle_beta   89.88549209
_cell_angle_gamma   90.63411053
_symmetry_Int_Tables_number   1
_chemical_formula_structural   VZnO4
_chemical_formula_sum   'V64 Zn64 O256'
_cell_volume   4882.06127453
_cell_formula_units_Z   64
loop_
 _symmetry_equiv_pos_site_id
 _symmetry_equiv_pos_as_xyz
  1  'x, y, z'
loop_
 _atom_site_type_symbol
 _atom_site_label
 _atom_site_symmetry_multiplicity
 _atom_site_fract_x
 _atom_site_fract_y
 _atom_site_fract_z
 _atom_site_occupancy
  V  V0  1  0.24801971  0.61083689  0.90884728  1
  V  V1  1  0.88303109  0.74177087  0.13488489  1
  V  V2  1  0.36171046  0.87458980  -0.01463418  1
  V  V3  1  0.53181017  0.86560480  0.87344216  1
  V  V4  1  0.23502858  0.25809970  0.00464553  1
  V  V5  1  0.51162101  0.61587818  0.61257766  1
  V  V6  1  0.62640500  0.63204780  -0.01428007  1
  V  V7  1  0.10537243  0.77846501  0.87370605  1
  V  V8  1  0.02075915  0.61656849  0.62305736  1
  V  V9  1  0.00191766  0.36856158  0.86065081  1
  V  V10  1  0.14161587  0.73781778  0.36841008  1
  V  V11  1  0.24344155  0.88789948  0.13167519  1
  V  V12  1  0.73525093  0.15618577  0.37057401  1
  V  V13  1  0.76611143  0.88262095  0.11171065  1
  V  V14  1  0.47473699  0.87513020  0.35154977  1
  V  V15  1  0.25565161  0.12279191  0.36820733  1
  V  V16  1  0.87185374  0.13042297  0.24784218  1
  V  V17  1  0.48479083  0.25740348  0.25748103  1
  V  V18  1  0.00264266  0.49904387  -0.00676705  1
  V  V19  1  0.48498680  0.13771434  0.12592571  1
  V  V20  1  0.35834647  0.73854529  0.12071406  1
  V  V21  1  0.37194390  0.91011374  0.53423363  1
  V  V22  1  0.37648802  0.63025759  0.75322887  1
  V  V23  1  0.86891058  0.35749791  0.01940934  1
  V  V24  1  0.62701589  0.37556957  0.26473738  1
  V  V25  1  0.60754081  0.14175346  0.50026000  1
  V  V26  1  0.10439785  -0.02012048  0.61037540  1
  V  V27  1  0.13807200  0.61177011  0.49995795  1
  V  V28  1  0.60507445  0.00111982  0.12390617  1
  V  V29  1  0.62958376  0.37260032  0.73583562  1
  V  V30  1  0.50672550  0.47608926  -0.00150426  1
  V  V31  1  0.51036447  0.64175950  0.12573988  1
  V  V32  1  0.62388774  0.86493951  0.24103861  1
  V  V33  1  0.12389326  0.38065030  0.24007752  1
  V  V34  1  0.88576891  0.50869093  0.40193970  1
  V  V35  1  0.26282115  0.75208202  0.51829709  1
  V  V36  1  0.76595572  0.51333537  0.24536300  1
  V  V37  1  0.02659461  0.88016270  0.37358958  1
  V  V38  1  0.60489294  0.25663237  0.87065760  1
  V  V39  1  0.87091219  0.13214159  0.72037168  1
  V  V40  1  0.24192211  0.49517276  0.75325546  1
  V  V41  1  0.83272605  -0.00164757  0.37513369  1
  V  V42  1  0.88947142  0.75708335  0.62819791  1
  V  V43  1  0.53100890  0.74288573  0.75313728  1
  V  V44  1  0.38806954  0.38795022  0.49956550  1
  V  V45  1  0.77096455  0.74527252  -0.01644160  1
  V  V46  1  0.38854760  0.48136699  0.87468412  1
  V  V47  1  0.63271261  -0.00306925  0.59929658  1
  V  V48  1  -0.00878781  0.25299862  0.22890137  1
  V  V49  1  0.00003008  0.61501495  0.14147424  1
  V  V50  1  0.24881213  0.25365746  0.49732401  1
  V  V51  1  0.38667864  0.25232128  0.63930890  1
  V  V52  1  0.63657398  0.49615122  0.12286721  1
  V  V53  1  0.63261433  0.12118858  -0.00400434  1
  V  V54  1  0.74958652  0.12739921  0.85386741  1
  V  V55  1  0.75659477  0.26447999  0.52013332  1
  V  V56  1  0.10480975  0.25646785  0.38300588  1
  V  V57  1  0.89592852  0.61199170  0.74891706  1
  V  V58  1  0.00307071  0.14082169  0.60869609  1
  V  V59  1  0.24105303  0.38580188  0.62655086  1
  V  V60  1  0.76043171  0.60615120  0.86232509  1
  V  V61  1  0.36356136  0.52302029  0.38693346  1
  V  V62  1  0.12514427  0.23618308  0.86189367  1
  V  V63  1  0.73457640  0.63486132  0.39000695  1
  Zn  Zn64  1  0.21232729  0.23262004  0.20905566  1
  Zn  Zn65  1  0.16941450  0.20241543  0.66629300  1
  Zn  Zn66  1  0.19312906  0.64442090  0.18640706  1
  Zn  Zn67  1  0.19282612  0.69868836  0.70200630  1
  Zn  Zn68  1  0.68310895  0.19122040  0.18712044  1
  Zn  Zn69  1  0.67278147  0.19227339  0.68511381  1
  Zn  Zn70  1  0.69538558  0.68876874  0.17455759  1
  Zn  Zn71  1  0.69591768  0.67785007  0.66681756  1
  Zn  Zn72  1  0.31324881  0.33017941  0.31713546  1
  Zn  Zn73  1  0.30409748  0.30690144  0.81510435  1
  Zn  Zn74  1  0.30063723  0.78956841  0.29991879  1
  Zn  Zn75  1  0.28849093  0.78728424  0.83606644  1
  Zn  Zn76  1  0.81905821  0.32853707  0.30310239  1
  Zn  Zn77  1  0.80620067  0.31055948  0.80821714  1
  Zn  Zn78  1  0.79913618  0.81099490  0.30103635  1
  Zn  Zn79  1  0.78555393  0.77323427  0.77142171  1
  Zn  Zn80  1  0.19334735  0.43514336  0.42966558  1
  Zn  Zn81  1  0.18482457  0.42809387  0.94198723  1
  Zn  Zn82  1  0.20182694  0.92941371  0.43551936  1
  Zn  Zn83  1  0.14168021  0.89167804  0.98990420  1
  Zn  Zn84  1  0.73130217  0.42180563  0.41401536  1
  Zn  Zn85  1  0.69500056  0.42826469  0.93419332  1
  Zn  Zn86  1  0.61879357  0.99791251  0.38073852  1
  Zn  Zn87  1  0.73954734  0.91788925  0.90396562  1
  Zn  Zn88  1  0.32083251  0.05263058  0.06087893  1
  Zn  Zn89  1  0.30002852  0.07901787  0.57804476  1
  Zn  Zn90  1  0.33406388  0.54738947  0.06814584  1
  Zn  Zn91  1  0.32034889  0.56852756  0.57270211  1
  Zn  Zn92  1  0.82095190  0.08126620  0.05256449  1
  Zn  Zn93  1  0.80200006  0.06788401  0.54641151  1
  Zn  Zn94  1  0.82340515  0.55696105  0.05162187  1
  Zn  Zn95  1  0.84160996  0.61433145  0.53259263  1
  Zn  Zn96  1  0.45153131  0.44539474  0.18922981  1
  Zn  Zn97  1  0.44283837  0.43504417  0.68709386  1
  Zn  Zn98  1  0.42732316  0.92614802  0.18127649  1
  Zn  Zn99  1  0.45560916  0.94649756  0.72703189  1
  Zn  Zn100  1  0.94325904  0.43376021  0.18368158  1
  Zn  Zn101  1  0.94738634  0.44619201  0.68715433  1
  Zn  Zn102  1  0.92546982  0.93215209  0.21200192  1
  Zn  Zn103  1  0.91197591  0.95482341  0.68071375  1
  Zn  Zn104  1  0.07438034  0.06953028  0.44070525  1
  Zn  Zn105  1  0.04772327  0.07915581  0.80158819  1
  Zn  Zn106  1  0.06505910  0.55650192  0.32283630  1
  Zn  Zn107  1  0.06749252  0.55642997  0.82504931  1
  Zn  Zn108  1  0.43623696  0.06273628  0.31041583  1
  Zn  Zn109  1  0.60608973  0.01948470  0.83755809  1
  Zn  Zn110  1  0.56459713  0.57085007  0.30777524  1
  Zn  Zn111  1  0.56438309  0.55731849  0.81175977  1
  Zn  Zn112  1  0.42810891  0.20198977  0.43793964  1
  Zn  Zn113  1  0.44567503  0.17236285  0.93551968  1
  Zn  Zn114  1  0.44517420  0.70144568  0.43841618  1
  Zn  Zn115  1  0.43200686  0.69142677  0.93404756  1
  Zn  Zn116  1  0.91914358  0.18387488  0.44072432  1
  Zn  Zn117  1  0.90983334  0.22455161  0.90771968  1
  Zn  Zn118  1  0.94431071  0.70763679  0.42965830  1
  Zn  Zn119  1  0.94653942  0.68334485  0.92760784  1
  Zn  Zn120  1  0.06088871  0.31327240  0.05256514  1
  Zn  Zn121  1  0.06475944  0.32362220  0.56314989  1
  Zn  Zn122  1  0.10035738  0.75109547  0.08237576  1
  Zn  Zn123  1  0.05768415  0.79636703  0.54783033  1
  Zn  Zn124  1  0.59186251  0.29751611  0.07311076  1
  Zn  Zn125  1  0.56518567  0.31757509  0.55719116  1
  Zn  Zn126  1  0.57338343  0.81653200  0.04459222  1
  Zn  Zn127  1  0.50564517  0.83363795  0.59062685  1
  O  O128  1  0.11890800  0.07820477  0.17144368  1
  O  O129  1  0.10634075  0.12248236  0.61702627  1
  O  O130  1  0.10230906  0.64078948  0.11810968  1
  O  O131  1  0.12408258  0.63466041  0.63228501  1
  O  O132  1  0.62211534  0.11290064  0.11896682  1
  O  O133  1  0.62901691  0.12142285  0.60327613  1
  O  O134  1  0.62349728  0.61824758  0.10617180  1
  O  O135  1  0.61253308  0.61706193  0.63049602  1
  O  O136  1  0.37045516  0.38689899  0.39701041  1
  O  O137  1  0.37496677  0.38383122  0.87166108  1
  O  O138  1  0.37634817  0.87497787  0.33818569  1
  O  O139  1  0.36038760  0.86348815  0.88298117  1
  O  O140  1  0.85013115  0.40907068  0.37748926  1
  O  O141  1  0.89134991  0.34523060  0.87962202  1
  O  O142  1  0.83379001  0.89844179  0.36279223  1
  O  O143  1  0.89624389  0.87487305  0.84430090  1
  O  O144  1  0.23447576  0.02513230  0.38003193  1
  O  O145  1  0.25716761  0.02168929  0.86718857  1
  O  O146  1  0.26673886  0.50094883  0.36672588  1
  O  O147  1  0.26388121  0.49333182  0.86656284  1
  O  O148  1  0.73395186  0.02460871  0.37245168  1
  O  O149  1  0.71980784  0.02106500  0.86551954  1
  O  O150  1  0.75898678  0.52321399  0.35941762  1
  O  O151  1  0.75326774  0.50871155  0.87613616  1
  O  O152  1  0.28693116  0.48679518  0.20296925  1
  O  O153  1  0.25959493  0.49310144  0.64045430  1
  O  O154  1  0.24572833  0.98812637  0.12070899  1
  O  O155  1  0.22161146  1.01243157  0.64292542  1
  O  O156  1  0.74155906  0.51254537  0.12855151  1
  O  O157  1  0.75214233  0.47697890  0.64026517  1
  O  O158  1  0.77052034  0.98082164  0.09633809  1
  O  O159  1  0.73393803  0.99337080  0.60367298  1
  O  O160  1  0.00424227  0.36105465  0.24950353  1
  O  O161  1  -0.00476299  0.37743718  0.76114942  1
  O  O162  1  -0.02027939  0.86516979  0.28423804  1
  O  O163  1  -0.05180446  0.89019453  0.79282297  1
  O  O164  1  0.51726995  0.36768446  0.23694920  1
  O  O165  1  0.51872281  0.38809640  0.75654122  1
  O  O166  1  0.51101561  0.87196251  0.24416419  1
  O  O167  1  0.51106043  0.84716093  0.75498454  1
  O  O168  1  0.49439169  0.14476670  0.24054991  1
  O  O169  1  0.41500600  0.09225198  0.78749136  1
  O  O170  1  0.51174444  0.62735421  0.22320609  1
  O  O171  1  0.49300042  0.63286553  0.76085624  1
  O  O172  1  0.97708835  0.14645912  0.25902945  1
  O  O173  1  0.98221124  0.12770924  0.72364683  1
  O  O174  1  1.00336050  0.61187810  0.23948863  1
  O  O175  1  1.00114853  0.61200407  0.74842304  1
  O  O176  1  0.33900244  0.20199237  -0.01675232  1
  O  O177  1  0.36399372  0.27015498  0.50868621  1
  O  O178  1  0.39064751  0.76635616  0.01250815  1
  O  O179  1  0.36297493  0.74169162  0.51351080  1
  O  O180  1  0.88080309  0.25389331  0.01216549  1
  O  O181  1  0.85542524  0.25727198  0.49653469  1
  O  O182  1  0.87298781  0.74326724  -0.00440494  1
  O  O183  1  0.87687529  0.72842188  0.52640272  1
  O  O184  1  0.13937546  0.27021389  0.49316025  1
  O  O185  1  0.12977380  0.24752639  0.98708845  1
  O  O186  1  0.14185150  0.73830327  0.49067821  1
  O  O187  1  0.12469629  0.75468701  0.97033111  1
  O  O188  1  0.63398373  0.24524786  0.50221550  1
  O  O189  1  0.61620273  0.23151983  0.98253735  1
  O  O190  1  0.67035644  0.79557331  0.48750850  1
  O  O191  1  0.64551780  0.73377778  0.99775630  1
  O  O192  1  0.50586122  0.24160379  0.13329915  1
  O  O193  1  0.48521515  0.26001934  0.62252573  1
  O  O194  1  0.51633766  0.74170884  0.11412439  1
  O  O195  1  0.50377506  0.73445632  0.64819140  1
  O  O196  1  1.00437460  0.24372863  0.13274029  1
  O  O197  1  1.00474253  0.24056423  0.61293012  1
  O  O198  1  0.98727881  0.74046465  0.12057368  1
  O  O199  1  0.99848388  0.73525339  0.62881497  1
  O  O200  1  0.00680895  0.25177567  0.39708704  1
  O  O201  1  0.01491285  0.25512420  0.87214187  1
  O  O202  1  0.03771227  0.73272851  0.36267345  1
  O  O203  1  0.01401018  0.73920011  0.85443845  1
  O  O204  1  0.49364825  0.25339575  0.35652334  1
  O  O205  1  0.50385075  0.24635704  0.87390852  1
  O  O206  1  0.50127569  0.78089290  0.37997086  1
  O  O207  1  0.50480711  0.75371032  0.86279476  1
  O  O208  1  0.24945090  0.15049222  0.50056793  1
  O  O209  1  0.28654900  0.13612164  0.98109662  1
  O  O210  1  0.24351770  0.63600614  0.52042289  1
  O  O211  1  0.24605894  0.57248679  1.00193055  1
  O  O212  1  0.74261008  0.14762463  0.48490069  1
  O  O213  1  0.73655891  0.12513838  0.98996769  1
  O  O214  1  0.73587889  0.62843320  0.49153469  1
  O  O215  1  0.75120250  0.62763512  0.98708868  1
  O  O216  1  0.25243721  0.35778495  0.00384136  1
  O  O217  1  0.25735280  0.37723738  0.51343259  1
  O  O218  1  0.25871660  0.87512315  0.00430044  1
  O  O219  1  0.27436506  0.87054498  0.50476280  1
  O  O220  1  0.77115242  0.37491262  -0.00537223  1
  O  O221  1  0.73431070  0.36424867  0.50690963  1
  O  O222  1  0.75560131  0.85398884  -0.00105174  1
  O  O223  1  0.73054756  0.82627708  0.51240144  1
  O  O224  1  0.12342033  0.47998799  0.25977730  1
  O  O225  1  0.14443275  0.49915003  0.75698145  1
  O  O226  1  0.11623920  1.02817405  0.22288552  1
  O  O227  1  0.12462219  1.01025151  0.73104140  1
  O  O228  1  0.62408194  0.49908763  0.23151291  1
  O  O229  1  0.61320781  0.47757301  0.75353334  1
  O  O230  1  0.63442516  0.98759969  0.21980487  1
  O  O231  1  0.61248564  1.01277157  0.71423435  1
  O  O232  1  0.37277344  0.00381990  0.23826791  1
  O  O233  1  0.37637908  0.03281364  0.75093488  1
  O  O234  1  0.41642983  0.50468079  0.28820812  1
  O  O235  1  0.38089427  0.50445969  0.76662924  1
  O  O236  1  0.87709580  0.02094740  0.27051518  1
  O  O237  1  0.86301899  0.03013873  0.74507385  1
  O  O238  1  0.86446209  0.50352207  0.23825362  1
  O  O239  1  0.87296833  0.51275333  0.74071299  1
  O  O240  1  0.12752953  0.36123537  0.36938749  1
  O  O241  1  0.10879423  0.36570432  0.87580610  1
  O  O242  1  0.13309027  0.85553654  0.37343564  1
  O  O243  1  0.09920669  0.88057787  0.88451209  1
  O  O244  1  0.62592532  0.39598314  0.36166199  1
  O  O245  1  0.62236326  0.35671556  0.88207079  1
  O  O246  1  0.63683377  0.88403745  0.33826401  1
  O  O247  1  0.63170459  0.87049438  0.87639215  1
  O  O248  1  0.38623775  0.12556959  0.12321461  1
  O  O249  1  0.36395081  0.15312638  0.63076254  1
  O  O250  1  0.40282621  0.63699483  0.10058628  1
  O  O251  1  0.38729048  0.62303901  0.64969351  1
  O  O252  1  0.85951858  0.12285506  0.14910951  1
  O  O253  1  0.87916162  0.12580046  0.61586338  1
  O  O254  1  0.88722481  0.63259457  0.11800084  1
  O  O255  1  0.89829986  0.62345452  0.63616287  1
  O  O256  1  0.23396178  0.22926011  0.10139584  1
  O  O257  1  0.25159013  0.26743165  0.61676090  1
  O  O258  1  0.26065673  0.71704907  0.11320879  1
  O  O259  1  0.24143892  0.76067110  0.61655693  1
  O  O260  1  0.69864789  0.25976855  0.10142868  1
  O  O261  1  0.74992367  0.24778044  0.61829719  1
  O  O262  1  0.76879768  0.74810709  0.10363342  1
  O  O263  1  0.77446831  0.75619919  0.65395612  1
  O  O264  1  0.25613377  0.25370813  0.39217401  1
  O  O265  1  0.23239831  0.25447036  0.88359334  1
  O  O266  1  0.24997283  0.75522805  0.39826416  1
  O  O267  1  0.27307911  0.70763489  0.92042673  1
  O  O268  1  0.74708045  0.25716005  0.37491900  1
  O  O269  1  0.72580454  0.22953431  0.86620423  1
  O  O270  1  0.75714128  0.73102722  0.36648501  1
  O  O271  1  0.75966217  0.73458072  0.88133453  1
  O  O272  1  -0.04708962  0.05582638  -0.05702233  1
  O  O273  1  -0.00689907  0.12252373  0.50452111  1
  O  O274  1  -0.00342730  0.60298624  -0.00868303  1
  O  O275  1  0.02700283  0.62828081  0.51616243  1
  O  O276  1  0.50696286  0.12819347  0.01973954  1
  O  O277  1  0.50835948  0.14611425  0.49487926  1
  O  O278  1  0.52170730  0.62699191  -0.00674719  1
  O  O279  1  0.50013698  0.63801645  0.51596154  1
  O  O280  1  0.48684076  0.38182661  0.50452080  1
  O  O281  1  0.51563424  0.38033419  1.01217297  1
  O  O282  1  0.45547100  0.87955535  0.48340208  1
  O  O283  1  0.50168424  0.86805161  0.97234681  1
  O  O284  1  0.96318596  0.38042839  0.53250115  1
  O  O285  1  0.98692923  0.37608378  0.99284787  1
  O  O286  1  0.98817287  0.83656951  0.46018747  1
  O  O287  1  1.02028700  0.95017974  1.08046263  1
  O  O288  1  0.47613255  0.50201964  0.35000270  1
  O  O289  1  0.49862120  0.49436026  0.88851944  1
  O  O290  1  0.50467727  0.98083527  0.36299510  1
  O  O291  1  0.50560313  0.96471933  0.84191709  1
  O  O292  1  0.98454064  0.50455231  0.38349809  1
  O  O293  1  1.00022784  0.48151374  0.88266141  1
  O  O294  1  1.02852083  0.98039658  0.38413285  1
  O  O295  1  0.98420585  1.01260852  0.88582225  1
  O  O296  1  -0.01776815  -0.00139151  0.12980423  1
  O  O297  1  0.00448579  0.00399213  0.62244861  1
  O  O298  1  -0.00235333  0.51262023  0.11736528  1
  O  O299  1  0.01543236  0.51573871  0.62695123  1
  O  O300  1  0.50331343  0.01030078  0.13127505  1
  O  O301  1  0.53882324  0.02203151  0.67547623  1
  O  O302  1  0.51132714  0.51155171  0.10774143  1
  O  O303  1  0.49159635  0.51685730  0.62200817  1
  O  O304  1  0.22554125  0.34427177  0.24708380  1
  O  O305  1  0.25644868  0.38659156  0.73844580  1
  O  O306  1  0.24423962  0.86533452  0.22815020  1
  O  O307  1  0.23147100  0.95762342  0.84586253  1
  O  O308  1  0.73687058  0.40073591  0.25120511  1
  O  O309  1  0.72936905  0.37357989  0.76126242  1
  O  O310  1  0.74193879  0.87036365  0.21433404  1
  O  O311  1  0.81260217  0.88173026  0.81429192  1
  O  O312  1  0.24682226  0.14450622  0.27121598  1
  O  O313  1  0.20199850  0.04166538  0.71973408  1
  O  O314  1  0.27719732  0.56447783  0.17764336  1
  O  O315  1  0.26502316  0.60716266  0.75265960  1
  O  O316  1  0.75336467  0.14555335  0.26254549  1
  O  O317  1  0.74821475  0.12699899  0.74863665  1
  O  O318  1  0.74508830  0.61449000  0.24525571  1
  O  O319  1  0.75423012  0.62239390  0.76143023  1
  O  O320  1  0.36275181  0.12619808  0.37977515  1
  O  O321  1  0.37806836  0.11587798  0.85211461  1
  O  O322  1  0.37297507  0.62219884  0.39134135  1
  O  O323  1  0.37055254  0.60482727  0.87438008  1
  O  O324  1  0.85016054  0.12814974  0.36663085  1
  O  O325  1  0.85070315  0.13277871  0.86819186  1
  O  O326  1  0.87026433  0.61929099  0.39174252  1
  O  O327  1  0.87044863  0.62159338  0.85933040  1
  O  O328  1  0.11523794  0.37014079  0.14087875  1
  O  O329  1  0.14110270  0.38199393  0.62373614  1
  O  O330  1  0.14492613  0.85487893  0.10338211  1
  O  O331  1  0.10471930  0.88123315  0.61540712  1
  O  O332  1  0.62806258  0.39656632  0.12429548  1
  O  O333  1  0.62856731  0.36523397  0.63714736  1
  O  O334  1  0.63216720  0.88907808  0.11200143  1
  O  O335  1  0.59823191  0.90083451  0.59310813  1
  O  O336  1  0.10042092  0.25263777  0.26690231  1
  O  O337  1  0.13600490  0.24637308  0.76134352  1
  O  O338  1  0.17443651  0.71429274  0.27368127  1
  O  O339  1  0.18116192  0.76545926  0.79518055  1
  O  O340  1  0.62763444  0.27346194  0.25393201  1
  O  O341  1  0.61462998  0.25805089  0.76019711  1
  O  O342  1  0.63237903  0.76540678  0.22994953  1
  O  O343  1  0.62977737  0.73804224  0.75365889  1
  O  O344  1  0.38669829  0.27567784  0.24603767  1
  O  O345  1  0.37378255  0.26657738  0.73820124  1
  O  O346  1  0.37140820  0.74153084  0.22071596  1
  O  O347  1  0.36426141  0.72860859  0.76718659  1
  O  O348  1  0.88311482  0.25159365  0.25204369  1
  O  O349  1  0.86463624  0.23112668  0.74743684  1
  O  O350  1  0.86815514  0.74466648  0.23186361  1
  O  O351  1  0.88760284  0.72528066  0.73979388  1
  O  O352  1  0.37130219  0.49818861  0.49625334  1
  O  O353  1  0.39899627  0.49136766  0.99059444  1
  O  O354  1  0.36166304  1.00732647  0.51716715  1
  O  O355  1  0.38414493  0.97244286  1.00504050  1
  O  O356  1  0.87105809  0.50729963  0.50172372  1
  O  O357  1  0.89053816  0.48025276  1.00527955  1
  O  O358  1  0.86559151  1.01110468  0.46980581  1
  O  O359  1  0.89481912  1.01734873  0.98299329  1
  O  O360  1  0.07222064  -0.01363216  0.03392846  1
  O  O361  1  0.13328910  -0.00447305  0.51129901  1
  O  O362  1  0.10253567  0.48020927  0.00311050  1
  O  O363  1  0.14332047  0.51219505  0.50152383  1
  O  O364  1  0.62021705  0.01666643  0.01063876  1
  O  O365  1  0.61587341  0.02585645  0.49655611  1
  O  O366  1  0.62271643  0.50558190  0.00416827  1
  O  O367  1  0.71090040  0.49792376  0.58594375  1
  O  O368  1  0.33864506  0.45062891  0.14858610  1
  O  O369  1  0.36764455  0.37508472  0.61574913  1
  O  O370  1  0.35537784  0.85750741  0.11684148  1
  O  O371  1  0.40403698  0.89620350  0.63182360  1
  O  O372  1  0.87489986  0.36874671  0.11999956  1
  O  O373  1  0.91237053  0.38051740  0.58819824  1
  O  O374  1  0.87034704  0.86147609  0.12608632  1
  O  O375  1  0.89753714  0.85706155  0.62930364  1
  O  O376  1  0.13789234  0.15286750  0.38742519  1
  O  O377  1  0.11729778  0.13491754  0.87120151  1
  O  O378  1  0.13513439  0.62198206  0.39394498  1
  O  O379  1  0.15096698  0.61329296  0.87743116  1
  O  O380  1  0.63231212  0.13358262  0.38389074  1
  O  O381  1  0.61567797  0.12694272  0.88584025  1
  O  O382  1  0.63452171  0.62459098  0.37343244  1
  O  O383  1  0.64078162  0.61605781  0.88285343  1
