# generated using pymatgen
data_VZnO4
_symmetry_space_group_name_H-M   'P 1'
_cell_length_a   16.90294929
_cell_length_b   16.93825078
_cell_length_c   16.93239554
_cell_angle_alpha   90.12006164
_cell_angle_beta   89.90478806
_cell_angle_gamma   90.07465458
_symmetry_Int_Tables_number   1
_chemical_formula_structural   VZnO4
_chemical_formula_sum   'V64 Zn64 O256'
_cell_volume   4847.83167924
_cell_formula_units_Z   64
loop_
 _symmetry_equiv_pos_site_id
 _symmetry_equiv_pos_as_xyz
  1  'x, y, z'
loop_
 _atom_site_type_symbol
 _atom_site_label
 _atom_site_symmetry_multiplicity
 _atom_site_fract_x
 _atom_site_fract_y
 _atom_site_fract_z
 _atom_site_occupancy
  V  V0  1  -0.01852798  0.37932708  0.87814548  1
  V  V1  1  0.24497076  0.51080871  0.25575039  1
  V  V2  1  0.63236981  0.01680037  0.61042535  1
  V  V3  1  0.02235052  0.51521450  0.50386185  1
  V  V4  1  0.61659477  0.62463090  -0.01766080  1
  V  V5  1  0.49923688  0.48638657  -0.02020203  1
  V  V6  1  0.38834642  0.74763515  0.10498276  1
  V  V7  1  0.51801945  0.12638670  0.11325732  1
  V  V8  1  0.00817346  0.37053823  0.36627294  1
  V  V9  1  0.00239914  0.72042794  0.75205385  1
  V  V10  1  0.62667647  0.62944188  0.49307502  1
  V  V11  1  0.74300498  0.23632285  -0.01608798  1
  V  V12  1  0.51626797  0.00127424  -0.00430714  1
  V  V13  1  0.74799843  -0.00593151  0.76743448  1
  V  V14  1  0.75126499  0.62921682  0.85855796  1
  V  V15  1  0.12691604  0.36613957  0.23622134  1
  V  V16  1  0.89618069  0.83864711  -0.00568576  1
  V  V17  1  -0.02557112  0.50457886  -0.00288956  1
  V  V18  1  0.23814833  0.25743110  0.51418737  1
  V  V19  1  0.36456449  0.13570928  0.74445909  1
  V  V20  1  0.22562145  0.12989692  0.37854177  1
  V  V21  1  0.87072100  0.73322770  0.13848824  1
  V  V22  1  0.37684436  0.38408659  0.52376339  1
  V  V23  1  0.50192402  0.25307266  0.24446865  1
  V  V24  1  0.14115474  0.60391687  -0.00118371  1
  V  V25  1  0.10955574  0.88427219  0.75701957  1
  V  V26  1  0.35677235  0.00861148  0.89295910  1
  V  V27  1  0.51771761  0.77858535  0.24444033  1
  V  V28  1  0.11739998  -0.00204376  0.12185583  1
  V  V29  1  0.48936661  0.38753937  0.37187396  1
  V  V30  1  0.89117182  0.73764739  0.62422711  1
  V  V31  1  0.00619949  0.61960274  0.13791155  1
  V  V32  1  0.75401073  0.86942845  0.62466835  1
  V  V33  1  -0.00660954  0.87423522  0.35533150  1
  V  V34  1  0.87760397  0.38017127  0.50127149  1
  V  V35  1  0.36228048  0.24850132  0.12077389  1
  V  V36  1  0.49965135  0.87400917  0.86640608  1
  V  V37  1  0.13629538  0.74762475  0.39693869  1
  V  V38  1  0.60916602  0.50164612  0.12224510  1
  V  V39  1  0.62649867  0.24335885  0.37907998  1
  V  V40  1  0.12549760  0.36603377  0.74859013  1
  V  V41  1  0.89427856  0.88831501  0.50859418  1
  V  V42  1  0.75743356  0.51428333  0.24879444  1
  V  V43  1  0.24125910  0.49389655  0.73066487  1
  V  V44  1  0.36388404  0.36328560  -0.00077627  1
  V  V45  1  0.87777302  0.51628138  0.37080757  1
  V  V46  1  0.12561524  0.75164336  0.88976495  1
  V  V47  1  0.26123982  0.86677497  0.09119255  1
  V  V48  1  0.00093062  0.11159221  0.61824591  1
  V  V49  1  0.76234478  0.38013907  0.11482671  1
  V  V50  1  0.37479298  0.64005523  0.74967534  1
  V  V51  1  0.74494168  -0.00073881  0.24951223  1
  V  V52  1  0.37635301  0.11612480  0.25726572  1
  V  V53  1  0.75151431  0.24202543  0.49857071  1
  V  V54  1  0.77524838  0.49638933  0.74255526  1
  V  V55  1  0.23538687  0.00735362  0.74742436  1
  V  V56  1  0.86594811  0.12171449  0.75965597  1
  V  V57  1  0.62755881  0.37838148  0.24973399  1
  V  V58  1  -0.01337662  0.25373898  0.74176168  1
  V  V59  1  0.34882498  0.49552777  0.88101422  1
  V  V60  1  0.72924542  0.37968469  0.61974530  1
  V  V61  1  0.87891426  0.24212662  0.13333422  1
  V  V62  1  0.16013489  0.86004945  0.24384800  1
  V  V63  1  0.40004120  0.63076710  0.25199960  1
  Zn  Zn64  1  0.18457678  0.18210139  0.19605991  1
  Zn  Zn65  1  0.18162141  0.18656764  0.69550619  1
  Zn  Zn66  1  0.19634856  0.68413052  0.17550868  1
  Zn  Zn67  1  0.21345268  0.70307212  0.74281821  1
  Zn  Zn68  1  0.69504491  0.19598834  0.18609536  1
  Zn  Zn69  1  0.69011408  0.18547315  0.68426631  1
  Zn  Zn70  1  0.68266313  0.68760728  0.17171429  1
  Zn  Zn71  1  0.70215291  0.68361503  0.67785665  1
  Zn  Zn72  1  0.30159697  0.31102150  0.30968992  1
  Zn  Zn73  1  0.33881725  0.34098740  0.78420071  1
  Zn  Zn74  1  0.31762598  0.77100449  0.30769695  1
  Zn  Zn75  1  0.30458433  0.82947045  0.82858728  1
  Zn  Zn76  1  0.81568569  0.32115873  0.31458186  1
  Zn  Zn77  1  0.80785925  0.31666017  0.80739061  1
  Zn  Zn78  1  0.82301803  0.82117427  0.31168172  1
  Zn  Zn79  1  0.81538579  0.80505812  0.80653072  1
  Zn  Zn80  1  0.20128296  0.43853562  0.43161321  1
  Zn  Zn81  1  0.17013432  0.41048621  0.94519820  1
  Zn  Zn82  1  0.18990008  0.94340433  0.40136443  1
  Zn  Zn83  1  0.17269133  0.93908133  0.93806842  1
  Zn  Zn84  1  0.68961143  0.43855053  0.43015396  1
  Zn  Zn85  1  0.71825051  0.47217355  0.94858132  1
  Zn  Zn86  1  0.71662299  0.94232018  0.44955847  1
  Zn  Zn87  1  0.68330605  0.92174913  0.94332622  1
  Zn  Zn88  1  0.32565607  0.04688384  0.08819034  1
  Zn  Zn89  1  0.17299448  0.06047050  0.55663291  1
  Zn  Zn90  1  0.31913907  0.55814037  0.08104246  1
  Zn  Zn91  1  0.32428036  0.55889311  0.56765986  1
  Zn  Zn92  1  0.79241801  0.07801697  0.06743157  1
  Zn  Zn93  1  0.82240395  0.06293971  0.57645666  1
  Zn  Zn94  1  0.80352153  0.58926357  0.06347144  1
  Zn  Zn95  1  0.81587418  0.55880528  0.56216246  1
  Zn  Zn96  1  0.41273446  0.44266765  0.18428731  1
  Zn  Zn97  1  0.44372231  0.48063527  0.68431541  1
  Zn  Zn98  1  0.43470100  0.93684132  0.17138610  1
  Zn  Zn99  1  0.44092926  0.99076807  0.69707028  1
  Zn  Zn100  1  0.94246947  0.44478311  0.18647787  1
  Zn  Zn101  1  0.94877190  0.44159916  0.67959358  1
  Zn  Zn102  1  0.92451726  0.93047259  0.16239484  1
  Zn  Zn103  1  0.93587791  0.93861720  0.69661017  1
  Zn  Zn104  1  0.07125356  0.04050353  0.30303624  1
  Zn  Zn105  1  0.04716215  0.06916487  0.82187991  1
  Zn  Zn106  1  0.07468690  0.56339251  0.32520459  1
  Zn  Zn107  1  0.07110305  0.55278057  0.82510543  1
  Zn  Zn108  1  0.55356176  0.06801020  0.31034701  1
  Zn  Zn109  1  0.55185497  0.04475544  0.79803861  1
  Zn  Zn110  1  0.55992992  0.56619227  0.30366951  1
  Zn  Zn111  1  0.55425280  0.56682827  0.79974274  1
  Zn  Zn112  1  0.39783788  0.21478539  0.42208068  1
  Zn  Zn113  1  0.43824478  0.18237588  0.92998487  1
  Zn  Zn114  1  0.45712196  0.70779692  0.41745227  1
  Zn  Zn115  1  0.44023307  0.67599822  0.91961180  1
  Zn  Zn116  1  0.94629466  0.19780617  0.44488004  1
  Zn  Zn117  1  0.92417145  0.20603440  0.93669863  1
  Zn  Zn118  1  0.95331844  0.69999065  0.44212318  1
  Zn  Zn119  1  0.94079629  0.67181976  0.92965187  1
  Zn  Zn120  1  0.05099774  0.32205461  0.06565771  1
  Zn  Zn121  1  0.06127182  0.32205928  0.56512706  1
  Zn  Zn122  1  0.06350811  0.79932244  0.07434407  1
  Zn  Zn123  1  0.10520923  0.87134938  0.54578374  1
  Zn  Zn124  1  0.56526269  0.31541852  0.05806595  1
  Zn  Zn125  1  0.55973665  0.31903009  0.54760619  1
  Zn  Zn126  1  0.57428967  0.81854563  0.05352846  1
  Zn  Zn127  1  0.55150180  0.86593605  0.67410987  1
  O  O128  1  0.13323029  0.09416520  0.15291211  1
  O  O129  1  0.10770412  0.12821790  0.62670899  1
  O  O130  1  0.11470888  0.63064485  0.10768814  1
  O  O131  1  0.15562033  0.67773030  0.63559146  1
  O  O132  1  0.61652447  0.13270275  0.12695005  1
  O  O133  1  0.62605236  0.11667057  0.61829515  1
  O  O134  1  0.63026753  0.60302679  0.10209132  1
  O  O135  1  0.62563010  0.63081398  0.59717908  1
  O  O136  1  0.39060114  0.37237834  0.35557183  1
  O  O137  1  0.37161852  0.37463897  0.89388995  1
  O  O138  1  0.38780895  0.86326100  0.38262099  1
  O  O139  1  0.37954668  0.90166371  0.87658094  1
  O  O140  1  0.88503249  0.38926094  0.37818324  1
  O  O141  1  0.88229414  0.38558362  0.86492216  1
  O  O142  1  0.88707236  0.86400943  0.39575751  1
  O  O143  1  0.86178547  0.84817866  0.89899546  1
  O  O144  1  0.25543962  0.03312726  0.37772865  1
  O  O145  1  0.25541791  0.00709004  0.89366098  1
  O  O146  1  0.26634342  0.49525306  0.35368761  1
  O  O147  1  0.25051823  0.48325869  0.88585959  1
  O  O148  1  0.75789211  -0.00453119  0.35406604  1
  O  O149  1  0.74004821  -0.01340154  0.86582526  1
  O  O150  1  0.76196709  0.49652232  0.35885119  1
  O  O151  1  0.74132133  0.49271331  0.84157336  1
  O  O152  1  0.29883500  0.48214409  0.16391537  1
  O  O153  1  0.25129646  0.49000886  0.63305820  1
  O  O154  1  0.24943039  0.97179297  0.11913091  1
  O  O155  1  0.22894210  1.00828684  0.64977670  1
  O  O156  1  0.74727195  0.49471809  0.13536955  1
  O  O157  1  0.75107467  0.48982900  0.63092522  1
  O  O158  1  0.72801217  1.00449782  0.14631947  1
  O  O159  1  0.74423710  0.99035578  0.63231460  1
  O  O160  1  0.00997333  0.38772096  0.25971086  1
  O  O161  1  -0.00494735  0.36661039  0.75326176  1
  O  O162  1  -0.03075494  0.87491209  0.25833439  1
  O  O163  1  0.00790172  0.89039649  0.77058202  1
  O  O164  1  0.51023250  0.37008728  0.24945174  1
  O  O165  1  0.49700052  0.28690323  0.69625022  1
  O  O166  1  0.50734086  0.87923664  0.23232347  1
  O  O167  1  0.48505571  0.89601989  0.76004263  1
  O  O168  1  0.49700654  0.13375711  0.23380684  1
  O  O169  1  0.47003346  0.09883833  0.73919173  1
  O  O170  1  0.50496149  0.64860713  0.24876057  1
  O  O171  1  0.46836383  0.64640760  0.78991104  1
  O  O172  1  0.96064163  0.11389041  0.28919137  1
  O  O173  1  0.99330747  0.13968577  0.74973592  1
  O  O174  1  1.01371057  0.60463458  0.23506808  1
  O  O175  1  1.01227290  0.62222887  0.74955023  1
  O  O176  1  0.37778905  0.25316291  0.00724443  1
  O  O177  1  0.37010802  0.26937702  0.51373336  1
  O  O178  1  0.38336293  0.72788442  0.00760996  1
  O  O179  1  0.42564083  0.76192172  0.52454667  1
  O  O180  1  0.85318513  0.24979888  0.01415416  1
  O  O181  1  0.85914768  0.26986720  0.48379348  1
  O  O182  1  0.88515685  0.73553373  0.00759382  1
  O  O183  1  0.89064836  0.76123303  0.52074460  1
  O  O184  1  0.14051844  0.27865779  0.49605823  1
  O  O185  1  0.12791697  0.29931051  0.97887534  1
  O  O186  1  0.12757590  0.77007735  0.49539398  1
  O  O187  1  0.12445699  0.73858610  0.99160748  1
  O  O188  1  0.63317409  0.25385819  0.48661600  1
  O  O189  1  0.64497877  0.26444473  1.00036645  1
  O  O190  1  0.63968099  0.73107163  0.48638812  1
  O  O191  1  0.61395345  0.72115201  0.99449522  1
  O  O192  1  0.50242950  0.24267159  0.13029677  1
  O  O193  1  0.50849513  0.24780924  0.63425009  1
  O  O194  1  0.49298872  0.76669832  0.11682372  1
  O  O195  1  0.54331111  0.74611508  0.68796530  1
  O  O196  1  0.97883251  0.25377370  0.11558753  1
  O  O197  1  0.99937585  0.25096125  0.63946175  1
  O  O198  1  0.99114315  0.72837677  0.13182789  1
  O  O199  1  0.99608363  0.74273400  0.64377352  1
  O  O200  1  -0.00433561  0.27155316  0.37587702  1
  O  O201  1  -0.00943366  0.27138362  0.86559864  1
  O  O202  1  0.01763295  0.76898296  0.37871086  1
  O  O203  1  0.01362393  0.73296359  0.86377164  1
  O  O204  1  0.51066811  0.26258502  0.36139492  1
  O  O205  1  0.52312696  0.23607597  0.85938792  1
  O  O206  1  0.51552452  0.77363077  0.34799775  1
  O  O207  1  0.47856484  0.77724115  0.87897620  1
  O  O208  1  0.22514410  0.14275626  0.48842547  1
  O  O209  1  0.16578355  0.17337366  1.01287615  1
  O  O210  1  0.18660253  0.63845637  0.57697348  1
  O  O211  1  0.24036699  0.60706966  1.01512230  1
  O  O212  1  0.76647023  0.14518350  0.50662297  1
  O  O213  1  0.73944554  0.13463086  0.99020754  1
  O  O214  1  0.73211649  0.61970835  0.49539459  1
  O  O215  1  0.72946171  0.59491372  0.97190750  1
  O  O216  1  0.26716806  0.37873627  0.01079149  1
  O  O217  1  0.26706203  0.36824409  0.49720902  1
  O  O218  1  0.25018419  0.86380080  -0.00656941  1
  O  O219  1  0.34361738  0.89659139  0.43102986  1
  O  O220  1  0.75281366  0.38871404  0.01468278  1
  O  O221  1  0.75461599  0.37764285  0.50657807  1
  O  O222  1  0.83242287  0.94033481  0.00384774  1
  O  O223  1  0.77046614  0.87012893  0.51947981  1
  O  O224  1  0.14173943  0.50191959  0.25057503  1
  O  O225  1  0.13914262  0.49760665  0.74941458  1
  O  O226  1  0.12816716  0.96450575  0.23909815  1
  O  O227  1  0.12589242  0.99792989  0.78350925  1
  O  O228  1  0.62951572  0.49844848  0.23691436  1
  O  O229  1  0.58478055  0.38277274  0.80609822  1
  O  O230  1  0.63988052  0.99798059  0.26485244  1
  O  O231  1  0.64373203  1.00981578  0.74132904  1
  O  O232  1  0.38040441  0.01839124  0.23594220  1
  O  O233  1  0.34510805  0.00830913  0.76372902  1
  O  O234  1  0.40812974  0.53028864  0.25926601  1
  O  O235  1  0.35523469  0.46765945  0.77122999  1
  O  O236  1  0.84786141  0.00109674  0.23356995  1
  O  O237  1  0.86403143  0.01254484  0.75522022  1
  O  O238  1  0.86678327  0.50411283  0.25797598  1
  O  O239  1  0.87355207  0.50304633  0.74202148  1
  O  O240  1  0.11093749  0.38446049  0.36816308  1
  O  O241  1  0.09754915  0.39254991  0.85288701  1
  O  O242  1  0.12215765  0.86359315  0.35142047  1
  O  O243  1  0.11925481  0.85674149  0.87925832  1
  O  O244  1  0.61746285  0.37177049  0.36516313  1
  O  O245  1  0.62229851  0.36685184  0.86578838  1
  O  O246  1  0.66619723  0.85034094  0.38307993  1
  O  O247  1  0.60104328  0.87929292  0.86846024  1
  O  O248  1  0.38379479  0.13719019  0.13213929  1
  O  O249  1  0.35006856  0.13063914  0.64850213  1
  O  O250  1  0.38024264  0.64109728  0.13800290  1
  O  O251  1  0.39537511  0.59208694  0.65811579  1
  O  O252  1  0.86242802  0.14169433  0.12941315  1
  O  O253  1  0.88991042  0.12553956  0.64499505  1
  O  O254  1  0.89576331  0.62201077  0.12938636  1
  O  O255  1  0.87027534  0.63959384  0.61824759  1
  O  O256  1  0.26448710  0.24274639  0.12893165  1
  O  O257  1  0.24003552  0.24745010  0.61355023  1
  O  O258  1  0.26923180  0.76105973  0.12177852  1
  O  O259  1  0.26395544  0.65797941  0.55877863  1
  O  O260  1  0.75254082  0.26960329  0.11904443  1
  O  O261  1  0.73835652  0.26537838  0.60841532  1
  O  O262  1  0.77368850  0.70175971  0.10703438  1
  O  O263  1  0.77608504  0.76368570  0.64760476  1
  O  O264  1  0.27464941  0.23297344  0.38915391  1
  O  O265  1  0.18728794  0.23492834  0.97805472  1
  O  O266  1  0.23734073  0.76278209  0.38384116  1
  O  O267  1  0.22687580  0.74432337  0.85607163  1
  O  O268  1  0.73639032  0.25904279  0.38304679  1
  O  O269  1  0.75393282  0.25798201  0.88506479  1
  O  O270  1  0.71154466  0.79632519  0.35730049  1
  O  O271  1  0.73495540  0.72701199  0.84472991  1
  O  O272  1  -0.01486863  0.05308173  -0.03754632  1
  O  O273  1  -0.01244802  0.12751179  0.51844200  1
  O  O274  1  0.00775373  0.60839595  0.00169240  1
  O  O275  1  0.00449942  0.61295428  0.49394735  1
  O  O276  1  0.50391523  0.12803594  0.00936134  1
  O  O277  1  0.49630220  -0.02203853  0.44696569  1
  O  O278  1  0.50812331  0.60128382  -0.01411367  1
  O  O279  1  0.52245288  0.63796311  0.49328963  1
  O  O280  1  0.48510483  0.37293424  0.48206575  1
  O  O281  1  0.49000593  0.38297043  1.00257842  1
  O  O282  1  0.47029344  0.81945165  0.54305861  1
  O  O283  1  0.50445434  0.89720534  0.99279135  1
  O  O284  1  0.98923885  0.38400369  0.48955664  1
  O  O285  1  0.99375060  0.39002577  0.98693168  1
  O  O286  1  0.99432683  0.88388820  0.50889134  1
  O  O287  1  0.99435914  0.85928273  1.00245190  1
  O  O288  1  0.50853500  0.48512529  0.36631980  1
  O  O289  1  0.48809996  0.48803255  0.88041082  1
  O  O290  1  0.51301269  0.97403072  0.37475392  1
  O  O291  1  0.49138637  1.00319429  0.88607944  1
  O  O292  1  0.99005039  0.49638309  0.38367746  1
  O  O293  1  0.99079696  0.49787077  0.88724135  1
  O  O294  1  1.01597108  0.97217279  0.37625671  1
  O  O295  1  0.98986482  0.99975967  0.90612484  1
  O  O296  1  0.01700363  -0.01467511  0.13146446  1
  O  O297  1  -0.00010151  0.01238811  0.63252165  1
  O  O298  1  -0.00295068  0.50655905  0.10725346  1
  O  O299  1  0.00128870  0.50007497  0.60142313  1
  O  O300  1  0.49866128  0.01703201  0.10873304  1
  O  O301  1  0.53514225  -0.02558634  0.62639735  1
  O  O302  1  0.50864911  0.49525466  0.12135956  1
  O  O303  1  0.54834471  0.50202679  0.71179136  1
  O  O304  1  0.23153159  0.37938044  0.25549789  1
  O  O305  1  0.23216285  0.37725587  0.75544474  1
  O  O306  1  0.25942113  0.86554281  0.25456086  1
  O  O307  1  0.22963887  0.89694357  0.76915728  1
  O  O308  1  0.73892572  0.38650685  0.24317291  1
  O  O309  1  0.75496471  0.38193316  0.72678391  1
  O  O310  1  0.74617850  0.89508599  0.24503235  1
  O  O311  1  0.76529800  0.89060502  0.74242359  1
  O  O312  1  0.27258305  0.14025197  0.26607355  1
  O  O313  1  0.24309666  0.11738252  0.76487045  1
  O  O314  1  0.26297374  0.61584149  0.24219264  1
  O  O315  1  0.26502022  0.59681301  0.75066867  1
  O  O316  1  0.74204565  0.10486814  0.25370653  1
  O  O317  1  0.76046700  0.11761582  0.74610614  1
  O  O318  1  0.73834366  0.61073166  0.24634180  1
  O  O319  1  0.73984796  0.60217032  0.74705271  1
  O  O320  1  0.40654761  0.12385648  0.35591826  1
  O  O321  1  0.37391423  0.11246498  0.86861237  1
  O  O322  1  0.37618495  0.66362837  0.35119627  1
  O  O323  1  0.35970116  0.59808969  0.87015013  1
  O  O324  1  0.91578030  0.11764258  0.34889063  1
  O  O325  1  0.87465551  0.13284827  0.85861302  1
  O  O326  1  0.88234883  0.61431219  0.38202065  1
  O  O327  1  0.85004833  0.62494746  0.87307334  1
  O  O328  1  0.11588352  0.38328530  0.13766385  1
  O  O329  1  0.10931086  0.38077745  0.64997805  1
  O  O330  1  0.14585781  0.86676633  0.12763255  1
  O  O331  1  0.11769070  0.88068464  0.65858226  1
  O  O332  1  0.63278332  0.38794433  0.13122660  1
  O  O333  1  0.63004809  0.38153745  0.61503009  1
  O  O334  1  0.67542355  0.86408910  0.03758291  1
  O  O335  1  0.65306681  0.86102557  0.62587140  1
  O  O336  1  0.12396490  0.26590602  0.24212002  1
  O  O337  1  0.11030862  0.26067514  0.75619313  1
  O  O338  1  0.13504968  0.75946033  0.24228961  1
  O  O339  1  0.10908127  0.76284764  0.75913468  1
  O  O340  1  0.62297937  0.25990670  0.25588717  1
  O  O341  1  0.62133664  0.23527062  0.77017470  1
  O  O342  1  0.61614589  0.76088036  0.21712393  1
  O  O343  1  0.60080236  0.71967713  0.73063260  1
  O  O344  1  0.38712811  0.24762143  0.23671729  1
  O  O345  1  0.36571104  0.23581071  0.76918853  1
  O  O346  1  0.39959153  0.75422416  0.22990183  1
  O  O347  1  0.33982918  0.73560865  0.74099762  1
  O  O348  1  0.86409171  0.26011084  0.23419132  1
  O  O349  1  0.88111378  0.24403921  0.74824980  1
  O  O350  1  0.85585796  0.74465229  0.23795236  1
  O  O351  1  0.89747641  0.74700503  0.74760887  1
  O  O352  1  0.36915286  0.48337715  0.49760089  1
  O  O353  1  0.38273829  0.49031672  0.99531644  1
  O  O354  1  0.36449102  0.99997022  0.53643119  1
  O  O355  1  0.38312596  1.01646595  0.99424805  1
  O  O356  1  0.86841781  0.49236769  0.48428590  1
  O  O357  1  0.87561326  0.51301843  1.00138775  1
  O  O358  1  0.87100950  0.98716495  0.50492605  1
  O  O359  1  0.86319054  0.98808355  1.05916395  1
  O  O360  1  0.12709997  -0.00078198  0.02026417  1
  O  O361  1  0.15720713  -0.03689385  0.50462217  1
  O  O362  1  0.12050393  0.50371562  -0.00299434  1
  O  O363  1  0.12110760  0.49881149  0.48980589  1
  O  O364  1  0.61373016  0.01272502  -0.01181513  1
  O  O365  1  0.64447247  0.00031506  0.51083163  1
  O  O366  1  0.60973070  0.48977663  0.00457143  1
  O  O367  1  0.62555364  0.52254336  0.48951294  1
  O  O368  1  0.38598312  0.35363522  0.11550723  1
  O  O369  1  0.39711543  0.39295958  0.62291849  1
  O  O370  1  0.36880063  0.86619702  0.10767559  1
  O  O371  1  0.37051053  0.95022658  0.58980293  1
  O  O372  1  0.86303974  0.37876471  0.13040099  1
  O  O373  1  0.87511059  0.38142680  0.60213503  1
  O  O374  1  0.87272400  0.83965273  0.10991595  1
  O  O375  1  0.87772366  0.87150372  0.62224482  1
  O  O376  1  0.12898414  0.12878274  0.34935686  1
  O  O377  1  0.01931880  0.12551140  0.93614234  1
  O  O378  1  0.12305517  0.64783149  0.38153829  1
  O  O379  1  0.12942943  0.62761818  0.89298308  1
  O  O380  1  0.61494096  0.14465280  0.37020115  1
  O  O381  1  0.58242308  0.19399159  0.82664568  1
  O  O382  1  0.62609088  0.62401993  0.38762788  1
  O  O383  1  0.62511163  0.61092626  0.87553655  1
