# generated using pymatgen
data_VZnO4
_symmetry_space_group_name_H-M   'P 1'
_cell_length_a   17.01990485
_cell_length_b   16.90511827
_cell_length_c   17.04359540
_cell_angle_alpha   88.86679594
_cell_angle_beta   89.33291287
_cell_angle_gamma   90.97685104
_symmetry_Int_Tables_number   1
_chemical_formula_structural   VZnO4
_chemical_formula_sum   'V64 Zn64 O256'
_cell_volume   4901.81931514
_cell_formula_units_Z   64
loop_
 _symmetry_equiv_pos_site_id
 _symmetry_equiv_pos_as_xyz
  1  'x, y, z'
loop_
 _atom_site_type_symbol
 _atom_site_label
 _atom_site_symmetry_multiplicity
 _atom_site_fract_x
 _atom_site_fract_y
 _atom_site_fract_z
 _atom_site_occupancy
  V  V0  1  0.25926188  0.60818042  0.38742380  1
  V  V1  1  -0.00075620  0.00147531  0.52990995  1
  V  V2  1  0.25882253  0.51074168  0.74047281  1
  V  V3  1  0.49702908  0.27365098  0.25326900  1
  V  V4  1  0.01023989  0.76467126  0.73918994  1
  V  V5  1  0.61651562  -0.00968414  0.12898762  1
  V  V6  1  0.50455132  0.36144148  0.87183591  1
  V  V7  1  0.75758210  0.87199507  0.11696169  1
  V  V8  1  0.87158713  0.36539811  0.00163681  1
  V  V9  1  0.52411879  0.74170503  0.26010325  1
  V  V10  1  0.11548404  0.37892691  0.24834460  1
  V  V11  1  0.38549571  0.48161306  0.37376208  1
  V  V12  1  0.63424590  0.47932117  0.63340655  1
  V  V13  1  0.12465229  0.62465066  0.50900956  1
  V  V14  1  0.88319865  0.49754634  0.38091863  1
  V  V15  1  0.10275604  0.24285408  0.37569128  1
  V  V16  1  0.38133194  0.75308706  0.62478657  1
  V  V17  1  0.22883895  -0.00569923  0.28228900  1
  V  V18  1  0.38142711  0.50698919  0.87587476  1
  V  V19  1  0.37582938  0.62676072  0.25573476  1
  V  V20  1  0.09762146  0.50828430  0.63443451  1
  V  V21  1  0.73662953  0.00267959  0.25772804  1
  V  V22  1  0.50335334  0.61836527  0.63149277  1
  V  V23  1  0.26431230  0.74751004  0.48592657  1
  V  V24  1  0.75113954  0.62436035  0.35142607  1
  V  V25  1  0.89777266  0.11220543  0.73650594  1
  V  V26  1  0.51345367  0.77096874  0.74594255  1
  V  V27  1  0.63816044  0.37967291  0.25188826  1
  V  V28  1  0.12192110  0.36993724  0.75273914  1
  V  V29  1  0.63582640  0.62269788  0.49407171  1
  V  V30  1  0.36783231  0.25569485  0.59984602  1
  V  V31  1  0.75254783  0.61626816  0.84942598  1
  V  V32  1  0.38116135  0.12125563  0.26277322  1
  V  V33  1  0.50259340  0.15010193  0.65269462  1
  V  V34  1  0.11922352  0.13063077  0.52669006  1
  V  V35  1  -0.00282206  0.24139828  0.21757386  1
  V  V36  1  0.63194025  0.24345571  0.86571374  1
  V  V37  1  -0.01562977  0.61805181  0.10649497  1
  V  V38  1  0.74944801  0.25213528  0.01732201  1
  V  V39  1  0.36763192  0.24583299  0.12754826  1
  V  V40  1  0.24042603  0.62815058  0.88845037  1
  V  V41  1  0.76015980  0.23117444  0.48889541  1
  V  V42  1  0.24393665  0.13364246  0.38688227  1
  V  V43  1  0.63825356  0.62495817  -0.00825829  1
  V  V44  1  0.61810205  0.13396216  0.01751210  1
  V  V45  1  0.25887784  0.87385221  0.14103439  1
  V  V46  1  0.38788729  0.87482949  0.47847230  1
  V  V47  1  0.88036586  0.26226322  0.62038490  1
  V  V48  1  0.49205586  0.63234535  0.11541392  1
  V  V49  1  0.15750747  0.88698285  0.71363459  1
  V  V50  1  0.11800806  -0.00303091  0.13616586  1
  V  V51  1  0.05534735  0.86505042  0.89823817  1
  V  V52  1  0.53403936  0.86651079  0.37641762  1
  V  V53  1  0.62524743  0.49544380  0.11389638  1
  V  V54  1  0.83870346  0.00799756  0.87596089  1
  V  V55  1  0.63442385  0.75976714  0.86912734  1
  V  V56  1  0.86607523  0.13070454  0.23684087  1
  V  V57  1  0.49989294  0.47979052  0.49776242  1
  V  V58  1  0.88548745  -0.00372377  0.37457363  1
  V  V59  1  0.24019366  0.38691566  0.12667937  1
  V  V60  1  0.49199608  -0.00884747  -0.00318887  1
  V  V61  1  0.00107902  0.34142790  0.87664146  1
  V  V62  1  0.88624637  0.50066507  0.85908480  1
  V  V63  1  0.36360375  0.37257109  -0.00768989  1
  Zn  Zn64  1  0.19053497  0.18397003  0.19391677  1
  Zn  Zn65  1  0.20090189  0.18779135  0.70486953  1
  Zn  Zn66  1  0.19170925  0.69731770  0.20714496  1
  Zn  Zn67  1  0.19345269  0.68974460  0.69029535  1
  Zn  Zn68  1  0.68148458  0.19245988  0.19427503  1
  Zn  Zn69  1  0.69491311  0.28994086  0.67678544  1
  Zn  Zn70  1  0.69040655  0.68310386  0.17749591  1
  Zn  Zn71  1  0.68172150  0.68563773  0.67868355  1
  Zn  Zn72  1  0.29772539  0.31335522  0.30730551  1
  Zn  Zn73  1  0.33125823  0.34164288  0.76289239  1
  Zn  Zn74  1  0.32363415  0.80567985  0.30304326  1
  Zn  Zn75  1  0.30930095  0.80488502  0.79982729  1
  Zn  Zn76  1  0.81924880  0.31617779  0.30734720  1
  Zn  Zn77  1  0.82007395  0.29030542  0.81151601  1
  Zn  Zn78  1  0.74674939  0.83565704  0.34568775  1
  Zn  Zn79  1  0.84516534  0.80129979  0.86046256  1
  Zn  Zn80  1  0.14023485  0.41442529  0.46052701  1
  Zn  Zn81  1  0.19168866  0.43455822  0.92632553  1
  Zn  Zn82  1  0.18905499  0.94177482  0.48039499  1
  Zn  Zn83  1  0.19070823  0.92142783  0.97394001  1
  Zn  Zn84  1  0.68466947  0.44018767  0.43056201  1
  Zn  Zn85  1  0.69637559  0.43064433  0.80155814  1
  Zn  Zn86  1  0.64675270  0.97162028  0.43918401  1
  Zn  Zn87  1  0.67869984  0.94266867  0.94355765  1
  Zn  Zn88  1  0.34111288  0.02581856  0.10961774  1
  Zn  Zn89  1  0.42900314  0.06349998  0.53389429  1
  Zn  Zn90  1  0.31621788  0.56284117  0.06294928  1
  Zn  Zn91  1  0.30565751  0.42981953  0.56146907  1
  Zn  Zn92  1  0.80436295  0.06176307  0.05974365  1
  Zn  Zn93  1  0.80868482  0.05683954  0.55139568  1
  Zn  Zn94  1  0.80159437  0.53947255  0.03252507  1
  Zn  Zn95  1  0.79857396  0.52271819  0.53643939  1
  Zn  Zn96  1  0.43324038  0.44692818  0.17672569  1
  Zn  Zn97  1  0.44824276  0.42824271  0.68836645  1
  Zn  Zn98  1  0.45145901  0.92942179  0.20666505  1
  Zn  Zn99  1  0.49103333  0.93362599  0.64120152  1
  Zn  Zn100  1  0.92367963  0.42602346  0.19506705  1
  Zn  Zn101  1  0.93426764  0.42858278  0.69643993  1
  Zn  Zn102  1  0.92694257  0.93554611  0.19946192  1
  Zn  Zn103  1  0.92427135  0.90983710  0.71525999  1
  Zn  Zn104  1  0.05494032  0.06639716  0.30007755  1
  Zn  Zn105  1  0.04975232  0.01095186  0.78688723  1
  Zn  Zn106  1  0.07701529  0.57226850  0.31135215  1
  Zn  Zn107  1  0.06833580  0.57886988  0.80643927  1
  Zn  Zn108  1  0.55115351  0.06479752  0.30786660  1
  Zn  Zn109  1  0.54888359  0.07837471  0.83008152  1
  Zn  Zn110  1  0.56816007  0.55229595  0.30805529  1
  Zn  Zn111  1  0.56089842  0.55764109  0.81438136  1
  Zn  Zn112  1  0.42704096  0.21964463  0.42462677  1
  Zn  Zn113  1  0.44138895  0.18864826  0.95607514  1
  Zn  Zn114  1  0.44962086  0.67649827  0.44092334  1
  Zn  Zn115  1  0.43271867  0.70167263  0.92390176  1
  Zn  Zn116  1  0.93097355  0.17151450  0.43803848  1
  Zn  Zn117  1  0.90887927  0.16546765  0.93240611  1
  Zn  Zn118  1  0.95390410  0.65562880  0.40833301  1
  Zn  Zn119  1  0.95090366  0.68520926  0.90972127  1
  Zn  Zn120  1  0.06039204  0.42527074  0.05007939  1
  Zn  Zn121  1  0.04476002  0.31758741  0.56303574  1
  Zn  Zn122  1  0.09648673  0.79967224  0.08919414  1
  Zn  Zn123  1  0.08469496  0.80739173  0.56646229  1
  Zn  Zn124  1  0.54761956  0.31495445  0.05930451  1
  Zn  Zn125  1  0.56205039  0.29515503  0.57087735  1
  Zn  Zn126  1  0.56457347  0.80725398  0.06179436  1
  Zn  Zn127  1  0.57887579  0.80218249  0.55363890  1
  O  O128  1  0.12798730  0.09816265  0.15874558  1
  O  O129  1  0.13082159  0.14210185  0.62234230  1
  O  O130  1  0.08469453  0.60383471  0.12532618  1
  O  O131  1  0.13212260  0.61867369  0.61972596  1
  O  O132  1  0.62195171  0.12314663  0.11955520  1
  O  O133  1  0.59318716  0.18435964  0.61968458  1
  O  O134  1  0.61497681  0.63004352  0.10438772  1
  O  O135  1  0.61839033  0.60964564  0.61572955  1
  O  O136  1  0.37009541  0.38492178  0.36117933  1
  O  O137  1  0.35884928  0.37080998  0.88938770  1
  O  O138  1  0.39845312  0.86426672  0.37758543  1
  O  O139  1  0.37478393  0.85928075  0.89644056  1
  O  O140  1  0.88525587  0.39889323  0.35154248  1
  O  O141  1  0.89237158  0.36736134  0.87318662  1
  O  O142  1  0.83606498  0.90551408  0.37844404  1
  O  O143  1  0.85108662  0.90966512  0.89244194  1
  O  O144  1  0.23295400  0.01850185  0.38904846  1
  O  O145  1  0.24684319  0.04140096  0.91578286  1
  O  O146  1  0.27555964  0.50707510  0.38424411  1
  O  O147  1  0.26373743  0.51238967  0.86976474  1
  O  O148  1  0.71928527  0.01027867  0.35628349  1
  O  O149  1  0.73859921  0.01443558  0.87529281  1
  O  O150  1  0.76695613  0.50587404  0.38433105  1
  O  O151  1  0.74301908  0.51385026  0.86455995  1
  O  O152  1  0.25690980  0.48560691  0.12754029  1
  O  O153  1  0.26527570  0.50468459  0.64182566  1
  O  O154  1  0.24154650  0.99083335  0.16455712  1
  O  O155  1  0.30911468  1.05520855  0.72554371  1
  O  O156  1  0.72451109  0.50885057  0.10892492  1
  O  O157  1  0.73292499  0.48903895  0.62247321  1
  O  O158  1  0.73408392  0.99942520  0.13168025  1
  O  O159  1  0.71596273  0.97211381  0.53470290  1
  O  O160  1  0.00756393  0.35582917  0.23004640  1
  O  O161  1  0.00974489  0.37371378  0.76729500  1
  O  O162  1  -0.01318962  0.83968853  0.25544168  1
  O  O163  1  0.04302624  0.87959000  0.75407303  1
  O  O164  1  0.50215846  0.37545220  0.23499921  1
  O  O165  1  0.46324055  0.35589065  0.77814578  1
  O  O166  1  0.51222586  0.85694255  0.26779062  1
  O  O167  1  0.51788722  0.87034476  0.73443452  1
  O  O168  1  0.48394386  0.14649699  0.26322176  1
  O  O169  1  0.49814916  0.13741491  0.75176410  1
  O  O170  1  0.50220466  0.63016680  0.24888215  1
  O  O171  1  0.50481933  0.61839416  0.73242977  1
  O  O172  1  0.98142624  0.13395656  0.24676291  1
  O  O173  1  0.99748756  0.10374323  0.74118533  1
  O  O174  1  0.95299762  0.62275458  0.20445317  1
  O  O175  1  1.00717024  0.66371496  0.76000935  1
  O  O176  1  0.37023235  0.25514395  0.01924140  1
  O  O177  1  0.36990049  0.27490410  0.50134784  1
  O  O178  1  0.38679156  0.81073776  -0.04656712  1
  O  O179  1  0.37580255  0.75045716  0.50059174  1
  O  O180  1  0.85831491  0.24958921  -0.00596493  1
  O  O181  1  0.87065050  0.23473573  0.51012305  1
  O  O182  1  0.87131683  0.74645034  -0.04399927  1
  O  O183  1  0.86835412  0.71897713  0.52265841  1
  O  O184  1  0.10953463  0.23584182  0.48438729  1
  O  O185  1  0.08435522  0.15848006  1.00723865  1
  O  O186  1  0.16078254  0.73452808  0.51490737  1
  O  O187  1  0.16682825  0.71363603  1.09801970  1
  O  O188  1  0.65454084  0.28031727  0.49162504  1
  O  O189  1  0.62734143  0.24586441  1.00772750  1
  O  O190  1  0.62779616  0.72230653  0.49559744  1
  O  O191  1  0.61041760  0.73469679  0.97830807  1
  O  O192  1  0.47554744  0.25746232  0.13422286  1
  O  O193  1  0.46988691  0.26106022  0.64088409  1
  O  O194  1  0.50888288  0.73900637  0.14276524  1
  O  O195  1  0.51836593  0.73914228  0.63532516  1
  O  O196  1  1.00101290  0.23859219  0.12330298  1
  O  O197  1  0.98102399  0.24130445  0.61479760  1
  O  O198  1  0.99479765  0.72221970  0.10908736  1
  O  O199  1  1.00351875  0.77425603  0.63642704  1
  O  O200  1  0.00299987  0.23827042  0.37016340  1
  O  O201  1  -0.00681003  0.24233111  0.88154972  1
  O  O202  1  -0.00868341  0.76022541  0.36200199  1
  O  O203  1  0.01622255  0.77129456  0.86422876  1
  O  O204  1  0.49463143  0.27390061  0.35247137  1
  O  O205  1  0.51389999  0.25526707  0.88884128  1
  O  O206  1  0.51213378  0.74617174  0.36667550  1
  O  O207  1  0.51036401  0.74770992  0.85042495  1
  O  O208  1  0.22491201  0.13066322  0.48905653  1
  O  O209  1  0.23474769  0.10142383  0.95406888  1
  O  O210  1  0.26387102  0.63156874  0.49115334  1
  O  O211  1  0.26194064  0.62086902  0.98677450  1
  O  O212  1  0.74203461  0.13103123  0.49568649  1
  O  O213  1  0.73088520  0.14030722  1.00711225  1
  O  O214  1  0.73618230  0.61346831  0.50736030  1
  O  O215  1  0.73904251  0.62425616  0.98365617  1
  O  O216  1  0.25533699  0.37194434  0.01292529  1
  O  O217  1  0.24045794  0.38771564  0.48581259  1
  O  O218  1  0.25739845  0.85940469  0.04153557  1
  O  O219  1  0.27276917  0.85820669  0.48561545  1
  O  O220  1  0.76478557  0.35942314  -0.00081466  1
  O  O221  1  0.71012713  0.34418485  0.49895946  1
  O  O222  1  0.74097684  0.88549930  0.01834292  1
  O  O223  1  0.66947917  0.94876561  0.59919390  1
  O  O224  1  0.10810050  0.47663995  0.25928343  1
  O  O225  1  0.13340198  0.50854813  0.73923753  1
  O  O226  1  0.12963742  0.98383925  0.27249430  1
  O  O227  1  0.14764562  0.98705530  0.73697570  1
  O  O228  1  0.61977539  0.48846558  0.22704330  1
  O  O229  1  0.62044712  0.49542980  0.73691819  1
  O  O230  1  0.62703003  1.01843217  0.23429253  1
  O  O231  1  0.62940571  1.01775567  0.74547474  1
  O  O232  1  0.39294490  0.02165706  0.26278071  1
  O  O233  1  0.33698778  0.01923543  0.78161109  1
  O  O234  1  0.39250285  0.51193554  0.26724930  1
  O  O235  1  0.36400660  0.48661337  0.76503287  1
  O  O236  1  0.85273081  0.01073462  0.25753188  1
  O  O237  1  0.87743096  0.00191356  0.76859118  1
  O  O238  1  0.87574913  0.50133341  0.25541817  1
  O  O239  1  0.86306563  0.48301907  0.76395965  1
  O  O240  1  0.12434266  0.35051975  0.35436989  1
  O  O241  1  0.10986416  0.37201537  0.86707923  1
  O  O242  1  0.08494588  0.87153344  0.46530064  1
  O  O243  1  0.15688184  0.87448329  0.87892904  1
  O  O244  1  0.62432414  0.38814909  0.34921852  1
  O  O245  1  0.60729680  0.36746034  0.86417305  1
  O  O246  1  0.63516954  0.85794725  0.39100371  1
  O  O247  1  0.63645759  0.85809389  0.87756477  1
  O  O248  1  0.36240764  0.13675429  0.15099049  1
  O  O249  1  0.39643671  0.14747642  0.60357866  1
  O  O250  1  0.38330448  0.61712585  0.14541781  1
  O  O251  1  0.40481462  0.64562252  0.61334342  1
  O  O252  1  0.87087159  0.11540312  0.13936699  1
  O  O253  1  0.85848736  0.09596542  0.64329884  1
  O  O254  1  0.88293949  0.61394830  0.08020291  1
  O  O255  1  0.87624127  0.69694861  0.59119473  1
  O  O256  1  0.26122038  0.25952979  0.13788350  1
  O  O257  1  0.27390235  0.23521300  0.63280921  1
  O  O258  1  0.26570803  0.78539805  0.19757346  1
  O  O259  1  0.28046011  0.74295984  0.61974323  1
  O  O260  1  0.74582586  0.25319001  0.11571843  1
  O  O261  1  0.76808759  0.24652325  0.60428925  1
  O  O262  1  0.74387302  0.77212463  0.13378272  1
  O  O263  1  0.72066642  0.77972761  0.61318822  1
  O  O264  1  0.22977348  0.23647990  0.36351510  1
  O  O265  1  0.31373925  0.20212148  0.85877464  1
  O  O266  1  0.26309809  0.73541630  0.38412894  1
  O  O267  1  0.27850457  0.72221506  0.86691045  1
  O  O268  1  0.77473201  0.25143320  0.39049651  1
  O  O269  1  0.73170359  0.25734361  0.89133030  1
  O  O270  1  0.74924932  0.72505173  0.36469958  1
  O  O271  1  0.73711593  0.73633118  0.86249014  1
  O  O272  1  0.02696929  0.11537129  -0.00300434  1
  O  O273  1  0.00882605  0.11217791  0.50913518  1
  O  O274  1  0.00159224  0.62830800  0.00283050  1
  O  O275  1  0.03098331  0.64914876  0.49277861  1
  O  O276  1  0.51243365  0.11802995  0.00786478  1
  O  O277  1  0.50012982  0.14434245  0.47844520  1
  O  O278  1  0.47400941  0.64868084  0.01816438  1
  O  O279  1  0.51512604  0.60778319  0.50725916  1
  O  O280  1  0.51055160  0.38165955  0.50729038  1
  O  O281  1  0.47659549  0.36838675  0.98306555  1
  O  O282  1  0.50006982  0.85129322  0.47907864  1
  O  O283  1  0.50619180  0.89131183  1.01193470  1
  O  O284  1  1.03516241  0.39206186  0.48288096  1
  O  O285  1  0.99029953  0.36815005  0.98088280  1
  O  O286  1  1.01277460  0.90986916  0.47456346  1
  O  O287  1  1.05218669  0.84644138  0.99852667  1
  O  O288  1  0.49677124  0.49710944  0.38883920  1
  O  O289  1  0.48501982  0.48072738  0.86663709  1
  O  O290  1  0.53914684  0.97498532  0.38213219  1
  O  O291  1  0.50476284  0.99930100  0.89618835  1
  O  O292  1  0.98141983  0.54541210  0.36523517  1
  O  O293  1  0.98563156  0.51332046  0.86027692  1
  O  O294  1  0.97964120  0.98396609  0.34376575  1
  O  O295  1  1.01610299  0.96072750  0.88479312  1
  O  O296  1  0.01956882  -0.02051493  0.15291860  1
  O  O297  1  -0.02240987  -0.02984451  0.62147114  1
  O  O298  1  -0.01616624  0.51145057  0.10646631  1
  O  O299  1  0.00035104  0.51483646  0.64459415  1
  O  O300  1  0.51294001  -0.00274166  0.12923911  1
  O  O301  1  0.50292366  0.04335017  0.62232686  1
  O  O302  1  0.50637348  0.52556654  0.12518190  1
  O  O303  1  0.50269027  0.50274787  0.61791208  1
  O  O304  1  0.22862740  0.37087438  0.23622991  1
  O  O305  1  0.22834884  0.39928033  0.76439346  1
  O  O306  1  0.26444503  0.90276528  0.29539626  1
  O  O307  1  0.25677985  0.87533225  0.73634191  1
  O  O308  1  0.73578355  0.36497883  0.24129192  1
  O  O309  1  0.75299038  0.35405079  0.74908909  1
  O  O310  1  0.73864521  0.89879416  0.24387901  1
  O  O311  1  0.76333253  0.83163663  0.66259604  1
  O  O312  1  0.25864513  0.10864115  0.26981523  1
  O  O313  1  0.16167567  0.12892303  0.81104493  1
  O  O314  1  0.27026401  0.62801865  0.26974669  1
  O  O315  1  0.25114272  0.61361150  0.75789957  1
  O  O316  1  0.75681868  0.12376541  0.24591149  1
  O  O317  1  0.68941812  0.05335953  0.72034063  1
  O  O318  1  0.73868452  0.61394991  0.25349388  1
  O  O319  1  0.74919769  0.62921462  0.75103267  1
  O  O320  1  0.35539304  0.14156642  0.37233647  1
  O  O321  1  0.37090297  0.15073117  0.86974719  1
  O  O322  1  0.37869857  0.61333041  0.37186014  1
  O  O323  1  0.39038667  0.60648172  0.87532584  1
  O  O324  1  0.87327811  0.10490154  0.36355853  1
  O  O325  1  0.85848136  0.12520412  0.83553420  1
  O  O326  1  0.85543450  0.61649068  0.37182892  1
  O  O327  1  0.86159191  0.60939335  0.86929014  1
  O  O328  1  0.13187790  0.37811799  0.12958830  1
  O  O329  1  0.10877654  0.39843054  0.64236462  1
  O  O330  1  0.14665179  0.88196211  0.15196546  1
  O  O331  1  0.15636278  0.88761600  0.61163204  1
  O  O332  1  0.61163776  0.39396781  0.11128241  1
  O  O333  1  0.61802407  0.37626077  0.63664594  1
  O  O334  1  0.62716221  0.88810320  0.12672553  1
  O  O335  1  0.59775659  0.91777488  0.56883100  1
  O  O336  1  0.10561505  0.24644575  0.25092722  1
  O  O337  1  0.13251412  0.27400024  0.73905312  1
  O  O338  1  0.09837304  0.67109717  0.26124297  1
  O  O339  1  0.12909912  0.77220483  0.73145478  1
  O  O340  1  0.60645351  0.26885129  0.23379582  1
  O  O341  1  0.63500710  0.23784933  0.76856912  1
  O  O342  1  0.62170148  0.73954581  0.25279143  1
  O  O343  1  0.61956941  0.74796195  0.75667913  1
  O  O344  1  0.37909343  0.25246759  0.24557604  1
  O  O345  1  0.30628967  0.22600405  0.77874320  1
  O  O346  1  0.39851429  0.72893852  0.26029845  1
  O  O347  1  0.39937330  0.75954422  0.73028122  1
  O  O348  1  0.88373832  0.24051114  0.24407333  1
  O  O349  1  0.87277559  0.22598650  0.72637698  1
  O  O350  1  0.94897629  0.78802846  0.30118904  1
  O  O351  1  0.90616690  0.80112281  0.75888005  1
  O  O352  1  0.39251165  0.48502936  0.49140525  1
  O  O353  1  0.37019897  0.48474749  0.98668198  1
  O  O354  1  0.38395856  0.97467844  0.48965474  1
  O  O355  1  0.39374050  1.01297266  1.01239109  1
  O  O356  1  0.88749523  0.49230720  0.48369144  1
  O  O357  1  0.86518107  0.47407581  0.96917387  1
  O  O358  1  0.89720330  1.00766081  0.48669351  1
  O  O359  1  0.87190996  1.05483054  0.96768826  1
  O  O360  1  0.13654285  -0.00335349  0.03668893  1
  O  O361  1  0.11282160  0.01940597  0.51966953  1
  O  O362  1  0.12790579  0.49333094  -0.00610629  1
  O  O363  1  0.12475315  0.51514478  0.52651054  1
  O  O364  1  0.61700895  0.01371581  0.01542960  1
  O  O365  1  0.58205724  0.12487466  0.45843842  1
  O  O366  1  0.60639481  0.52633665  0.00365280  1
  O  O367  1  0.61685023  0.49666137  0.51450149  1
  O  O368  1  0.36289309  0.37177784  0.11722455  1
  O  O369  1  0.36152450  0.36432656  0.64292961  1
  O  O370  1  0.36040597  0.90753854  0.14831169  1
  O  O371  1  0.40741308  0.85705704  0.59880282  1
  O  O372  1  0.88637526  0.37976500  0.09853847  1
  O  O373  1  0.88237576  0.36304285  0.62276973  1
  O  O374  1  0.85632482  0.88905920  0.12814150  1
  O  O375  1  0.81813089  0.87211573  0.62686306  1
  O  O376  1  0.12488740  0.13375011  0.36862915  1
  O  O377  1  0.15653940  0.17261381  0.86963058  1
  O  O378  1  0.15190847  0.60440397  0.39879367  1
  O  O379  1  0.14107130  0.62693190  0.87875942  1
  O  O380  1  0.60252916  0.14266986  0.38532177  1
  O  O381  1  0.61970502  0.14025141  0.89501817  1
  O  O382  1  0.63968772  0.60037812  0.38729035  1
  O  O383  1  0.63122856  0.62618359  0.87672545  1
