# generated using pymatgen
data_VZnO4
_symmetry_space_group_name_H-M   'P 1'
_cell_length_a   16.98798440
_cell_length_b   16.82903125
_cell_length_c   16.95034988
_cell_angle_alpha   90.12857581
_cell_angle_beta   90.05457105
_cell_angle_gamma   90.02557653
_symmetry_Int_Tables_number   1
_chemical_formula_structural   VZnO4
_chemical_formula_sum   'V64 Zn64 O256'
_cell_volume   4845.94301948
_cell_formula_units_Z   64
loop_
 _symmetry_equiv_pos_site_id
 _symmetry_equiv_pos_as_xyz
  1  'x, y, z'
loop_
 _atom_site_type_symbol
 _atom_site_label
 _atom_site_symmetry_multiplicity
 _atom_site_fract_x
 _atom_site_fract_y
 _atom_site_fract_z
 _atom_site_occupancy
  V  V0  1  0.11869884  0.36762566  0.25424288  1
  V  V1  1  0.11194182  0.13009994  0.50860608  1
  V  V2  1  0.38023592  0.50154971  0.86947142  1
  V  V3  1  0.48067013  0.63147838  0.13843132  1
  V  V4  1  0.62861079  0.27700793  0.35699300  1
  V  V5  1  0.37806737  0.36488211  0.49042248  1
  V  V6  1  0.13018394  0.24097857  0.87953223  1
  V  V7  1  -0.01714409  -0.00012618  0.48663534  1
  V  V8  1  0.75187832  0.13202180  0.36829312  1
  V  V9  1  0.49713406  0.75506843  0.74759249  1
  V  V10  1  0.13413563  0.73332382  0.85391861  1
  V  V11  1  0.24072665  0.50098544  0.24637704  1
  V  V12  1  0.35624087  0.37593414  -0.00442176  1
  V  V13  1  0.49029839  -0.00035357  0.48521975  1
  V  V14  1  0.11467953  -0.01673982  0.13162761  1
  V  V15  1  0.76322729  0.86445546  0.09337937  1
  V  V16  1  0.47883796  0.88657675  0.88274919  1
  V  V17  1  0.01296654  0.62110295  0.63963577  1
  V  V18  1  0.75630984  -0.01356800  0.23989898  1
  V  V19  1  0.63209934  0.13996524  0.01257155  1
  V  V20  1  0.09572321  0.86399687  0.25755081  1
  V  V21  1  0.88643263  0.37830714  0.52109613  1
  V  V22  1  0.24492558  0.37144567  0.61721647  1
  V  V23  1  0.49207798  0.50130674  0.00778608  1
  V  V24  1  0.12456982  0.11744603  -0.00004727  1
  V  V25  1  0.65441928  0.75923095  0.35308226  1
  V  V26  1  0.22037976  0.13916013  0.37009934  1
  V  V27  1  0.88611409  0.21297725  0.62500369  1
  V  V28  1  0.85917029  0.61336252  0.75348299  1
  V  V29  1  0.74499903  0.25007764  0.50907501  1
  V  V30  1  0.23889052  0.50000978  0.75679791  1
  V  V31  1  0.00389249  0.21371870  0.74408441  1
  V  V32  1  0.01764819  0.50460210  0.51188259  1
  V  V33  1  0.37905792  0.12962595  0.26439390  1
  V  V34  1  0.00766250  0.15167208  0.13255290  1
  V  V35  1  -0.00565131  0.51895653  0.00992290  1
  V  V36  1  0.50167703  0.50317826  0.50018258  1
  V  V37  1  0.36823262  0.63148247  0.74502716  1
  V  V38  1  0.63309602  0.89996847  0.75461360  1
  V  V39  1  -0.01354668  0.36402831  0.88007439  1
  V  V40  1  0.25390032  -0.01207528  0.26136537  1
  V  V41  1  0.74810358  0.11304368  0.86781638  1
  V  V42  1  0.37971610  0.23873847  0.63984087  1
  V  V43  1  0.50391343  0.62735817  0.62043774  1
  V  V44  1  0.25498648  0.88182107  0.61396293  1
  V  V45  1  0.61704671  0.25106238  0.84117146  1
  V  V46  1  0.62774071  0.74515138  0.87724197  1
  V  V47  1  0.75980950  0.73691071  0.52834411  1
  V  V48  1  -0.04008312  0.66293098  0.16614342  1
  V  V49  1  0.11860293  0.36859193  0.74848735  1
  V  V50  1  0.36095644  0.25945610  0.12796646  1
  V  V51  1  0.48670974  0.12345543  0.11560034  1
  V  V52  1  0.37140736  0.51020796  0.37324720  1
  V  V53  1  0.52273345  0.11420572  0.62302801  1
  V  V54  1  0.34766443  0.75601212  0.11725540  1
  V  V55  1  0.62337435  0.62181198  0.00032269  1
  V  V56  1  0.24041490  0.63215294  0.39338123  1
  V  V57  1  0.86320561  0.14624929  0.22434842  1
  V  V58  1  -0.00838700  0.77669480  0.74174053  1
  V  V59  1  0.60822193  -0.01855114  0.12499419  1
  V  V60  1  0.88267738  0.50329124  0.38231196  1
  V  V61  1  0.10567562  0.74941910  0.39206130  1
  V  V62  1  0.74108773  0.48424147  0.27376363  1
  V  V63  1  0.92930083  -0.04164595  0.89081775  1
  Zn  Zn64  1  0.19008331  0.18848901  0.18968376  1
  Zn  Zn65  1  0.18918580  0.19093696  0.67559839  1
  Zn  Zn66  1  0.22059211  0.70532766  0.21851418  1
  Zn  Zn67  1  0.18647277  0.69304454  0.68769360  1
  Zn  Zn68  1  0.67505313  0.20332119  0.18720479  1
  Zn  Zn69  1  0.69805141  0.17545251  0.68784119  1
  Zn  Zn70  1  0.67989696  0.68398544  0.17342494  1
  Zn  Zn71  1  0.68379971  0.69076222  0.68563101  1
  Zn  Zn72  1  0.30471650  0.31467907  0.31171829  1
  Zn  Zn73  1  0.30905426  0.31140434  0.81270419  1
  Zn  Zn74  1  0.32592824  0.79882276  0.32396317  1
  Zn  Zn75  1  0.27311081  0.86956353  0.83608127  1
  Zn  Zn76  1  0.83681040  0.31580103  0.32256043  1
  Zn  Zn77  1  0.83355494  0.25632546  0.83929812  1
  Zn  Zn78  1  0.83221470  0.66936981  0.30394742  1
  Zn  Zn79  1  0.81272908  0.80998419  0.80890656  1
  Zn  Zn80  1  0.18699454  0.42828973  0.43139386  1
  Zn  Zn81  1  0.17620792  0.47589595  1.06944325  1
  Zn  Zn82  1  0.16875265  0.94584183  0.42820550  1
  Zn  Zn83  1  0.11889119  0.88824855  0.95480127  1
  Zn  Zn84  1  0.70257574  0.44866745  0.46491336  1
  Zn  Zn85  1  0.64837702  0.41083257  0.94514873  1
  Zn  Zn86  1  0.64619763  0.95794636  0.39933717  1
  Zn  Zn87  1  0.67052987  0.94239827  0.93686797  1
  Zn  Zn88  1  0.29131747  0.07037716  0.08454837  1
  Zn  Zn89  1  0.31639713  0.07042805  0.53217858  1
  Zn  Zn90  1  0.31022303  0.59754822  0.04001516  1
  Zn  Zn91  1  0.31108704  0.55803077  0.56352441  1
  Zn  Zn92  1  0.90589975  -0.00824183  0.10257283  1
  Zn  Zn93  1  0.77584050  0.02021957  0.51717270  1
  Zn  Zn94  1  0.82016332  0.56521218  0.05345065  1
  Zn  Zn95  1  0.81587400  0.56135495  0.58062396  1
  Zn  Zn96  1  0.43784448  0.43576637  0.19170833  1
  Zn  Zn97  1  0.40985953  0.45252337  0.66376509  1
  Zn  Zn98  1  0.41605073  0.93987952  0.17428533  1
  Zn  Zn99  1  0.45025511  0.93494742  0.67360048  1
  Zn  Zn100  1  0.97278267  0.48555919  0.20498181  1
  Zn  Zn101  1  0.93494045  0.44328094  0.69319538  1
  Zn  Zn102  1  0.88638939  0.84032167  0.22488994  1
  Zn  Zn103  1  0.95672536  1.01439360  0.70292738  1
  Zn  Zn104  1  0.04366604  0.05682147  0.30413769  1
  Zn  Zn105  1  0.11974616  0.01338880  0.84683876  1
  Zn  Zn106  1  0.06607321  0.56127089  0.32500109  1
  Zn  Zn107  1  0.05602471  0.55367366  0.82677165  1
  Zn  Zn108  1  0.57170570  0.07879214  0.30033865  1
  Zn  Zn109  1  0.53977518  0.08070703  0.82291274  1
  Zn  Zn110  1  0.56290472  0.56571946  0.31726548  1
  Zn  Zn111  1  0.55613221  0.56212447  0.81164606  1
  Zn  Zn112  1  0.45923778  0.18933263  0.43871750  1
  Zn  Zn113  1  0.47132171  0.21960020  0.95432224  1
  Zn  Zn114  1  0.43928744  0.69546135  0.43421309  1
  Zn  Zn115  1  0.42974156  0.69386768  0.93505583  1
  Zn  Zn116  1  0.94464920  0.19496025  0.42852398  1
  Zn  Zn117  1  0.90311376  0.12262130  0.98806279  1
  Zn  Zn118  1  0.93304471  0.68673147  0.46125718  1
  Zn  Zn119  1  0.95439135  0.68271633  0.90481755  1
  Zn  Zn120  1  0.07176826  0.33307967  0.05871344  1
  Zn  Zn121  1  0.06174215  0.30493006  0.56111467  1
  Zn  Zn122  1  0.16432296  0.69027739  0.03034207  1
  Zn  Zn123  1  0.05333472  0.81973590  0.57062194  1
  Zn  Zn124  1  0.54202454  0.31973345  0.08614122  1
  Zn  Zn125  1  0.55472497  0.31350076  0.57103379  1
  Zn  Zn126  1  0.54039696  0.80089496  0.05524438  1
  Zn  Zn127  1  0.62780545  0.87024424  0.54388388  1
  O  O128  1  0.11555462  0.12193627  0.12726594  1
  O  O129  1  0.12675064  0.12599676  0.60727869  1
  O  O130  1  0.05296376  0.69025737  0.10547841  1
  O  O131  1  0.11373279  0.62219454  0.63638726  1
  O  O132  1  0.59868524  0.13388538  0.12512006  1
  O  O133  1  0.62200749  0.11749275  0.62511628  1
  O  O134  1  0.59888894  0.63419872  0.10465296  1
  O  O135  1  0.60220405  0.62748724  0.62859269  1
  O  O136  1  0.36759226  0.38205594  0.38807415  1
  O  O137  1  0.36528287  0.38341725  0.88578512  1
  O  O138  1  0.48023281  0.87295748  0.33050991  1
  O  O139  1  0.38109065  0.87678106  0.85906074  1
  O  O140  1  0.87338775  0.39317675  0.40654136  1
  O  O141  1  0.89001545  0.35254655  0.85085498  1
  O  O142  1  0.89145394  0.87375485  0.37500557  1
  O  O143  1  0.88104818  0.87039866  0.88015018  1
  O  O144  1  0.23770081  0.01585466  0.36232562  1
  O  O145  1  0.35708256  0.07225439  0.86607108  1
  O  O146  1  0.25882973  0.50661657  0.37924401  1
  O  O147  1  0.26145710  0.49780229  0.85476704  1
  O  O148  1  0.73928048  0.02351810  0.34642218  1
  O  O149  1  0.75014042  0.01667581  0.89770038  1
  O  O150  1  0.76499551  0.50364659  0.37821679  1
  O  O151  1  0.73637575  0.47373620  0.86403689  1
  O  O152  1  0.26154776  0.50738457  0.14931198  1
  O  O153  1  0.26767212  0.47906984  0.64033986  1
  O  O154  1  0.22739730  1.00513020  0.15346996  1
  O  O155  1  0.26399303  0.98568776  0.60639357  1
  O  O156  1  0.77082769  0.53471907  0.17429599  1
  O  O157  1  0.73699531  0.48211699  0.56990862  1
  O  O158  1  0.72715170  0.96200034  0.13096967  1
  O  O159  1  0.77888806  0.98483843  0.64859930  1
  O  O160  1  0.01942679  0.38874145  0.23285637  1
  O  O161  1  0.01563828  0.37676512  0.74562592  1
  O  O162  1  -0.00217314  0.86855106  0.25393568  1
  O  O163  1  -0.01084712  0.87413092  0.72885009  1
  O  O164  1  0.53411205  0.38157851  0.17893750  1
  O  O165  1  0.57360074  0.42595368  0.70539247  1
  O  O166  1  0.48284182  0.86193541  0.25789215  1
  O  O167  1  0.50016424  0.86376107  0.75298482  1
  O  O168  1  0.48138099  0.12253414  0.24321249  1
  O  O169  1  0.49047296  0.10426500  0.71872357  1
  O  O170  1  0.50145146  0.61694141  0.23504655  1
  O  O171  1  0.48682105  0.62496086  0.74135961  1
  O  O172  1  0.97945509  0.12935772  0.23684705  1
  O  O173  1  1.01845755  0.11617522  0.74366656  1
  O  O174  1  0.99168430  0.60232160  0.24637132  1
  O  O175  1  0.99588078  0.61701903  0.74583169  1
  O  O176  1  0.37829858  0.26907130  0.00347704  1
  O  O177  1  0.38357536  0.26350443  0.49543013  1
  O  O178  1  0.35171137  0.71342275  0.01383290  1
  O  O179  1  0.39849141  0.79442895  0.40690342  1
  O  O180  1  0.87910459  0.34194481  0.08926718  1
  O  O181  1  0.88540032  0.25425874  0.51870283  1
  O  O182  1  0.91706361  0.76508429  -0.00357743  1
  O  O183  1  0.85773163  0.75929014  0.50205119  1
  O  O184  1  0.11108746  0.23257236  0.49066976  1
  O  O185  1  0.12393595  0.23787907  0.98438152  1
  O  O186  1  0.11579030  0.76104551  0.49058356  1
  O  O187  1  0.12551817  0.77297704  0.95950218  1
  O  O188  1  0.64666903  0.25826049  0.52255919  1
  O  O189  1  0.58874498  0.24072353  1.00746655  1
  O  O190  1  0.67748845  0.78488733  0.48024551  1
  O  O191  1  0.61195788  0.73595476  0.98609605  1
  O  O192  1  0.47300210  0.23127125  0.12302717  1
  O  O193  1  0.48696146  0.23128829  0.61831184  1
  O  O194  1  0.47247964  0.73808537  0.12211476  1
  O  O195  1  0.49239953  0.73799362  0.64436435  1
  O  O196  1  1.01271974  0.24966547  0.12647034  1
  O  O197  1  0.99495376  0.24310461  0.63629128  1
  O  O198  1  1.01637097  0.75576642  0.13909500  1
  O  O199  1  1.00593571  0.73785872  0.63651957  1
  O  O200  1  -0.05955323  0.27610201  0.35385365  1
  O  O201  1  0.00981964  0.24353233  0.84688898  1
  O  O202  1  0.00721019  0.73650131  0.38339261  1
  O  O203  1  0.01787394  0.75960624  0.84907429  1
  O  O204  1  0.53321269  0.25451385  0.38545393  1
  O  O205  1  0.52128291  0.19945162  0.85529955  1
  O  O206  1  0.55430268  0.71390887  0.39912062  1
  O  O207  1  0.49645905  0.75409551  0.86252167  1
  O  O208  1  0.22602429  0.11795449  0.47690793  1
  O  O209  1  0.22454595  0.11681004  1.00797243  1
  O  O210  1  0.24966339  0.62102990  0.49354278  1
  O  O211  1  0.20078332  0.58273213  1.02557479  1
  O  O212  1  0.75810267  0.13261573  0.47403635  1
  O  O213  1  0.72580831  0.15055601  1.02963553  1
  O  O214  1  0.74959582  0.63622171  0.52125157  1
  O  O215  1  0.72121922  0.60539567  1.01069657  1
  O  O216  1  0.26130637  0.39092893  0.00823728  1
  O  O217  1  0.26096861  0.37978855  0.51233983  1
  O  O218  1  0.30106721  0.92871310  -0.00938032  1
  O  O219  1  0.24430881  0.88156424  0.50890647  1
  O  O220  1  0.72725137  0.38632415  0.02629836  1
  O  O221  1  0.77151124  0.35076040  0.50852885  1
  O  O222  1  0.74038605  0.87006532  -0.00297101  1
  O  O223  1  0.83161714  0.88017758  0.41418774  1
  O  O224  1  0.13580108  0.49792317  0.25398982  1
  O  O225  1  0.13565186  0.48840201  0.75736525  1
  O  O226  1  0.12606105  0.97847295  0.25499601  1
  O  O227  1  0.17355704  1.04347550  0.74354903  1
  O  O228  1  0.64158641  0.49538512  0.27623885  1
  O  O229  1  0.61626146  0.48409157  0.74104875  1
  O  O230  1  0.63692614  1.00847592  0.22823578  1
  O  O231  1  0.61714818  0.99771466  0.77176402  1
  O  O232  1  0.36081435  0.01347160  0.24809467  1
  O  O233  1  0.36137807  -0.01552111  0.71851872  1
  O  O234  1  0.37105107  0.48777071  0.27055733  1
  O  O235  1  0.37207808  0.49938408  0.75891856  1
  O  O236  1  0.85124294  0.01840316  0.21593426  1
  O  O237  1  0.91253321  0.01457130  0.80790425  1
  O  O238  1  0.88133340  0.49120155  0.28140533  1
  O  O239  1  0.87232493  0.51083458  0.75613304  1
  O  O240  1  0.12227285  0.37607871  0.35789389  1
  O  O241  1  0.11177479  0.34845780  0.86244429  1
  O  O242  1  0.11977159  0.86174368  0.36654914  1
  O  O243  1  0.19531834  0.93596573  0.88153051  1
  O  O244  1  0.64615281  0.36938375  0.39594635  1
  O  O245  1  0.59964095  0.34891156  0.86694392  1
  O  O246  1  0.63894823  0.86009053  0.34474886  1
  O  O247  1  0.60563494  0.86275639  0.87042708  1
  O  O248  1  0.37615537  0.12459785  0.13486096  1
  O  O249  1  0.35497406  0.14292161  0.61264605  1
  O  O250  1  0.37855653  0.62137412  0.13218180  1
  O  O251  1  0.37842412  0.61868869  0.63982850  1
  O  O252  1  0.89638763  0.12615684  0.11384829  1
  O  O253  1  0.88994268  0.11615019  0.62232456  1
  O  O254  1  0.88166188  0.64878646  0.10285610  1
  O  O255  1  0.89076522  0.62094118  0.64223233  1
  O  O256  1  0.26487302  0.23608590  0.11506440  1
  O  O257  1  0.26286895  0.26488774  0.62990966  1
  O  O258  1  0.23927288  0.73804187  0.11002355  1
  O  O259  1  0.24511449  0.77564259  0.61815659  1
  O  O260  1  0.73401264  0.28278635  0.11060310  1
  O  O261  1  0.77348510  0.22435212  0.61430428  1
  O  O262  1  0.73646679  0.77434783  0.12986762  1
  O  O263  1  0.74593031  0.76433030  0.62591595  1
  O  O264  1  0.24736450  0.23649128  0.37088946  1
  O  O265  1  0.22753576  0.24095883  0.85697285  1
  O  O266  1  0.24056535  0.73530524  0.37749112  1
  O  O267  1  0.23142134  0.76210720  0.84188570  1
  O  O268  1  0.74775143  0.25040828  0.38841727  1
  O  O269  1  0.72114331  0.23849375  0.86615603  1
  O  O270  1  0.75380806  0.73362121  0.35235199  1
  O  O271  1  0.72491851  0.75038587  0.86853367  1
  O  O272  1  0.01426826  0.12749166  0.02283215  1
  O  O273  1  0.00262674  0.11988212  0.48923246  1
  O  O274  1  0.01654471  0.60827413  -0.03572122  1
  O  O275  1  0.00017125  0.61299659  0.52247432  1
  O  O276  1  0.48666813  0.11372717  0.01533991  1
  O  O277  1  0.50178703  0.11316059  0.51075703  1
  O  O278  1  0.49492488  0.61433544  0.00046112  1
  O  O279  1  0.48074523  0.62187671  0.51450195  1
  O  O280  1  0.48560617  0.38899046  0.50898481  1
  O  O281  1  0.48228005  0.39452763  1.00783209  1
  O  O282  1  0.52224065  0.90206280  0.49810333  1
  O  O283  1  0.48392255  0.86627485  0.98173385  1
  O  O284  1  0.99414070  0.38610967  0.51618005  1
  O  O285  1  0.98704746  0.33250453  0.97472153  1
  O  O286  1  0.99914243  0.89797418  0.51350503  1
  O  O287  1  0.96373370  0.81972688  1.01167171  1
  O  O288  1  0.48115300  0.51403462  0.38820260  1
  O  O289  1  0.48364395  0.49668193  0.87854293  1
  O  O290  1  0.54303166  1.01606859  0.39147453  1
  O  O291  1  0.49592337  0.98683425  0.87496416  1
  O  O292  1  0.99325345  0.50642995  0.40066808  1
  O  O293  1  1.00104667  0.46861078  0.88154316  1
  O  O294  1  0.99125894  0.99767929  0.38329460  1
  O  O295  1  1.03397807  0.94602046  0.89216802  1
  O  O296  1  0.01489440  0.00413833  0.14234342  1
  O  O297  1  0.00543468  0.00123670  0.60396220  1
  O  O298  1  -0.00527358  0.54766170  0.11139096  1
  O  O299  1  0.00615629  0.50650500  0.62240020  1
  O  O300  1  0.50157786  0.00865416  0.13655771  1
  O  O301  1  0.50020370  0.00626926  0.60184978  1
  O  O302  1  0.48462315  0.51397788  0.11085335  1
  O  O303  1  0.49042353  0.51262061  0.61192778  1
  O  O304  1  0.24126805  0.39224953  0.25964054  1
  O  O305  1  0.23964801  0.38055801  0.74366763  1
  O  O306  1  0.26660557  0.88862327  0.27262752  1
  O  O307  1  0.25809558  0.88596854  0.71739233  1
  O  O308  1  0.76411615  0.38647874  0.26186859  1
  O  O309  1  0.74805039  0.43695250  0.80168018  1
  O  O310  1  0.78067628  0.89116328  0.25912978  1
  O  O311  1  0.73057945  0.88070617  0.77204516  1
  O  O312  1  0.25882781  0.12132123  0.26146071  1
  O  O313  1  0.22536269  0.09911322  0.74862745  1
  O  O314  1  0.24444906  0.60869933  0.27609351  1
  O  O315  1  0.25893002  0.61042019  0.73617653  1
  O  O316  1  0.75528361  0.13045804  0.22685464  1
  O  O317  1  0.75108655  0.11194362  0.76748178  1
  O  O318  1  0.75588069  0.60274222  0.22690461  1
  O  O319  1  0.75942228  0.62348578  0.73599191  1
  O  O320  1  0.38007638  0.13751424  0.36396646  1
  O  O321  1  0.35051721  0.13988164  0.89288319  1
  O  O322  1  0.36178090  0.61558571  0.38229593  1
  O  O323  1  0.37407427  0.60984466  0.86039615  1
  O  O324  1  0.85499016  0.13694434  0.33962946  1
  O  O325  1  0.84193284  0.15543942  0.90129881  1
  O  O326  1  0.87765440  0.61027416  0.39152835  1
  O  O327  1  0.86719727  0.63687633  0.85502857  1
  O  O328  1  0.14265573  0.38218517  0.13471524  1
  O  O329  1  0.14068675  0.36519926  0.62865764  1
  O  O330  1  0.11977286  0.88085962  0.14408608  1
  O  O331  1  0.14989933  0.88743328  0.62004650  1
  O  O332  1  0.69622048  0.34896315  0.09369923  1
  O  O333  1  0.61388476  0.38874674  0.64843700  1
  O  O334  1  0.59573040  0.88245602  0.11697910  1
  O  O335  1  0.61921145  0.88052946  0.65632152  1
  O  O336  1  0.13057954  0.26684940  0.24186541  1
  O  O337  1  0.11577175  0.24884290  0.74453108  1
  O  O338  1  0.12702380  0.76225137  0.26028713  1
  O  O339  1  0.11263793  0.75869825  0.74751375  1
  O  O340  1  0.63088399  0.28348222  0.25553458  1
  O  O341  1  0.62452826  0.24797743  0.74118441  1
  O  O342  1  0.62545046  0.72793492  0.26074064  1
  O  O343  1  0.60584497  0.74130955  0.76273112  1
  O  O344  1  0.36522330  0.24177873  0.23824349  1
  O  O345  1  0.37445489  0.24889511  0.73965867  1
  O  O346  1  0.33953030  0.74418573  0.22300047  1
  O  O347  1  0.38218996  0.73213174  0.75592766  1
  O  O348  1  0.85921630  0.24489608  0.22069805  1
  O  O349  1  0.89252446  0.22830577  0.73633494  1
  O  O350  1  0.90128142  0.72732809  0.23417178  1
  O  O351  1  0.89000316  0.74681163  0.74917571  1
  O  O352  1  0.37756956  0.48964613  0.49192598  1
  O  O353  1  0.37516738  0.50056498  0.98521146  1
  O  O354  1  0.38990006  1.00244073  0.47369505  1
  O  O355  1  0.34538597  0.98630902  1.00472271  1
  O  O356  1  0.88865329  0.49069193  0.50935005  1
  O  O357  1  0.89390343  0.49412004  1.00396336  1
  O  O358  1  0.88260390  1.01046296  0.49725495  1
  O  O359  1  0.90278896  1.00420538  0.98395757  1
  O  O360  1  0.12273676  -0.00022549  0.02534301  1
  O  O361  1  0.10535834  0.01839486  0.48490699  1
  O  O362  1  0.07483941  0.45096033  0.01694763  1
  O  O363  1  0.11531809  0.49154520  0.50044762  1
  O  O364  1  0.62414326  0.01836136  0.02453968  1
  O  O365  1  0.68289652  -0.03467979  0.50550805  1
  O  O366  1  0.59919834  0.50758633  -0.01135146  1
  O  O367  1  0.59802021  0.50221343  0.48895096  1
  O  O368  1  0.36848315  0.36437710  0.12134340  1
  O  O369  1  0.37064954  0.35801347  0.61536321  1
  O  O370  1  0.36657527  0.85687873  0.11476972  1
  O  O371  1  0.35832347  0.86660095  0.60690576  1
  O  O372  1  0.86285337  0.39623904  0.13437622  1
  O  O373  1  0.87565258  0.37381252  0.62232562  1
  O  O374  1  0.86536480  0.88077043  0.11508634  1
  O  O375  1  0.83859444  0.94564218  0.66576157  1
  O  O376  1  0.12168796  0.13332858  0.35353352  1
  O  O377  1  0.11450432  0.12096635  0.89282210  1
  O  O378  1  0.13096271  0.63619911  0.38364359  1
  O  O379  1  0.13581800  0.63257639  0.85734780  1
  O  O380  1  0.64934997  0.15421582  0.34549279  1
  O  O381  1  0.63851096  0.12311388  0.90167245  1
  O  O382  1  0.60559275  0.64859449  0.39596620  1
  O  O383  1  0.61256869  0.63232609  0.88414890  1
