# generated using pymatgen
data_VZnO4
_symmetry_space_group_name_H-M   'P 1'
_cell_length_a   17.01405742
_cell_length_b   16.96116055
_cell_length_c   16.99630035
_cell_angle_alpha   89.90930810
_cell_angle_beta   90.41543509
_cell_angle_gamma   89.66941774
_symmetry_Int_Tables_number   1
_chemical_formula_structural   VZnO4
_chemical_formula_sum   'V64 Zn64 O256'
_cell_volume   4904.54403331
_cell_formula_units_Z   64
loop_
 _symmetry_equiv_pos_site_id
 _symmetry_equiv_pos_as_xyz
  1  'x, y, z'
loop_
 _atom_site_type_symbol
 _atom_site_label
 _atom_site_symmetry_multiplicity
 _atom_site_fract_x
 _atom_site_fract_y
 _atom_site_fract_z
 _atom_site_occupancy
  V  V0  1  0.25118478  0.75181450  -0.01220279  1
  V  V1  1  0.73147565  0.85720057  0.61213733  1
  V  V2  1  0.51196341  0.39304239  0.36242934  1
  V  V3  1  0.10089162  0.62831224  -0.00860901  1
  V  V4  1  0.24711840  0.63187111  0.86480850  1
  V  V5  1  0.71859521  0.12398225  0.87513907  1
  V  V6  1  0.39691682  0.39389463  0.50010055  1
  V  V7  1  0.24639428  0.37812035  0.62176428  1
  V  V8  1  0.47713111  0.75584808  0.26705490  1
  V  V9  1  0.74399752  0.51146759  0.27191613  1
  V  V10  1  0.12675607  0.75071832  0.38363926  1
  V  V11  1  0.76929451  0.37947977  0.63185112  1
  V  V12  1  0.87785890  0.37118757  0.47557305  1
  V  V13  1  0.39788318  0.75703097  0.62735766  1
  V  V14  1  0.82111960  0.57589929  0.84051841  1
  V  V15  1  0.24618841  0.14735826  0.38034615  1
  V  V16  1  -0.00160500  0.88356934  0.37894117  1
  V  V17  1  0.36495176  -0.02461588  0.37726823  1
  V  V18  1  0.72212683  0.23790196  -0.00065773  1
  V  V19  1  0.75287408  0.65817285  0.39209542  1
  V  V20  1  0.12994373  0.76248008  0.85068742  1
  V  V21  1  0.87197770  0.75163142  0.59415859  1
  V  V22  1  0.00251716  0.88215200  0.86390128  1
  V  V23  1  0.01689749  0.11945277  0.12566648  1
  V  V24  1  0.24166037  0.38635419  0.12982128  1
  V  V25  1  -0.00557934  0.26108172  0.24591802  1
  V  V26  1  0.34431946  0.05688255  0.90344347  1
  V  V27  1  0.40119647  0.25754099  0.62007827  1
  V  V28  1  0.24713510  0.89126619  0.12036581  1
  V  V29  1  0.00285197  0.51126039  0.47181821  1
  V  V30  1  0.25273613  0.61999223  0.39039700  1
  V  V31  1  0.36814264  0.25436442  0.14088532  1
  V  V32  1  0.12679317  0.88205779  0.24433876  1
  V  V33  1  0.39211601  0.12405665  0.73122910  1
  V  V34  1  0.40326615  0.63561356  0.75347391  1
  V  V35  1  0.73468613  -0.02646942  0.75811707  1
  V  V36  1  0.48980971  0.02354414  0.49928758  1
  V  V37  1  0.49820687  0.12462954  0.12467870  1
  V  V38  1  0.50573858  0.50785340  -0.00324131  1
  V  V39  1  0.50023071  0.00445483  -0.00707254  1
  V  V40  1  0.66018788  0.93465139  0.25123239  1
  V  V41  1  0.48918435  0.61875445  0.12886670  1
  V  V42  1  0.02851080  0.01187769  -0.01315767  1
  V  V43  1  0.87140397  0.13164577  0.73915345  1
  V  V44  1  -0.02108983  0.75628211  0.74684348  1
  V  V45  1  0.00800691  0.62845244  0.62087187  1
  V  V46  1  0.34680644  0.60722164  0.23866171  1
  V  V47  1  0.24674534  0.00602342  0.72705257  1
  V  V48  1  0.61384973  0.24454897  0.39044005  1
  V  V49  1  0.63280993  0.64825696  0.01569591  1
  V  V50  1  0.62077653  0.51445167  0.62370766  1
  V  V51  1  0.86758301  0.00246744  0.88210609  1
  V  V52  1  0.10796282  0.11756257  0.49892526  1
  V  V53  1  0.63977326  0.38540342  0.75511521  1
  V  V54  1  0.51519825  0.37508180  0.87000729  1
  V  V55  1  0.37041301  0.75027540  0.11661115  1
  V  V56  1  0.73030043  0.38022358  0.12809846  1
  V  V57  1  0.23047457  0.50679947  0.74014235  1
  V  V58  1  0.36460112  0.11213063  0.25445892  1
  V  V59  1  0.37707656  0.50563195  0.86964732  1
  V  V60  1  0.85360815  0.22511404  0.12217643  1
  V  V61  1  0.37960671  0.87856876  -0.01688080  1
  V  V62  1  0.36921221  0.36614390  -0.01071761  1
  V  V63  1  0.24604786  0.86664248  0.61161217  1
  Zn  Zn64  1  0.18657577  0.19894966  0.18992723  1
  Zn  Zn65  1  0.21548892  0.17641751  0.65013471  1
  Zn  Zn66  1  0.17227225  0.69601236  0.17394408  1
  Zn  Zn67  1  0.19369952  0.68964509  0.67159335  1
  Zn  Zn68  1  0.67992318  0.14547020  0.20710724  1
  Zn  Zn69  1  0.69597407  0.20585260  0.70388181  1
  Zn  Zn70  1  0.62574543  0.63075581  0.26483689  1
  Zn  Zn71  1  0.71881623  0.67691849  0.68924240  1
  Zn  Zn72  1  0.31428543  0.33295416  0.31890392  1
  Zn  Zn73  1  0.32742538  0.32102811  0.79250912  1
  Zn  Zn74  1  0.27927175  0.79098014  0.28834783  1
  Zn  Zn75  1  0.31665837  0.82206133  0.79669751  1
  Zn  Zn76  1  0.80749331  0.31212393  0.29485386  1
  Zn  Zn77  1  0.80453177  0.30627975  0.82016713  1
  Zn  Zn78  1  0.79702949  0.83764178  0.33726535  1
  Zn  Zn79  1  0.71200981  0.73366459  0.87146684  1
  Zn  Zn80  1  0.21248320  0.48512718  0.47833217  1
  Zn  Zn81  1  0.19250347  0.45116323  0.94292625  1
  Zn  Zn82  1  0.19323888  0.94137434  0.43368414  1
  Zn  Zn83  1  0.19526962  0.94198916  0.91716662  1
  Zn  Zn84  1  0.69091531  0.42745896  0.44571446  1
  Zn  Zn85  1  0.70067826  0.44571680  0.95657259  1
  Zn  Zn86  1  0.62568918  0.88491150  0.44522607  1
  Zn  Zn87  1  0.68456295  0.92454846  0.94477858  1
  Zn  Zn88  1  0.30670286  0.07078225  0.06992872  1
  Zn  Zn89  1  0.31713205  0.06367181  0.55309528  1
  Zn  Zn90  1  0.30703210  0.56109913  0.05243426  1
  Zn  Zn91  1  0.33624449  0.57271589  0.57287844  1
  Zn  Zn92  1  0.81618846  0.06855351  0.05123115  1
  Zn  Zn93  1  0.77869650  0.05386001  0.58434971  1
  Zn  Zn94  1  0.80283755  0.56279165  0.10535999  1
  Zn  Zn95  1  0.81499858  0.55823539  0.55947442  1
  Zn  Zn96  1  0.43537835  0.43504433  0.18250994  1
  Zn  Zn97  1  0.44786746  0.44784368  0.68591707  1
  Zn  Zn98  1  0.43425308  0.93903455  0.17847184  1
  Zn  Zn99  1  0.43970078  0.93416706  0.67681137  1
  Zn  Zn100  1  0.89498823  0.42218407  0.18722389  1
  Zn  Zn101  1  0.95908317  0.43139192  0.61381048  1
  Zn  Zn102  1  0.96904930  0.92670169  0.16232700  1
  Zn  Zn103  1  0.90136667  0.92072671  0.70448201  1
  Zn  Zn104  1  0.07120984  0.06171583  0.31274739  1
  Zn  Zn105  1  0.05363266  0.05703289  0.78382802  1
  Zn  Zn106  1  0.10862451  0.53508895  0.33302882  1
  Zn  Zn107  1  0.01743505  0.53924437  0.77647263  1
  Zn  Zn108  1  0.55027504  0.06402076  0.32028925  1
  Zn  Zn109  1  0.52780593  0.00388401  0.79749805  1
  Zn  Zn110  1  0.57795126  0.56689436  0.44364272  1
  Zn  Zn111  1  0.61465631  0.60159965  0.79920962  1
  Zn  Zn112  1  0.43403232  0.20752852  0.43355869  1
  Zn  Zn113  1  0.45253024  0.19023742  0.92742014  1
  Zn  Zn114  1  0.35994053  0.78020589  0.43580543  1
  Zn  Zn115  1  0.45295234  0.70060422  0.92800798  1
  Zn  Zn116  1  0.98220927  0.21702126  0.45250687  1
  Zn  Zn117  1  0.92191804  0.17993251  0.94325659  1
  Zn  Zn118  1  0.94366035  0.69063297  0.42266705  1
  Zn  Zn119  1  0.88995831  0.66550746  0.98076710  1
  Zn  Zn120  1  0.05583357  0.30692557  0.08972665  1
  Zn  Zn121  1  0.09222509  0.33058134  0.52538653  1
  Zn  Zn122  1  0.08672436  0.83311157  0.03328586  1
  Zn  Zn123  1  0.06367023  0.81852497  0.56113943  1
  Zn  Zn124  1  0.55180651  0.30755032  0.06137205  1
  Zn  Zn125  1  0.57992585  0.32192339  0.56626531  1
  Zn  Zn126  1  0.59148924  0.78986946  0.13644181  1
  Zn  Zn127  1  0.56117962  0.79358300  0.75040657  1
  O  O128  1  0.11349005  0.14099469  0.11416725  1
  O  O129  1  0.12808926  0.13462934  0.59877628  1
  O  O130  1  0.11394152  0.64895586  0.09056462  1
  O  O131  1  0.10620422  0.64641082  0.61209822  1
  O  O132  1  0.59520881  0.13273856  0.12924210  1
  O  O133  1  0.62577402  0.13483994  0.62434688  1
  O  O134  1  0.58966674  0.62357926  0.12514794  1
  O  O135  1  0.64402074  0.61153305  0.62991978  1
  O  O136  1  0.38963658  0.37971920  0.39267011  1
  O  O137  1  0.38400412  0.38510682  0.87652665  1
  O  O138  1  0.34815476  0.87503742  0.36871036  1
  O  O139  1  0.37212966  0.87212495  0.88498301  1
  O  O140  1  0.86767962  0.36792463  0.37686622  1
  O  O141  1  0.89422786  0.36919136  0.87041643  1
  O  O142  1  0.90260786  0.86126180  0.35824936  1
  O  O143  1  0.89657555  0.89823040  0.86780043  1
  O  O144  1  0.26925789  0.01750207  0.37485601  1
  O  O145  1  0.26988583  0.00448329  0.85538122  1
  O  O146  1  0.21920318  0.51983579  0.36532542  1
  O  O147  1  0.25854632  0.51183511  0.86049254  1
  O  O148  1  0.81606336  0.00389394  0.42605749  1
  O  O149  1  0.75507040  0.00649075  0.87789374  1
  O  O150  1  0.75200480  0.48704618  0.36939485  1
  O  O151  1  0.77026807  0.50455807  0.89345737  1
  O  O152  1  0.24857067  0.48565848  0.10959340  1
  O  O153  1  0.25109865  0.50937082  0.63750940  1
  O  O154  1  0.24130729  0.98934030  0.10781699  1
  O  O155  1  0.25535273  0.99208568  0.62207919  1
  O  O156  1  0.73526722  0.47111550  0.08357185  1
  O  O157  1  0.74684265  0.48577067  0.62225110  1
  O  O158  1  0.74337541  0.98791700  0.10297936  1
  O  O159  1  0.74276188  0.96672434  0.64663295  1
  O  O160  1  -0.01952270  0.36155042  0.22697183  1
  O  O161  1  0.01126501  0.31574410  0.68937136  1
  O  O162  1  0.02384807  0.86775164  0.24253296  1
  O  O163  1  -0.00505042  0.86975859  0.74853669  1
  O  O164  1  0.49457438  0.38694533  0.26313413  1
  O  O165  1  0.50670367  0.38828208  0.76832856  1
  O  O166  1  0.46905393  0.85333272  0.24300763  1
  O  O167  1  0.50656784  0.89776308  0.75958263  1
  O  O168  1  0.47730711  0.11910330  0.23293715  1
  O  O169  1  0.48932704  0.10694093  0.74037264  1
  O  O170  1  0.46999638  0.62768941  0.23139627  1
  O  O171  1  0.49960167  0.62784396  0.76825369  1
  O  O172  1  1.00838821  0.11140465  0.22669896  1
  O  O173  1  0.97062884  0.10943926  0.73239068  1
  O  O174  1  1.09105722  0.51478269  0.21157785  1
  O  O175  1  1.00889746  0.65308574  0.73265193  1
  O  O176  1  0.37802085  0.26709175  -0.01504437  1
  O  O177  1  0.37934652  0.27130483  0.51536129  1
  O  O178  1  0.36998806  0.76185195  -0.00327573  1
  O  O179  1  0.39150094  0.73184887  0.52873152  1
  O  O180  1  0.85419760  0.23496724  0.01449830  1
  O  O181  1  0.89869289  0.27605884  0.50306405  1
  O  O182  1  0.84529232  0.77892860  0.03322546  1
  O  O183  1  0.88552436  0.76118293  0.49799957  1
  O  O184  1  0.09765857  0.23341384  0.47648831  1
  O  O185  1  0.06800117  0.26706733  0.96629856  1
  O  O186  1  0.12982502  0.75700379  0.48228290  1
  O  O187  1  0.13642502  0.74944847  0.97597191  1
  O  O188  1  0.63610436  0.26059094  0.48835473  1
  O  O189  1  0.62369765  0.23286578  1.00516410  1
  O  O190  1  0.58541513  0.72872653  0.48892707  1
  O  O191  1  0.61759904  0.74709750  1.03426110  1
  O  O192  1  0.47427667  0.23582097  0.11015473  1
  O  O193  1  0.49965579  0.25743589  0.62275159  1
  O  O194  1  0.47683056  0.73813241  0.11927755  1
  O  O195  1  0.49381564  0.76256705  0.65180322  1
  O  O196  1  0.97999318  0.23129443  0.12406463  1
  O  O197  1  1.03052261  0.26005952  0.64609124  1
  O  O198  1  0.90209387  0.81917071  0.06415950  1
  O  O199  1  0.98645884  0.75699725  0.62849074  1
  O  O200  1  -0.02071867  0.23875363  0.34155555  1
  O  O201  1  0.00601205  0.27006820  0.92340448  1
  O  O202  1  0.02319158  0.75504369  0.36726361  1
  O  O203  1  0.01186670  0.76590460  0.85352213  1
  O  O204  1  0.50948744  0.27179670  0.37677454  1
  O  O205  1  0.50960820  0.27643251  0.88433384  1
  O  O206  1  0.45754318  0.74697755  0.36280389  1
  O  O207  1  0.51297665  0.75945965  0.85742955  1
  O  O208  1  0.25708855  0.13599642  0.48218425  1
  O  O209  1  0.29596525  0.11744264  0.96719157  1
  O  O210  1  0.26032608  0.60310584  0.49068707  1
  O  O211  1  0.25664148  0.64096303  0.98114658  1
  O  O212  1  0.66125233  0.10559979  0.56572628  1
  O  O213  1  0.74114147  0.12219617  0.98331066  1
  O  O214  1  0.75579196  0.62533353  0.48865424  1
  O  O215  1  0.72500498  0.63051061  1.04724600  1
  O  O216  1  0.26771694  0.38085053  -0.00172926  1
  O  O217  1  0.27273304  0.39751833  0.51929110  1
  O  O218  1  0.25137309  0.86852397  -0.00271457  1
  O  O219  1  0.25405448  0.87619101  0.51042811  1
  O  O220  1  0.73375159  0.34163003  0.00494208  1
  O  O221  1  0.77773823  0.37944379  0.51376151  1
  O  O222  1  0.73705758  0.92395397  0.06362675  1
  O  O223  1  0.71639193  0.87401319  0.51461259  1
  O  O224  1  0.10905089  0.39070544  0.33391750  1
  O  O225  1  0.13295479  0.50747177  0.75561417  1
  O  O226  1  0.13506107  0.98078465  0.25167135  1
  O  O227  1  0.14783923  1.01321647  0.74829756  1
  O  O228  1  0.64842491  0.51563637  0.23883492  1
  O  O229  1  0.62859887  0.49907164  0.74436246  1
  O  O230  1  0.64550673  1.04163572  0.25430786  1
  O  O231  1  0.63824851  0.99539069  0.77222351  1
  O  O232  1  0.36839840  0.00843174  0.25449893  1
  O  O233  1  0.36850207  0.01915079  0.73365608  1
  O  O234  1  0.36193208  0.51010631  0.22838912  1
  O  O235  1  0.38123499  0.51744525  0.75920466  1
  O  O236  1  0.84803363  0.06608219  0.29613104  1
  O  O237  1  0.85084163  0.00702936  0.76009726  1
  O  O238  1  0.83554575  0.51468581  0.20846490  1
  O  O239  1  0.94139290  0.38310773  0.80753569  1
  O  O240  1  0.14936803  0.36331924  0.38917020  1
  O  O241  1  0.16955975  0.34984579  0.86804098  1
  O  O242  1  0.12918313  0.86873750  0.36213490  1
  O  O243  1  0.11801680  0.87314968  0.86837098  1
  O  O244  1  0.61528304  0.37018445  0.37694975  1
  O  O245  1  0.61935020  0.39600591  0.87163732  1
  O  O246  1  0.61644256  0.89615001  0.33291512  1
  O  O247  1  0.72904505  0.82896555  0.92368922  1
  O  O248  1  0.36593693  0.13766945  0.13886389  1
  O  O249  1  0.37372745  0.14656802  0.62216019  1
  O  O250  1  0.36921603  0.63221665  0.11914173  1
  O  O251  1  0.38629877  0.63588921  0.64874799  1
  O  O252  1  0.88392672  0.12089463  0.12422267  1
  O  O253  1  0.83784725  0.12756768  0.64259362  1
  O  O254  1  0.89368139  0.61984663  0.08206276  1
  O  O255  1  0.88835685  0.64578072  0.61370110  1
  O  O256  1  0.26457534  0.26002492  0.12200436  1
  O  O257  1  0.26196564  0.27690074  0.63032273  1
  O  O258  1  0.25652539  0.75620565  0.10331073  1
  O  O259  1  0.26814149  0.76226906  0.63165196  1
  O  O260  1  0.74708622  0.20744599  0.11964132  1
  O  O261  1  0.74173226  0.28085724  0.63218871  1
  O  O262  1  0.84213356  0.70164653  0.16755409  1
  O  O263  1  0.76514361  0.74618895  0.61141654  1
  O  O264  1  0.25474851  0.24643575  0.36616215  1
  O  O265  1  0.22338393  0.29695208  0.86309029  1
  O  O266  1  0.25773022  0.73460743  0.38722997  1
  O  O267  1  0.24893151  0.75207920  0.87063328  1
  O  O268  1  0.72176674  0.24456917  0.34203539  1
  O  O269  1  0.74111933  0.23436979  0.88908326  1
  O  O270  1  0.73788056  0.76016726  0.38736537  1
  O  O271  1  0.81588443  0.66690730  0.89517247  1
  O  O272  1  -0.00121041  0.11302296  0.00018508  1
  O  O273  1  0.00746615  0.11007296  0.48503521  1
  O  O274  1  0.00586331  0.64616102  -0.03075173  1
  O  O275  1  -0.00737051  0.61481050  0.50648987  1
  O  O276  1  0.48325550  0.11483864  0.00935715  1
  O  O277  1  0.48564890  0.12363296  0.49191622  1
  O  O278  1  0.49487365  0.61944199  0.00403289  1
  O  O279  1  0.53979996  0.66884302  0.50647223  1
  O  O280  1  0.49787718  0.37819052  0.50094673  1
  O  O281  1  0.49053420  0.38981288  0.99527024  1
  O  O282  1  0.55086897  0.79926113  0.48936952  1
  O  O283  1  0.47921749  0.89203961  1.00431150  1
  O  O284  1  0.99566703  0.39383877  0.50564881  1
  O  O285  1  0.98817377  0.39906785  1.02637192  1
  O  O286  1  1.01003640  0.87602280  0.47869366  1
  O  O287  1  1.01241368  0.89970480  0.98292147  1
  O  O288  1  0.51350932  0.49159389  0.38372734  1
  O  O289  1  0.49114618  0.49682378  0.88863196  1
  O  O290  1  0.46844373  1.00172506  0.37270177  1
  O  O291  1  0.46113026  1.01795868  0.89382810  1
  O  O292  1  1.00201053  0.51857871  0.37196940  1
  O  O293  1  1.01024383  0.41388679  0.82330057  1
  O  O294  1  1.00503277  0.98213155  0.35873380  1
  O  O295  1  1.00014565  1.00382787  0.87505690  1
  O  O296  1  0.01220196  0.00785511  0.10011899  1
  O  O297  1  -0.03975711  -0.01126905  0.60203176  1
  O  O298  1  0.02544090  0.53088538  0.18112876  1
  O  O299  1  0.00124416  0.52786249  0.65139655  1
  O  O300  1  0.48380168  0.01368253  0.10843647  1
  O  O301  1  0.48067137  0.00196148  0.59715596  1
  O  O302  1  0.47956011  0.51111400  0.10648107  1
  O  O303  1  0.51931125  0.51268127  0.62879712  1
  O  O304  1  0.25683364  0.37874906  0.22976086  1
  O  O305  1  0.26140287  0.40026986  0.73478487  1
  O  O306  1  0.25323461  0.88322678  0.22293994  1
  O  O307  1  0.26149432  0.89797567  0.73483871  1
  O  O308  1  0.74613330  0.39343403  0.23383712  1
  O  O309  1  0.74637300  0.38410485  0.75368625  1
  O  O310  1  0.75831138  0.90787627  0.25766745  1
  O  O311  1  0.74799212  0.87856950  0.77384396  1
  O  O312  1  0.25972973  0.13286434  0.25386071  1
  O  O313  1  0.26406440  0.11583587  0.73235889  1
  O  O314  1  0.24761864  0.62302084  0.22661203  1
  O  O315  1  0.25125777  0.61825333  0.75166694  1
  O  O316  1  0.79622799  0.11693417  0.30070460  1
  O  O317  1  0.74676009  0.12318259  0.76852764  1
  O  O318  1  0.74758833  0.62046575  0.27876461  1
  O  O319  1  0.77754711  0.59767883  0.75217750  1
  O  O320  1  0.36876581  0.13870947  0.35647672  1
  O  O321  1  0.37970938  0.13988892  0.84634630  1
  O  O322  1  0.34779591  0.61431623  0.34742613  1
  O  O323  1  0.36807735  0.62578530  0.86516572  1
  O  O324  1  0.78007275  0.05794470  0.46187495  1
  O  O325  1  0.87595437  0.10970900  0.86515590  1
  O  O326  1  0.85577748  0.64666322  0.37133105  1
  O  O327  1  0.91895246  0.54922115  0.83004647  1
  O  O328  1  0.14458107  0.36746463  0.10794531  1
  O  O329  1  0.14669810  0.38185839  0.61105386  1
  O  O330  1  0.13831138  0.86501120  0.12854541  1
  O  O331  1  0.14633730  0.86314770  0.62421845  1
  O  O332  1  0.63440351  0.34870023  0.12686185  1
  O  O333  1  0.63151721  0.39253207  0.64314183  1
  O  O334  1  0.61753567  0.89355075  0.16779491  1
  O  O335  1  0.64583727  0.83696610  0.65336115  1
  O  O336  1  0.09548915  0.25316078  0.23150426  1
  O  O337  1  0.09732990  0.22354867  0.79121442  1
  O  O338  1  0.15910978  0.76902883  0.26112736  1
  O  O339  1  0.13461618  0.75280918  0.75195652  1
  O  O340  1  0.66494465  0.24043721  0.27764723  1
  O  O341  1  0.62753292  0.28441485  0.75453636  1
  O  O342  1  0.57909232  0.73586030  0.24466609  1
  O  O343  1  0.65106051  0.71399854  0.77410958  1
  O  O344  1  0.37615262  0.25712539  0.23955097  1
  O  O345  1  0.38045606  0.24308878  0.73134752  1
  O  O346  1  0.36530064  0.73471485  0.23172994  1
  O  O347  1  0.37782119  0.73877986  0.75075650  1
  O  O348  1  0.87364267  0.24152557  0.22937770  1
  O  O349  1  0.86806501  0.23006263  0.76371384  1
  O  O350  1  0.88288416  0.71859410  0.22462061  1
  O  O351  1  0.88377687  0.75051428  0.75146379  1
  O  O352  1  0.39263072  0.49380681  0.51451823  1
  O  O353  1  0.37623752  0.49680460  0.98194935  1
  O  O354  1  0.37869687  0.99217775  0.48317662  1
  O  O355  1  0.36460692  0.98802133  0.99573665  1
  O  O356  1  0.89544521  0.48781949  0.50930322  1
  O  O357  1  0.95681066  0.45572657  1.06296323  1
  O  O358  1  0.91227005  1.00567510  0.54887868  1
  O  O359  1  0.87923404  1.00068979  0.98263211  1
  O  O360  1  0.12663741  0.01555002  -0.02333557  1
  O  O361  1  0.13515611  0.01961484  0.48800201  1
  O  O362  1  0.12063441  0.52800040  -0.02095262  1
  O  O363  1  0.10109643  0.49982759  0.49473413  1
  O  O364  1  0.59670665  -0.01126048  -0.02421206  1
  O  O365  1  0.58127529  -0.01475702  0.47653038  1
  O  O366  1  0.60520740  0.50935570  -0.00119534  1
  O  O367  1  0.62912295  0.49393540  0.51697529  1
  O  O368  1  0.37363407  0.36447120  0.10910703  1
  O  O369  1  0.38424019  0.37241174  0.62303314  1
  O  O370  1  0.35923259  0.87004829  0.10927037  1
  O  O371  1  0.37080612  0.86048929  0.62550438  1
  O  O372  1  0.83471972  0.34093954  0.12181274  1
  O  O373  1  0.86848650  0.37933053  0.65009264  1
  O  O374  1  0.87793461  0.86705668  0.12764093  1
  O  O375  1  0.85269190  0.85671887  0.62559803  1
  O  O376  1  0.14349744  0.12636094  0.37337924  1
  O  O377  1  0.11046040  0.16782398  0.83770380  1
  O  O378  1  0.14266690  0.64550493  0.36326445  1
  O  O379  1  0.14122042  0.64338341  0.87529792  1
  O  O380  1  0.60096130  0.14520760  0.38372205  1
  O  O381  1  0.62366893  0.12162291  0.87165572  1
  O  O382  1  0.64282806  0.63061884  0.37913076  1
  O  O383  1  0.63681906  0.64131878  0.91225418  1
