# generated using pymatgen
data_VZnO4
_symmetry_space_group_name_H-M   'P 1'
_cell_length_a   16.96701632
_cell_length_b   16.97225166
_cell_length_c   17.03797365
_cell_angle_alpha   90.30719415
_cell_angle_beta   90.07351837
_cell_angle_gamma   89.64527915
_symmetry_Int_Tables_number   1
_chemical_formula_structural   VZnO4
_chemical_formula_sum   'V64 Zn64 O256'
_cell_volume   4906.23084002
_cell_formula_units_Z   64
loop_
 _symmetry_equiv_pos_site_id
 _symmetry_equiv_pos_as_xyz
  1  'x, y, z'
loop_
 _atom_site_type_symbol
 _atom_site_label
 _atom_site_symmetry_multiplicity
 _atom_site_fract_x
 _atom_site_fract_y
 _atom_site_fract_z
 _atom_site_occupancy
  V  V0  1  0.76488682  0.87331969  0.13904311  1
  V  V1  1  0.50175627  0.03719338  0.49369766  1
  V  V2  1  0.64465346  0.49142921  0.65762382  1
  V  V3  1  0.73886846  -0.00026452  0.74862232  1
  V  V4  1  0.11103309  0.60027716  0.49894058  1
  V  V5  1  0.86424797  0.49989537  0.86380338  1
  V  V6  1  0.60797119  0.87608454  0.25693045  1
  V  V7  1  0.13373764  0.87211350  0.25483868  1
  V  V8  1  0.74850071  0.12064107  0.89073321  1
  V  V9  1  0.89762084  0.24885973  0.13146102  1
  V  V10  1  -0.00554349  0.49784250  -0.00387112  1
  V  V11  1  0.87601416  0.75782839  0.64354293  1
  V  V12  1  0.86734213  0.38458540  0.48246483  1
  V  V13  1  0.75396768  0.60814747  0.38106809  1
  V  V14  1  0.49620922  0.38452504  0.36509470  1
  V  V15  1  0.63072257  0.25264192  0.38800553  1
  V  V16  1  0.25377206  0.74376337  0.50537880  1
  V  V17  1  0.88664548  0.86700411  -0.00460017  1
  V  V18  1  0.36574013  0.76244656  0.12362461  1
  V  V19  1  0.89493934  0.13047539  0.76710952  1
  V  V20  1  0.35665917  0.37491735  0.51841521  1
  V  V21  1  0.13302625  0.49814219  0.11919306  1
  V  V22  1  0.35035821  0.12967737  0.25588170  1
  V  V23  1  0.12085855  0.39152526  0.72313339  1
  V  V24  1  -0.01027012  0.62715508  0.12797739  1
  V  V25  1  0.62166156  0.61352200  0.00685281  1
  V  V26  1  0.75582325  0.13195860  0.38385751  1
  V  V27  1  0.73623157  0.75881406  0.00168390  1
  V  V28  1  0.12153520  0.73703894  0.38360174  1
  V  V29  1  0.89777751  -0.00814876  0.88203930  1
  V  V30  1  0.86951036  -0.00524209  0.40846930  1
  V  V31  1  0.36072946  0.13753823  0.78507536  1
  V  V32  1  0.48445258  0.01255360  0.02322385  1
  V  V33  1  0.50752092  0.63518435  0.14683290  1
  V  V34  1  -0.01417825  0.60827051  0.63208567  1
  V  V35  1  0.12575938  0.01463862  0.09948265  1
  V  V36  1  0.63100981  0.00477553  0.12938672  1
  V  V37  1  0.11837061  -0.02945232  0.63015043  1
  V  V38  1  0.12385308  0.28925993  0.87180909  1
  V  V39  1  0.62173629  0.60151215  0.49955832  1
  V  V40  1  -0.01260212  0.87245777  0.39632068  1
  V  V41  1  0.26628502  -0.03223077  0.74166069  1
  V  V42  1  0.62341696  0.75118009  0.37173019  1
  V  V43  1  0.36450488  -0.01185034  0.37924261  1
  V  V44  1  0.86889979  0.61466953  0.25313813  1
  V  V45  1  0.34179302  0.63538555  0.25847907  1
  V  V46  1  0.74431318  0.48945618  0.22964255  1
  V  V47  1  0.00111697  0.13249779  0.63461542  1
  V  V48  1  0.51752564  0.22459479  0.23331380  1
  V  V49  1  0.12868281  0.14072513  -0.02366186  1
  V  V50  1  0.11245645  0.64620996  -0.00779176  1
  V  V51  1  0.62443474  0.36939388  0.21919163  1
  V  V52  1  0.76488467  0.34107945  0.62909415  1
  V  V53  1  0.44051614  0.40887303  0.88132086  1
  V  V54  1  0.74832674  0.24876137  0.01332105  1
  V  V55  1  0.62470057  0.25866099  0.87765843  1
  V  V56  1  -0.01541646  0.75234060  0.25430730  1
  V  V57  1  0.12769105  0.12641708  0.50906578  1
  V  V58  1  0.75688464  0.76713521  0.50296770  1
  V  V59  1  0.74465748  0.63035600  0.86515365  1
  V  V60  1  0.24423661  0.48171131  0.26082395  1
  V  V61  1  0.51978262  0.89299054  0.89443758  1
  V  V62  1  0.87259352  0.37460765  0.00674079  1
  V  V63  1  0.89000153  0.10221347  0.24008312  1
  Zn  Zn64  1  0.20330228  0.15498385  0.15649912  1
  Zn  Zn65  1  0.16723164  0.18324669  0.71527305  1
  Zn  Zn66  1  0.16431381  0.71396589  0.17410576  1
  Zn  Zn67  1  0.18788292  0.66306277  0.66440944  1
  Zn  Zn68  1  0.71150221  0.18226713  0.19837046  1
  Zn  Zn69  1  0.71581768  0.20071542  0.71460042  1
  Zn  Zn70  1  0.69344267  0.69204573  0.18711570  1
  Zn  Zn71  1  0.69111242  0.68137126  0.67129355  1
  Zn  Zn72  1  0.36120218  0.33236971  0.23270377  1
  Zn  Zn73  1  0.29906545  0.30792638  0.79905084  1
  Zn  Zn74  1  0.31272146  0.80937350  0.32956704  1
  Zn  Zn75  1  0.39128681  0.81363887  0.78350756  1
  Zn  Zn76  1  0.81107447  0.31089213  0.30367926  1
  Zn  Zn77  1  0.81834417  0.31203116  0.82567284  1
  Zn  Zn78  1  0.81160261  0.80617296  0.32662845  1
  Zn  Zn79  1  0.79990242  0.81757575  0.81593184  1
  Zn  Zn80  1  0.19586772  0.42700110  0.45964292  1
  Zn  Zn81  1  0.22930069  0.45353605  0.83762857  1
  Zn  Zn82  1  0.17786981  0.92964865  0.44782848  1
  Zn  Zn83  1  0.21181557  0.94931245  0.93089968  1
  Zn  Zn84  1  0.70151103  0.42403181  0.42955458  1
  Zn  Zn85  1  0.69051510  0.43693297  0.94608407  1
  Zn  Zn86  1  0.68276569  0.94459685  0.43889558  1
  Zn  Zn87  1  0.68942773  0.94465261  0.94593537  1
  Zn  Zn88  1  0.30146608  0.05627103  0.07150365  1
  Zn  Zn89  1  0.29160087  0.02501190  0.54505548  1
  Zn  Zn90  1  0.29238608  0.61637214  0.07279430  1
  Zn  Zn91  1  0.30317395  0.55786586  0.43560699  1
  Zn  Zn92  1  0.82280139  0.05525257  0.06703931  1
  Zn  Zn93  1  0.80932829  0.08454545  0.57583803  1
  Zn  Zn94  1  0.80978966  0.57046968  0.05971866  1
  Zn  Zn95  1  0.82062706  0.55191205  0.56976632  1
  Zn  Zn96  1  0.41210070  0.47653148  0.15323875  1
  Zn  Zn97  1  0.47047122  0.39933302  0.68972791  1
  Zn  Zn98  1  0.42880256  0.94796340  0.19773858  1
  Zn  Zn99  1  0.46569443  1.01719703  0.69064130  1
  Zn  Zn100  1  0.93094967  0.44266433  0.18231809  1
  Zn  Zn101  1  0.93358550  0.42225198  0.68374583  1
  Zn  Zn102  1  0.95673122  0.93008335  0.17145779  1
  Zn  Zn103  1  0.91389559  0.95707682  0.67312157  1
  Zn  Zn104  1  0.06134191  0.05098884  0.32135426  1
  Zn  Zn105  1  0.08030780  0.04409992  0.80985839  1
  Zn  Zn106  1  0.06766522  0.55926099  0.30347153  1
  Zn  Zn107  1  0.06215982  0.55938830  0.81097897  1
  Zn  Zn108  1  0.56960169  0.05332798  0.33222237  1
  Zn  Zn109  1  0.55780257  0.07026932  0.82793997  1
  Zn  Zn110  1  0.57521572  0.55739224  0.30775077  1
  Zn  Zn111  1  0.55686232  0.55888408  0.83356363  1
  Zn  Zn112  1  0.42842139  0.20339417  0.42128335  1
  Zn  Zn113  1  0.44878776  0.17095634  0.93804161  1
  Zn  Zn114  1  0.44006752  0.67826839  0.42318341  1
  Zn  Zn115  1  0.46127572  0.72722044  0.95980696  1
  Zn  Zn116  1  0.97112679  0.16322707  0.42996953  1
  Zn  Zn117  1  0.95343680  0.19399329  0.93824954  1
  Zn  Zn118  1  0.93243070  0.67984314  0.44269157  1
  Zn  Zn119  1  0.92513784  0.68444305  0.94045381  1
  Zn  Zn120  1  0.06865567  0.31546375  0.05394715  1
  Zn  Zn121  1  0.05463228  0.30646400  0.57191174  1
  Zn  Zn122  1  0.09510359  0.84773330  0.04612791  1
  Zn  Zn123  1  0.05263881  0.79432940  0.56910254  1
  Zn  Zn124  1  0.49376930  0.33536533  0.07296540  1
  Zn  Zn125  1  0.57146838  0.38337867  0.54690850  1
  Zn  Zn126  1  0.55966434  0.81938032  0.07885133  1
  Zn  Zn127  1  0.54709921  0.74420564  0.55533009  1
  O  O128  1  0.10208573  0.10196396  0.14578325  1
  O  O129  1  0.11322762  0.11967035  0.63202820  1
  O  O130  1  0.10208196  0.62468026  0.12205085  1
  O  O131  1  0.10479043  0.61286188  0.60673261  1
  O  O132  1  0.64939566  0.09977306  0.14769272  1
  O  O133  1  0.57784098  0.17462882  0.63482160  1
  O  O134  1  0.61588544  0.64056425  0.11749611  1
  O  O135  1  0.63461640  0.59950691  0.60703536  1
  O  O136  1  0.40155581  0.37084832  0.33634464  1
  O  O137  1  0.33620437  0.40452159  0.86539945  1
  O  O138  1  0.37921687  0.88801751  0.37277457  1
  O  O139  1  0.43050324  0.92394745  0.82148369  1
  O  O140  1  0.85537188  0.37781230  0.38233521  1
  O  O141  1  0.86553617  0.39307788  0.89245917  1
  O  O142  1  0.87658675  0.88378194  0.38118257  1
  O  O143  1  0.86933732  0.88422782  0.88499691  1
  O  O144  1  0.26248370  -0.00820699  0.39966147  1
  O  O145  1  0.25947486  -0.01189517  0.84292071  1
  O  O146  1  0.23461681  0.48613376  0.36276548  1
  O  O147  1  0.26571083  0.56515125  0.86406082  1
  O  O148  1  0.76579998  0.00895842  0.38273710  1
  O  O149  1  0.75829911  0.01357645  0.88178798  1
  O  O150  1  0.74170725  0.50817003  0.35880318  1
  O  O151  1  0.75685600  0.51275706  0.88323720  1
  O  O152  1  0.23195937  0.51788850  0.11319177  1
  O  O153  1  0.29182928  0.51542292  0.64933209  1
  O  O154  1  0.21926450  0.98795515  0.12715628  1
  O  O155  1  0.23348825  0.98122005  0.62986172  1
  O  O156  1  0.74821906  0.50603522  0.13291743  1
  O  O157  1  0.74628664  0.50073783  0.63809290  1
  O  O158  1  0.74580910  0.97964012  0.12283216  1
  O  O159  1  0.75894257  1.01535119  0.65032356  1
  O  O160  1  0.00038709  0.40950448  0.27589709  1
  O  O161  1  0.02036900  0.39528875  0.74994471  1
  O  O162  1  -0.01054684  0.85573542  0.25783512  1
  O  O163  1  0.03071501  0.79797412  0.85000724  1
  O  O164  1  0.52566966  0.35830083  0.25151823  1
  O  O165  1  0.48126960  0.37171959  0.79452731  1
  O  O166  1  0.51097017  0.87236515  0.25191267  1
  O  O167  1  0.50273229  0.93453557  0.77979605  1
  O  O168  1  0.52686571  0.12729062  0.25048512  1
  O  O169  1  0.46816161  0.10467327  0.76593693  1
  O  O170  1  0.51453309  0.63187375  0.24631069  1
  O  O171  1  0.49155190  0.65567797  0.79515596  1
  O  O172  1  0.98469101  0.12198867  0.26741292  1
  O  O173  1  0.99886299  0.11597166  0.75836354  1
  O  O174  1  0.98641682  0.62132162  0.24746284  1
  O  O175  1  1.00327205  0.61498110  0.73100380  1
  O  O176  1  0.29423377  0.27885105  -0.00054182  1
  O  O177  1  0.36668141  0.28547676  0.46746723  1
  O  O178  1  0.37059608  0.74490664  0.02283345  1
  O  O179  1  0.35022825  0.72534554  0.47708571  1
  O  O180  1  0.87999386  0.25875371  0.00807057  1
  O  O181  1  0.92236754  0.26659422  0.47716762  1
  O  O182  1  0.86054571  0.76262680  -0.00600347  1
  O  O183  1  0.85769375  0.75021547  0.49359058  1
  O  O184  1  0.11686255  0.22691950  0.51757927  1
  O  O185  1  0.13191408  0.25163318  0.98549046  1
  O  O186  1  0.12058657  0.73897638  0.49085852  1
  O  O187  1  0.07751122  0.73855473  1.01021586  1
  O  O188  1  0.62547353  0.25697021  0.48343379  1
  O  O189  1  0.65087592  0.24533541  1.00233034  1
  O  O190  1  0.64456888  0.73347437  0.49155869  1
  O  O191  1  0.63499960  0.75680961  1.00403707  1
  O  O192  1  0.51423143  0.23872672  0.13495478  1
  O  O193  1  0.52666722  0.22595578  0.63691849  1
  O  O194  1  0.48708183  0.74197170  0.12412783  1
  O  O195  1  0.47206558  0.79047353  0.69010398  1
  O  O196  1  0.99651389  0.25465598  0.12130578  1
  O  O197  1  0.99764916  0.23160333  0.64069133  1
  O  O198  1  0.99155217  0.73358611  0.15017700  1
  O  O199  1  0.98091860  0.73526791  0.62935276  1
  O  O200  1  0.01095150  0.26989039  0.34648383  1
  O  O201  1  0.02233625  0.26383766  0.88284979  1
  O  O202  1  -0.00709354  0.75605582  0.37310663  1
  O  O203  1  -0.01960867  0.74535073  0.84454221  1
  O  O204  1  0.52524408  0.24927164  0.35664883  1
  O  O205  1  0.52923770  0.23122835  0.89436805  1
  O  O206  1  0.52491744  0.74560929  0.38302081  1
  O  O207  1  0.47247460  0.79686882  0.87452661  1
  O  O208  1  0.22641292  0.11481767  0.50579825  1
  O  O209  1  0.22426622  0.14328572  1.04540075  1
  O  O210  1  0.22045941  0.62328984  0.49042662  1
  O  O211  1  0.21118506  0.65131680  0.99959453  1
  O  O212  1  0.76805327  0.13386243  0.48343170  1
  O  O213  1  0.77179282  0.13364910  0.99474015  1
  O  O214  1  0.74372170  0.60900482  0.48603711  1
  O  O215  1  0.73797229  0.64192416  1.00590963  1
  O  O216  1  0.32790206  0.54011333  -0.01972374  1
  O  O217  1  0.25415174  0.37211493  0.53404127  1
  O  O218  1  0.19005986  0.86442558  -0.00929051  1
  O  O219  1  0.24048931  0.84375632  0.49302473  1
  O  O220  1  0.76214565  0.36015069  0.00424906  1
  O  O221  1  0.76326109  0.36837095  0.50852139  1
  O  O222  1  0.75319612  0.86599596  0.00556104  1
  O  O223  1  0.74133295  0.86492194  0.49779250  1
  O  O224  1  0.13891508  0.50511713  0.23198936  1
  O  O225  1  0.14032454  0.49397971  0.76272523  1
  O  O226  1  0.10819134  0.97112655  0.25604619  1
  O  O227  1  0.14799365  0.98498666  0.73975452  1
  O  O228  1  0.63590465  0.48284588  0.24205509  1
  O  O229  1  0.62703352  0.51021266  0.75370693  1
  O  O230  1  0.62604098  0.97951136  0.25453111  1
  O  O231  1  0.64152682  1.02574407  0.76008112  1
  O  O232  1  0.36698991  0.01238167  0.26956199  1
  O  O233  1  0.35184048  0.02410983  0.71841859  1
  O  O234  1  0.34254989  0.51687019  0.23627737  1
  O  O235  1  0.43716513  0.58742062  0.63615279  1
  O  O236  1  0.88907201  0.00261159  0.22967146  1
  O  O237  1  0.86939131  0.00328365  0.77346338  1
  O  O238  1  0.85663818  0.50416899  0.24802553  1
  O  O239  1  0.87312493  0.48971156  0.76782454  1
  O  O240  1  0.13816022  0.33553135  0.39378376  1
  O  O241  1  0.13583779  0.38835823  0.88437530  1
  O  O242  1  0.10287190  0.85984495  0.37342844  1
  O  O243  1  0.18841421  0.78164738  0.86143196  1
  O  O244  1  0.63024725  0.36008517  0.36502898  1
  O  O245  1  0.63343969  0.35868265  0.88955469  1
  O  O246  1  0.63548163  0.86147074  0.36596096  1
  O  O247  1  0.61834099  0.88083724  0.88073009  1
  O  O248  1  0.36323368  0.10685247  0.15644809  1
  O  O249  1  0.35685528  0.17934475  0.59877961  1
  O  O250  1  0.38373267  0.63743735  0.14997399  1
  O  O251  1  0.40061586  0.64946538  0.62672320  1
  O  O252  1  0.88316056  0.13204556  0.13486280  1
  O  O253  1  0.88987295  0.11050496  0.65736449  1
  O  O254  1  0.87944335  0.62061290  0.14059773  1
  O  O255  1  0.87973936  0.63577450  0.61879691  1
  O  O256  1  0.28649782  0.34547647  0.02503453  1
  O  O257  1  0.30445792  0.22767098  0.60979601  1
  O  O258  1  0.26617177  0.73248303  0.13095079  1
  O  O259  1  0.25163857  0.73212721  0.60571338  1
  O  O260  1  0.76988013  0.23923249  0.11456710  1
  O  O261  1  0.75580389  0.23958025  0.61838915  1
  O  O262  1  0.75037765  0.76377495  0.11430848  1
  O  O263  1  0.76222128  0.74368752  0.60834801  1
  O  O264  1  0.17186017  0.29334951  0.34380662  1
  O  O265  1  0.22388185  0.25553143  0.86916418  1
  O  O266  1  0.22197079  0.74161511  0.37627320  1
  O  O267  1  0.20867435  0.72855239  0.81349467  1
  O  O268  1  0.74598970  0.24129506  0.36983056  1
  O  O269  1  0.75355708  0.23887230  0.89181250  1
  O  O270  1  0.74429941  0.73516355  0.38721081  1
  O  O271  1  0.75017861  0.73917245  0.88980672  1
  O  O272  1  0.03086405  0.13343942  0.00060640  1
  O  O273  1  -0.00706403  0.11456777  0.53495922  1
  O  O274  1  -0.02164414  0.61784569  0.01951873  1
  O  O275  1  0.00453736  0.62189944  0.50543455  1
  O  O276  1  0.48842473  0.11303319  0.02598262  1
  O  O277  1  0.49307690  0.13720682  0.49300081  1
  O  O278  1  0.52289784  0.63833915  -0.00792013  1
  O  O279  1  0.52245353  0.63811656  0.50068760  1
  O  O280  1  0.49753617  0.36832378  0.46800552  1
  O  O281  1  0.46487211  0.35847028  0.96697275  1
  O  O282  1  0.47634937  0.83673328  0.52291125  1
  O  O283  1  0.50767629  0.88637497  1.00013013  1
  O  O284  1  0.97304990  0.33314106  0.48694768  1
  O  O285  1  0.99162276  0.39378598  1.00433964  1
  O  O286  1  0.99466654  0.86328090  0.49247874  1
  O  O287  1  0.98304849  0.86062932  0.99563411  1
  O  O288  1  0.50981831  0.48365152  0.35792406  1
  O  O289  1  0.47425639  0.50429924  0.88540508  1
  O  O290  1  0.48030655  1.00726260  0.38592259  1
  O  O291  1  0.51483373  1.00582746  0.91711465  1
  O  O292  1  1.01039583  0.45649608  0.33528038  1
  O  O293  1  0.97660392  0.51297375  0.89369921  1
  O  O294  1  0.98358416  0.97823299  0.38120141  1
  O  O295  1  0.99584788  0.98796069  0.87136037  1
  O  O296  1  0.04500319  -0.05105933  0.10482873  1
  O  O297  1  0.01595303  0.00057294  0.65064086  1
  O  O298  1  0.00302055  0.51186661  0.12421015  1
  O  O299  1  -0.02591408  0.50986993  0.61944091  1
  O  O300  1  0.51708688  -0.00962755  0.12830252  1
  O  O301  1  0.50529933  0.00245478  0.59053697  1
  O  O302  1  0.49490813  0.53852769  0.11684146  1
  O  O303  1  0.54221897  0.46592079  0.62783800  1
  O  O304  1  0.25491062  0.38567681  0.23923652  1
  O  O305  1  0.23096558  0.37952212  0.74097262  1
  O  O306  1  0.23014508  0.86811710  0.27453807  1
  O  O307  1  0.29702468  0.87075041  0.74101940  1
  O  O308  1  0.74254605  0.38254803  0.23738673  1
  O  O309  1  0.77025416  0.35010094  0.73020004  1
  O  O310  1  0.76816162  0.86544261  0.23794050  1
  O  O311  1  0.74423555  0.89974925  0.76218042  1
  O  O312  1  0.25229472  0.16144604  0.25477511  1
  O  O313  1  0.26205628  0.13586485  0.74847927  1
  O  O314  1  0.24277464  0.62976532  0.25464094  1
  O  O315  1  0.27424170  0.57129168  0.69377654  1
  O  O316  1  0.78627199  0.12905003  0.27019959  1
  O  O317  1  0.77188106  0.12024410  0.77659727  1
  O  O318  1  0.75120697  0.61593396  0.25632413  1
  O  O319  1  0.73272970  0.64035717  0.76795456  1
  O  O320  1  0.37125933  0.12375220  0.36045041  1
  O  O321  1  0.35857290  0.13281411  0.88661482  1
  O  O322  1  0.37184320  0.61329837  0.35822232  1
  O  O323  1  0.41393477  0.63640308  0.79239687  1
  O  O324  1  0.88188228  0.10130297  0.37707708  1
  O  O325  1  0.88619024  0.10929263  0.88025815  1
  O  O326  1  0.85945136  0.62009718  0.36951385  1
  O  O327  1  0.85585207  0.61455538  0.88013662  1
  O  O328  1  0.12404677  0.39919746  0.11010054  1
  O  O329  1  0.11255084  0.38805641  0.62261475  1
  O  O330  1  0.12858079  0.83049892  0.16014254  1
  O  O331  1  0.11172102  0.87162955  0.62575482  1
  O  O332  1  0.60806200  0.37106344  0.12306969  1
  O  O333  1  0.65894450  0.38066759  0.62366240  1
  O  O334  1  0.63853723  0.87565505  0.14730184  1
  O  O335  1  0.59793883  0.75833808  0.65840194  1
  O  O336  1  0.05042156  0.26044785  0.28649978  1
  O  O337  1  0.12105811  0.27895957  0.75764194  1
  O  O338  1  0.09994029  0.74354203  0.27229281  1
  O  O339  1  0.14746046  0.69920109  0.76467280  1
  O  O340  1  0.63358611  0.25740761  0.24121575  1
  O  O341  1  0.63531079  0.24263308  0.77797557  1
  O  O342  1  0.63640714  0.75783564  0.26495242  1
  O  O343  1  0.54391619  0.78253818  0.71914622  1
  O  O344  1  0.40601375  0.22710374  0.25041179  1
  O  O345  1  0.37948393  0.23503657  0.76591675  1
  O  O346  1  0.36591817  0.73720808  0.25802271  1
  O  O347  1  0.36177417  0.69537759  0.78745749  1
  O  O348  1  0.88170640  0.25665147  0.23160385  1
  O  O349  1  0.88473789  0.22867054  0.77649720  1
  O  O350  1  0.88047778  0.73244763  0.26399192  1
  O  O351  1  0.85747341  0.75105609  0.74116139  1
  O  O352  1  0.36235596  0.47094765  0.47882951  1
  O  O353  1  0.32294817  0.58264347  0.91413671  1
  O  O354  1  0.38711656  1.01057092  0.48905654  1
  O  O355  1  0.38514663  0.99473337  1.02322805  1
  O  O356  1  0.87706058  0.48352384  0.49520264  1
  O  O357  1  0.87938349  0.49227722  1.01009359  1
  O  O358  1  0.86936127  0.99955032  0.50578233  1
  O  O359  1  0.87791827  0.98610079  0.99034712  1
  O  O360  1  0.14152932  0.02652439  -0.00593287  1
  O  O361  1  0.12131211  -0.00016723  0.52539940  1
  O  O362  1  0.09856978  0.52146638  0.01031711  1
  O  O363  1  0.11321442  0.50188720  0.48125403  1
  O  O364  1  0.62659754  -0.00121923  0.02767861  1
  O  O365  1  0.60178713  0.01522770  0.46581956  1
  O  O366  1  0.63191728  0.51466411  0.00932076  1
  O  O367  1  0.62320313  0.50237357  0.48390823  1
  O  O368  1  0.40021542  0.37028756  0.13311735  1
  O  O369  1  0.40137134  0.36699706  0.61075261  1
  O  O370  1  0.37500886  0.86006433  0.14472692  1
  O  O371  1  0.41597587  0.85471788  0.56196198  1
  O  O372  1  0.88195179  0.36283331  0.11716881  1
  O  O373  1  0.86759397  0.36675920  0.60843364  1
  O  O374  1  0.86858529  0.87996047  0.10915162  1
  O  O375  1  0.88190894  0.85849178  0.63079590  1
  O  O376  1  0.08300229  0.11727767  0.41096998  1
  O  O377  1  0.13179530  0.12635785  0.87614138  1
  O  O378  1  0.10062626  0.63167133  0.38402451  1
  O  O379  1  0.09017482  0.62863158  0.89552385  1
  O  O380  1  0.65057680  0.13436368  0.36677178  1
  O  O381  1  0.64806086  0.12840141  0.88893890  1
  O  O382  1  0.63716481  0.62956112  0.37937110  1
  O  O383  1  0.63987648  0.61904145  0.89346861  1
