# generated using pymatgen
data_VZnO4
_symmetry_space_group_name_H-M   'P 1'
_cell_length_a   16.96859435
_cell_length_b   16.87385930
_cell_length_c   16.95500559
_cell_angle_alpha   89.55623810
_cell_angle_beta   90.35337395
_cell_angle_gamma   90.12069535
_symmetry_Int_Tables_number   1
_chemical_formula_structural   VZnO4
_chemical_formula_sum   'V64 Zn64 O256'
_cell_volume   4854.40517224
_cell_formula_units_Z   64
loop_
 _symmetry_equiv_pos_site_id
 _symmetry_equiv_pos_as_xyz
  1  'x, y, z'
loop_
 _atom_site_type_symbol
 _atom_site_label
 _atom_site_symmetry_multiplicity
 _atom_site_fract_x
 _atom_site_fract_y
 _atom_site_fract_z
 _atom_site_occupancy
  V  V0  1  -0.00162559  0.75646416  0.74998950  1
  V  V1  1  0.37235783  0.01576838  0.86888296  1
  V  V2  1  -0.02283154  0.37201906  0.87652094  1
  V  V3  1  0.89020313  0.48781261  0.38364323  1
  V  V4  1  0.01095883  0.75517012  0.25744260  1
  V  V5  1  0.23718246  0.24227957  -0.00473374  1
  V  V6  1  0.51600696  0.74932764  0.75487080  1
  V  V7  1  0.13151207  0.61176821  0.50655767  1
  V  V8  1  0.24625091  0.88591064  0.63780118  1
  V  V9  1  0.12602924  0.61167088  -0.00972510  1
  V  V10  1  0.61353171  0.37283553  0.25222621  1
  V  V11  1  0.11592611  0.35138964  0.76862490  1
  V  V12  1  0.37180733  0.13133158  0.25987580  1
  V  V13  1  0.36805382  0.59692397  0.75954415  1
  V  V14  1  0.86877767  0.15883529  0.23964443  1
  V  V15  1  0.13342315  0.50256873  0.14227785  1
  V  V16  1  0.74947781  0.49737970  0.24801455  1
  V  V17  1  0.37322332  -0.00593681  0.37224447  1
  V  V18  1  0.59757321  0.25488781  0.38291613  1
  V  V19  1  0.88200662  0.62356576  0.25782997  1
  V  V20  1  0.73574826  0.13233000  0.35742068  1
  V  V21  1  0.50751229  0.11856562  0.12737311  1
  V  V22  1  0.87529975  0.60914186  0.77339281  1
  V  V23  1  0.51037762  0.61100897  0.62218951  1
  V  V24  1  0.36928088  0.86388791  0.50257793  1
  V  V25  1  0.61424377  0.12549623  0.50922832  1
  V  V26  1  0.25484223  0.60662525  0.37121239  1
  V  V27  1  0.50005629  0.86388406  0.36269992  1
  V  V28  1  0.13798741  0.49584079  0.65126414  1
  V  V29  1  0.74764980  0.24726663  0.51002443  1
  V  V30  1  0.72254121  0.87032081  0.16603112  1
  V  V31  1  0.50874356  -0.00871282  0.50730424  1
  V  V32  1  0.62581856  0.90208539  0.74370605  1
  V  V33  1  0.37140162  0.18194669  0.68157682  1
  V  V34  1  0.77000197  0.75389644  -0.02215414  1
  V  V35  1  0.51307240  0.00126012  0.00168432  1
  V  V36  1  0.24347872  -0.00496467  0.24571105  1
  V  V37  1  0.34360288  0.38720717  0.50146898  1
  V  V38  1  0.90080247  -0.01018776  0.36258890  1
  V  V39  1  0.25120440  0.75272453  -0.00263829  1
  V  V40  1  0.23819761  0.87388784  0.12814885  1
  V  V41  1  0.54139778  0.36133072  0.84412496  1
  V  V42  1  0.76365663  0.75180477  0.50794695  1
  V  V43  1  0.25304483  0.37724570  0.13475724  1
  V  V44  1  0.12426858  0.12430299  0.49696329  1
  V  V45  1  0.61229147  0.52310277  0.13055280  1
  V  V46  1  0.37716263  0.24756079  0.12158541  1
  V  V47  1  0.74892154  0.88959718  0.61625589  1
  V  V48  1  -0.00774784  0.61430579  0.62536923  1
  V  V49  1  0.74230990  0.39063714  0.63420240  1
  V  V50  1  0.86743778  0.37168858  0.02687135  1
  V  V51  1  0.01216082  0.12572829  0.12145376  1
  V  V52  1  0.11852755  0.36132869  0.26415523  1
  V  V53  1  0.12502807  0.77869742  0.86730304  1
  V  V54  1  0.74264337  0.61906418  0.38655153  1
  V  V55  1  -0.00376215  0.61795352  0.12607581  1
  V  V56  1  0.62120385  0.74894950  0.37578034  1
  V  V57  1  0.49329591  0.41641918  0.39038473  1
  V  V58  1  0.37036811  0.74616782  0.63630528  1
  V  V59  1  0.12970909  0.75606491  0.38550065  1
  V  V60  1  0.38131127  0.39071187  -0.01016172  1
  V  V61  1  0.39759674  0.63293919  0.21752423  1
  V  V62  1  0.37735496  0.88310112  0.00362548  1
  V  V63  1  0.88656514  0.36609452  0.50658603  1
  Zn  Zn64  1  0.19114018  0.18415100  0.18378094  1
  Zn  Zn65  1  0.18353793  0.15339744  0.70866782  1
  Zn  Zn66  1  0.19902793  0.68905046  0.19687908  1
  Zn  Zn67  1  0.19042144  0.68089615  0.69784303  1
  Zn  Zn68  1  0.68478346  0.05086308  0.17891413  1
  Zn  Zn69  1  0.72752192  0.23233462  0.72189174  1
  Zn  Zn70  1  0.70076960  0.69517924  0.19199546  1
  Zn  Zn71  1  0.69435578  0.67358054  0.69009830  1
  Zn  Zn72  1  0.32604950  0.33191635  0.30880885  1
  Zn  Zn73  1  0.32155241  0.30153978  0.81933406  1
  Zn  Zn74  1  0.30934249  0.79925553  0.31280853  1
  Zn  Zn75  1  0.31474905  0.82162886  0.81687858  1
  Zn  Zn76  1  0.79850115  0.31226892  0.32071688  1
  Zn  Zn77  1  0.76485909  0.36736179  0.84633717  1
  Zn  Zn78  1  0.82486558  0.80487734  0.32668607  1
  Zn  Zn79  1  0.81194942  0.81500794  0.78603630  1
  Zn  Zn80  1  0.17482271  0.43741689  0.44511810  1
  Zn  Zn81  1  0.18323123  0.41943991  0.94605493  1
  Zn  Zn82  1  0.18851727  0.93747879  0.43764384  1
  Zn  Zn83  1  0.19302296  0.97383443  0.80018925  1
  Zn  Zn84  1  0.69126742  0.43187829  0.43738801  1
  Zn  Zn85  1  0.63198615  0.45832992  0.93469493  1
  Zn  Zn86  1  0.68365308  0.94326069  0.33130798  1
  Zn  Zn87  1  0.67521274  0.90903711  0.94566483  1
  Zn  Zn88  1  0.30554562  0.06248218  0.06172315  1
  Zn  Zn89  1  0.31864060  0.06027259  0.55963228  1
  Zn  Zn90  1  0.31056564  0.56570795  0.06267394  1
  Zn  Zn91  1  0.30774793  0.56716468  0.57122724  1
  Zn  Zn92  1  0.86845419  0.00509893  0.15477772  1
  Zn  Zn93  1  0.78579355  0.02656813  0.49790286  1
  Zn  Zn94  1  0.76253159  0.55280426  0.03779414  1
  Zn  Zn95  1  0.81070704  0.55283990  0.56471055  1
  Zn  Zn96  1  0.43529055  0.45040594  0.19374528  1
  Zn  Zn97  1  0.42644214  0.41116528  0.67773958  1
  Zn  Zn98  1  0.42943495  0.93380193  0.18235641  1
  Zn  Zn99  1  0.43776225  0.92785608  0.69177192  1
  Zn  Zn100  1  0.94167138  0.43607475  0.19435912  1
  Zn  Zn101  1  0.93841179  0.43048361  0.68928224  1
  Zn  Zn102  1  1.03597515  0.96679227  0.23759286  1
  Zn  Zn103  1  0.93609478  0.92949571  0.66088238  1
  Zn  Zn104  1  0.04787872  0.20231244  0.31213502  1
  Zn  Zn105  1  0.02751459  0.04404902  0.77505598  1
  Zn  Zn106  1  0.06838506  0.55875605  0.31764276  1
  Zn  Zn107  1  0.04247071  0.55256843  0.81936296  1
  Zn  Zn108  1  0.55029859  0.06496011  0.31468389  1
  Zn  Zn109  1  0.54071619  0.07503792  0.68501644  1
  Zn  Zn110  1  0.55965685  0.57579244  0.30173208  1
  Zn  Zn111  1  0.50837461  0.56039738  0.83751472  1
  Zn  Zn112  1  0.42227794  0.18235286  0.46667806  1
  Zn  Zn113  1  0.45193612  0.18997302  0.93489124  1
  Zn  Zn114  1  0.43594676  0.67776569  0.44220492  1
  Zn  Zn115  1  0.42420221  0.69528540  0.92572562  1
  Zn  Zn116  1  0.91856411  0.16219532  0.44619093  1
  Zn  Zn117  1  0.94644305  0.21229295  0.99173210  1
  Zn  Zn118  1  0.94447046  0.68223167  0.44203039  1
  Zn  Zn119  1  0.94251215  0.69779842  0.93851545  1
  Zn  Zn120  1  0.05590101  0.32136447  0.06611888  1
  Zn  Zn121  1  0.17569990  0.30233792  0.58519281  1
  Zn  Zn122  1  0.08050757  0.79265663  0.07710116  1
  Zn  Zn123  1  0.07851687  0.79338831  0.57660708  1
  Zn  Zn124  1  0.55265755  0.31631195  0.07737896  1
  Zn  Zn125  1  0.57235120  0.45693164  0.56522347  1
  Zn  Zn126  1  0.57687696  0.81875480  0.05683813  1
  Zn  Zn127  1  0.57130101  0.79953516  0.56344796  1
  O  O128  1  0.11171029  0.11988801  0.13304602  1
  O  O129  1  0.13008500  0.11249475  0.59962735  1
  O  O130  1  0.12702361  0.61045309  0.12852183  1
  O  O131  1  0.12586665  0.61851434  0.62208406  1
  O  O132  1  0.60562016  0.12487527  0.13556434  1
  O  O133  1  0.61756249  0.12175271  0.60726365  1
  O  O134  1  0.63052875  0.62184841  0.13956671  1
  O  O135  1  0.60894163  0.61787986  0.63650150  1
  O  O136  1  0.38685726  0.38948813  0.38843574  1
  O  O137  1  0.38050888  0.37155693  0.89137000  1
  O  O138  1  0.38228647  0.86662711  0.38711000  1
  O  O139  1  0.37312312  0.87851342  0.89874334  1
  O  O140  1  0.86586962  0.38177050  0.38693940  1
  O  O141  1  0.87778549  0.36865461  0.85769194  1
  O  O142  1  0.86993118  0.89428396  0.37772734  1
  O  O143  1  0.87051056  0.90440594  0.84729124  1
  O  O144  1  0.26530189  -0.02007993  0.36047756  1
  O  O145  1  0.27206850  0.00379591  0.87534075  1
  O  O146  1  0.24473144  0.50691700  0.38629917  1
  O  O147  1  0.24270148  0.44885458  0.84028149  1
  O  O148  1  0.73830046  0.02857227  0.38626536  1
  O  O149  1  0.74267702  0.04743218  0.89526134  1
  O  O150  1  0.75484608  0.50965898  0.36873674  1
  O  O151  1  0.67011847  0.61040382  0.87043899  1
  O  O152  1  0.24087072  0.49204630  0.12623451  1
  O  O153  1  0.23641976  0.50645739  0.63855547  1
  O  O154  1  0.25384087  0.98805752  0.13630796  1
  O  O155  1  0.26455852  0.98467308  0.62339569  1
  O  O156  1  0.75103879  0.51160899  0.14778988  1
  O  O157  1  0.75577799  0.48958105  0.64151891  1
  O  O158  1  0.75764092  0.97003508  0.13874644  1
  O  O159  1  0.75297319  0.98917437  0.59856535  1
  O  O160  1  0.01937326  0.36989687  0.24460977  1
  O  O161  1  0.00774351  0.36656360  0.76224952  1
  O  O162  1  0.00353451  0.85280975  0.24256102  1
  O  O163  1  0.00049523  0.85468835  0.73057147  1
  O  O164  1  0.50774427  0.39513070  0.27274776  1
  O  O165  1  0.50824911  0.37053341  0.75038870  1
  O  O166  1  0.48314898  0.86875002  0.26581194  1
  O  O167  1  0.52191896  0.85889824  0.73273101  1
  O  O168  1  0.47877272  0.11862084  0.23856331  1
  O  O169  1  0.46010757  0.14344690  0.71441800  1
  O  O170  1  0.49632445  0.64605944  0.24220576  1
  O  O171  1  0.48472422  0.63026125  0.74074305  1
  O  O172  1  0.97465159  0.15096621  0.23939991  1
  O  O173  1  0.97653032  0.02881550  0.67745196  1
  O  O174  1  0.99811504  0.62127056  0.24692270  1
  O  O175  1  0.99123839  0.62745492  0.74478258  1
  O  O176  1  0.36934801  0.25528226  0.01678411  1
  O  O177  1  0.33612052  0.26301748  0.45670359  1
  O  O178  1  0.35624418  0.75469803  -0.00663410  1
  O  O179  1  0.38215825  0.75955579  0.51663119  1
  O  O180  1  0.84966848  0.27238422  0.01313110  1
  O  O181  1  0.85448214  0.25187536  0.49683429  1
  O  O182  1  0.87229977  0.76011561  -0.00041640  1
  O  O183  1  0.86339499  0.74488733  0.48995039  1
  O  O184  1  0.15416081  0.22329321  0.48618340  1
  O  O185  1  0.14134600  0.27195678  1.00640237  1
  O  O186  1  0.11956814  0.73179175  0.49083410  1
  O  O187  1  0.12850133  0.74980667  0.98275454  1
  O  O188  1  0.62228475  0.23746252  0.49419464  1
  O  O189  1  0.63472289  0.25327822  1.00388855  1
  O  O190  1  0.64172613  0.74841682  0.48473622  1
  O  O191  1  0.66894805  0.80224426  0.99525255  1
  O  O192  1  0.48507878  0.23516054  0.12555172  1
  O  O193  1  0.56540166  0.25713754  0.66568772  1
  O  O194  1  0.51836576  0.71095347  0.07030062  1
  O  O195  1  0.49267951  0.73815022  0.63422297  1
  O  O196  1  0.99690551  0.23307611  0.10836511  1
  O  O197  1  1.07450391  0.24753051  0.60116207  1
  O  O198  1  1.01578049  0.72832987  0.14494747  1
  O  O199  1  1.01387753  0.72805589  0.64298293  1
  O  O200  1  -0.01245538  0.23572101  0.39645277  1
  O  O201  1  -0.00609800  0.27073899  0.90540557  1
  O  O202  1  0.01374345  0.73874998  0.36673435  1
  O  O203  1  0.01720531  0.75559345  0.86615730  1
  O  O204  1  0.49894487  0.24912011  0.39569044  1
  O  O205  1  0.51253132  0.27302654  0.88821408  1
  O  O206  1  0.50968879  0.75370488  0.38624759  1
  O  O207  1  0.49360725  0.74954894  0.85302463  1
  O  O208  1  0.22831601  0.10208202  0.49010159  1
  O  O209  1  0.24255851  0.14235851  1.01463333  1
  O  O210  1  0.23480028  0.62431964  0.50001281  1
  O  O211  1  0.23313277  0.64112291  1.00698088  1
  O  O212  1  0.72936422  0.13465656  0.48887482  1
  O  O213  1  0.79692251  0.07907528  0.93234204  1
  O  O214  1  0.76046689  0.62506169  0.48767927  1
  O  O215  1  0.74825425  0.65724987  1.00451651  1
  O  O216  1  0.26533173  0.36821842  0.01612564  1
  O  O217  1  0.23935751  0.37010743  0.51484487  1
  O  O218  1  0.25670875  0.86425121  0.01318784  1
  O  O219  1  0.26791750  0.87783545  0.50434443  1
  O  O220  1  0.76995225  0.40594773  -0.02942185  1
  O  O221  1  0.74876737  0.35942806  0.51366282  1
  O  O222  1  0.77933224  0.88678184  0.00226262  1
  O  O223  1  0.75359941  0.85807257  0.51107144  1
  O  O224  1  0.12746261  0.48798541  0.24411497  1
  O  O225  1  0.12477311  0.50973591  0.75034550  1
  O  O226  1  0.14612313  0.99472319  0.25659988  1
  O  O227  1  0.13644472  1.06017789  0.75233766  1
  O  O228  1  0.63018039  0.50013696  0.24458971  1
  O  O229  1  0.68229809  0.53282526  0.85180688  1
  O  O230  1  0.61959377  1.00047535  0.25757984  1
  O  O231  1  0.61361190  1.00126617  0.72995396  1
  O  O232  1  0.36953007  0.00446529  0.25710605  1
  O  O233  1  0.39564010  -0.01154831  0.77399781  1
  O  O234  1  0.37673209  0.53310636  0.24341691  1
  O  O235  1  0.37340834  0.49939620  0.73896865  1
  O  O236  1  0.86212930  0.02872547  0.27381263  1
  O  O237  1  0.87492922  -0.02714896  0.80724086  1
  O  O238  1  0.87053511  0.50019979  0.26632281  1
  O  O239  1  0.88356062  0.50978164  0.75298871  1
  O  O240  1  0.12740768  0.37579196  0.36233226  1
  O  O241  1  0.11037607  0.37327167  0.87093047  1
  O  O242  1  0.12840267  0.85623240  0.38795619  1
  O  O243  1  0.12991214  0.87639170  0.85700891  1
  O  O244  1  0.60644775  0.37123458  0.37981314  1
  O  O245  1  0.64771981  0.36732902  0.86009486  1
  O  O246  1  0.60770131  0.86316361  0.37507570  1
  O  O247  1  0.63301702  0.89397124  0.84343399  1
  O  O248  1  0.37245245  0.13677101  0.13398424  1
  O  O249  1  0.37648116  0.15706058  0.57517688  1
  O  O250  1  0.38153816  0.63316295  0.11587838  1
  O  O251  1  0.37534011  0.63575198  0.63848644  1
  O  O252  1  0.84823240  0.12517693  0.14631032  1
  O  O253  1  0.83664973  0.09345233  0.68759125  1
  O  O254  1  0.89519319  0.61376279  0.13961578  1
  O  O255  1  0.89180647  0.61396706  0.62292174  1
  O  O256  1  0.26040345  0.25748200  0.12235938  1
  O  O257  1  0.23966675  0.22577664  0.63815776  1
  O  O258  1  0.23181462  0.76009123  0.11243540  1
  O  O259  1  0.26655968  0.75833208  0.63661816  1
  O  O260  1  0.68930077  0.20998881  0.02897352  1
  O  O261  1  0.74291514  0.23616740  0.60983188  1
  O  O262  1  0.76074559  0.77926052  0.13774560  1
  O  O263  1  0.74821132  0.73322040  0.60615693  1
  O  O264  1  0.28863355  0.25693782  0.39447730  1
  O  O265  1  0.25683564  0.25219418  0.89655662  1
  O  O266  1  0.23201521  0.73542428  0.37500883  1
  O  O267  1  0.23754977  0.75994653  0.88714082  1
  O  O268  1  0.72385137  0.24923363  0.38782753  1
  O  O269  1  0.76359471  0.22921729  0.88172632  1
  O  O270  1  0.74655215  0.73505506  0.38471089  1
  O  O271  1  0.76822200  0.76025203  0.87745163  1
  O  O272  1  -0.02028920  0.10805381  0.02460405  1
  O  O273  1  0.02162680  0.13257477  0.50739555  1
  O  O274  1  0.01770489  0.63336866  0.01959173  1
  O  O275  1  0.01180124  0.62550433  0.51881537  1
  O  O276  1  0.49928871  0.11490506  0.01569755  1
  O  O277  1  0.50722084  0.10652232  0.48883127  1
  O  O278  1  0.51166873  0.66416192  0.01180806  1
  O  O279  1  0.49428054  0.62542667  0.52319664  1
  O  O280  1  0.50439459  0.39836949  0.48905960  1
  O  O281  1  0.47834140  0.37742649  1.01974574  1
  O  O282  1  0.49296634  0.87964176  0.49636049  1
  O  O283  1  0.48552368  0.88480270  1.02061980  1
  O  O284  1  0.98124076  0.36312830  0.50549758  1
  O  O285  1  0.96992592  0.38130017  1.00345004  1
  O  O286  1  1.00019945  0.86114319  0.50406702  1
  O  O287  1  1.00891735  0.93895355  0.94669929  1
  O  O288  1  0.50321292  0.51509442  0.38217527  1
  O  O289  1  0.52341116  0.45882221  0.88491075  1
  O  O290  1  0.49008990  0.98019247  0.38096918  1
  O  O291  1  0.48940685  0.99925329  0.90510341  1
  O  O292  1  0.98848177  0.49387224  0.37585302  1
  O  O293  1  0.99727801  0.47444915  0.88564268  1
  O  O294  1  0.99904362  0.98820501  0.34478707  1
  O  O295  1  0.92286804  1.02680930  0.83932477  1
  O  O296  1  -0.01667660  0.02099587  0.15335206  1
  O  O297  1  -0.03474667  -0.08010923  0.53348447  1
  O  O298  1  0.01782963  0.50997351  0.13138502  1
  O  O299  1  0.01531505  0.51041101  0.63680208  1
  O  O300  1  0.48852363  0.01200067  0.11933068  1
  O  O301  1  0.49120486  -0.00505152  0.60867657  1
  O  O302  1  0.51431535  0.50834461  0.12823559  1
  O  O303  1  0.49381647  0.50566400  0.63238304  1
  O  O304  1  0.24003502  0.36818879  0.24104072  1
  O  O305  1  0.23362428  0.39171543  0.78709600  1
  O  O306  1  0.25826304  0.87796891  0.23597968  1
  O  O307  1  0.24964994  0.88385507  0.74332746  1
  O  O308  1  0.72385714  0.38863919  0.27026114  1
  O  O309  1  0.75794038  0.34478350  0.73082257  1
  O  O310  1  0.74516938  0.86853409  0.26801987  1
  O  O311  1  0.73293860  0.87989656  0.73093261  1
  O  O312  1  0.26291233  0.10753773  0.24480254  1
  O  O313  1  0.30116832  0.12362576  0.72470604  1
  O  O314  1  0.23605275  0.61287486  0.27085656  1
  O  O315  1  0.27309681  0.62895390  0.75923926  1
  O  O316  1  0.73041138  0.13344199  0.25691056  1
  O  O317  1  0.79454633  0.12197856  0.74050237  1
  O  O318  1  0.76509504  0.62052050  0.26528224  1
  O  O319  1  0.77893610  0.63266065  0.75021670  1
  O  O320  1  0.38148425  0.11177265  0.36523821  1
  O  O321  1  0.38687035  0.11641532  0.87976959  1
  O  O322  1  0.35356806  0.62831215  0.38661959  1
  O  O323  1  0.39858937  0.60339206  0.86270507  1
  O  O324  1  0.83976135  0.15693755  0.35486087  1
  O  O325  1  0.96086932  0.18268619  0.78206709  1
  O  O326  1  0.87437360  0.60722509  0.37424834  1
  O  O327  1  0.89191354  0.61779985  0.87310015  1
  O  O328  1  0.13267053  0.38719491  0.13035281  1
  O  O329  1  0.13237505  0.38572283  0.65872158  1
  O  O330  1  0.13666570  0.88228000  0.11992332  1
  O  O331  1  0.14871102  0.87223726  0.61479054  1
  O  O332  1  0.61444628  0.37900900  0.14945270  1
  O  O333  1  0.64224276  0.38355185  0.62527971  1
  O  O334  1  0.62310066  0.86586612  0.15141517  1
  O  O335  1  0.63847428  0.86856699  0.62706512  1
  O  O336  1  0.13107822  0.25426711  0.25516618  1
  O  O337  1  0.13410183  0.25453142  0.76142238  1
  O  O338  1  0.11720344  0.74075448  0.26693120  1
  O  O339  1  0.12195129  0.74114180  0.76732903  1
  O  O340  1  0.61048756  0.26987848  0.27211202  1
  O  O341  1  0.60135366  0.23274266  0.72581200  1
  O  O342  1  0.63528788  0.74223356  0.27680439  1
  O  O343  1  0.61482851  0.73483917  0.75014022  1
  O  O344  1  0.36600137  0.23621104  0.24723087  1
  O  O345  1  0.36805470  0.27903080  0.72251870  1
  O  O346  1  0.35111373  0.72163511  0.24619196  1
  O  O347  1  0.38622763  0.76277374  0.73971491  1
  O  O348  1  0.85143050  0.25848948  0.23692216  1
  O  O349  1  0.92197271  0.22499766  0.73720274  1
  O  O350  1  0.89347485  0.73170282  0.26652740  1
  O  O351  1  0.89619901  0.73834309  0.76034937  1
  O  O352  1  0.35500326  0.48647299  0.51038697  1
  O  O353  1  0.36356417  0.49000957  0.99821527  1
  O  O354  1  0.38350259  0.98781045  0.48919594  1
  O  O355  1  0.37246093  0.99163968  0.99888962  1
  O  O356  1  0.87113254  0.48385662  0.48987407  1
  O  O357  1  0.82508442  0.47298174  0.97852971  1
  O  O358  1  0.88991863  1.04745422  0.45474566  1
  O  O359  1  0.85613602  0.92546926  0.99941503  1
  O  O360  1  0.06067135  -0.00748924  -0.04515766  1
  O  O361  1  0.11803295  0.01677948  0.48504942  1
  O  O362  1  0.13555779  0.50896048  0.01005207  1
  O  O363  1  0.12239731  0.50736918  0.52068344  1
  O  O364  1  0.61260444  -0.01227603  0.00457122  1
  O  O365  1  0.60946885  0.00723808  0.49458092  1
  O  O366  1  0.64947471  0.50318621  0.03369780  1
  O  O367  1  0.64931681  0.50786807  0.50441463  1
  O  O368  1  0.37037207  0.36232524  0.14022867  1
  O  O369  1  0.38771759  0.35228671  0.58513837  1
  O  O370  1  0.36010345  0.87339936  0.11244939  1
  O  O371  1  0.37094136  0.86629009  0.61715375  1
  O  O372  1  0.86439725  0.39093757  0.12487170  1
  O  O373  1  0.86637498  0.37759148  0.61140383  1
  O  O374  1  0.89589361  0.91661197  0.06340053  1
  O  O375  1  0.84767699  0.86534416  0.64305491  1
  O  O376  1  0.10794080  0.12891464  0.39102476  1
  O  O377  1  0.07846129  0.03901584  0.89269782  1
  O  O378  1  0.12891524  0.61789715  0.39431027  1
  O  O379  1  0.11580969  0.61472702  0.89225622  1
  O  O380  1  0.61765599  0.14168538  0.37552325  1
  O  O381  1  0.70796490  0.20014011  0.84015119  1
  O  O382  1  0.63889437  0.62789975  0.37672428  1
  O  O383  1  0.59689390  0.62737432  0.89129737  1
