# generated using pymatgen
data_VZnO4
_symmetry_space_group_name_H-M   'P 1'
_cell_length_a   17.00995506
_cell_length_b   16.97245707
_cell_length_c   16.95823012
_cell_angle_alpha   89.63039495
_cell_angle_beta   89.97109376
_cell_angle_gamma   89.81723292
_symmetry_Int_Tables_number   1
_chemical_formula_structural   VZnO4
_chemical_formula_sum   'V64 Zn64 O256'
_cell_volume   4895.72610165
_cell_formula_units_Z   64
loop_
 _symmetry_equiv_pos_site_id
 _symmetry_equiv_pos_as_xyz
  1  'x, y, z'
loop_
 _atom_site_type_symbol
 _atom_site_label
 _atom_site_symmetry_multiplicity
 _atom_site_fract_x
 _atom_site_fract_y
 _atom_site_fract_z
 _atom_site_occupancy
  V  V0  1  0.50433966  0.38597638  0.36482091  1
  V  V1  1  0.27322891  0.24557128  -0.02074456  1
  V  V2  1  0.86722928  0.87229977  0.02643115  1
  V  V3  1  -0.00848560  0.35455985  0.86205150  1
  V  V4  1  0.10832250  0.62600061  0.00115286  1
  V  V5  1  0.86487187  0.39337398  0.49866322  1
  V  V6  1  0.36964520  0.87568102  0.50316711  1
  V  V7  1  0.25267592  0.39251740  0.11959265  1
  V  V8  1  0.02296005  0.00654306  0.52790190  1
  V  V9  1  0.50267457  -0.01053411  0.48673502  1
  V  V10  1  0.23631021  0.74043816  0.50121747  1
  V  V11  1  0.24866666  0.60447702  0.37495001  1
  V  V12  1  0.00502456  0.86630991  0.40830294  1
  V  V13  1  0.73740989  0.39156580  0.62679245  1
  V  V14  1  0.73967488  0.73180766  0.51074131  1
  V  V15  1  0.37601445  0.71748065  0.62243786  1
  V  V16  1  0.24655458  0.75371105  0.02629219  1
  V  V17  1  0.61201474  -0.00738194  0.63344608  1
  V  V18  1  0.63179827  0.12457930  0.49112639  1
  V  V19  1  0.00370114  0.74581118  0.75421655  1
  V  V20  1  0.17882661  0.91583229  0.72552654  1
  V  V21  1  0.49581703  -0.01342032  -0.00196825  1
  V  V22  1  -0.02404506  0.75752309  0.24789738  1
  V  V23  1  0.48596423  0.72419390  0.76355524  1
  V  V24  1  -0.00723658  -0.01734195  -0.05763548  1
  V  V25  1  0.75724874  0.01712312  0.26574357  1
  V  V26  1  0.48735169  0.76645751  0.22914711  1
  V  V27  1  0.74318057  0.63222597  0.35108241  1
  V  V28  1  0.49515164  0.52136513  0.00450286  1
  V  V29  1  0.86246046  -0.00306703  0.41564690  1
  V  V30  1  0.76721667  0.23430867  0.00493057  1
  V  V31  1  0.37611495  0.11975168  0.26172917  1
  V  V32  1  0.63771327  0.87632636  0.25479676  1
  V  V33  1  0.37603939  0.61439636  0.23925623  1
  V  V34  1  0.64179231  0.00465737  0.11921140  1
  V  V35  1  0.60796551  0.75330560  0.38426310  1
  V  V36  1  0.88260919  0.49912451  0.88887256  1
  V  V37  1  0.75115073  0.73922223  -0.00657626  1
  V  V38  1  0.24352423  0.41020758  0.62823550  1
  V  V39  1  0.50252871  0.12610291  0.11798895  1
  V  V40  1  0.11556413  0.38762292  0.26668476  1
  V  V41  1  0.24101906  0.63972238  0.86868797  1
  V  V42  1  0.88111280  0.25410216  0.63312200  1
  V  V43  1  0.86477616  0.50907103  0.36339438  1
  V  V44  1  0.49685104  0.36736671  0.89185186  1
  V  V45  1  0.00354468  0.50460362  0.49936433  1
  V  V46  1  0.08896321  0.49623155  0.11637608  1
  V  V47  1  0.51198517  0.14274017  0.62572600  1
  V  V48  1  0.39433237  0.27282792  0.60397377  1
  V  V49  1  0.61605187  0.37352996  0.75456111  1
  V  V50  1  0.74309506  0.87170194  0.62739722  1
  V  V51  1  0.64241002  0.25576906  0.36288539  1
  V  V52  1  0.36074260  0.49642204  0.87777003  1
  V  V53  1  0.01006152  0.61179591  0.63009075  1
  V  V54  1  0.37360563  0.13464655  0.74691656  1
  V  V55  1  0.75540106  0.50813855  0.76156735  1
  V  V56  1  0.74684258  0.25212788  0.50315158  1
  V  V57  1  0.73560445  0.37967102  0.11885699  1
  V  V58  1  0.00703495  0.24485312  0.22712044  1
  V  V59  1  0.86003429  0.09633416  0.76406166  1
  V  V60  1  0.63332717  0.23780938  0.88281829  1
  V  V61  1  0.50434657  0.25390805  0.24266599  1
  V  V62  1  0.59650628  0.86991731  0.76078103  1
  V  V63  1  0.85793542  0.71634248  0.63851660  1
  Zn  Zn64  1  0.20031887  0.21631298  0.22867480  1
  Zn  Zn65  1  0.23300324  0.20360866  0.65693368  1
  Zn  Zn66  1  0.19948569  0.64816784  0.17571669  1
  Zn  Zn67  1  0.18668976  0.68077341  0.68295211  1
  Zn  Zn68  1  0.69547844  0.18499826  0.18155284  1
  Zn  Zn69  1  0.68916072  0.19499550  0.69105413  1
  Zn  Zn70  1  0.67879367  0.70221577  0.17365937  1
  Zn  Zn71  1  0.66718765  0.68289686  0.70143449  1
  Zn  Zn72  1  0.32693420  0.33554432  0.27400827  1
  Zn  Zn73  1  0.32253168  0.30614147  0.79870086  1
  Zn  Zn74  1  0.33218056  0.77727671  0.33780576  1
  Zn  Zn75  1  0.30208116  0.80039408  0.79288907  1
  Zn  Zn76  1  0.83180577  0.30223062  0.32084955  1
  Zn  Zn77  1  0.80973893  0.31368763  0.81576741  1
  Zn  Zn78  1  0.81060881  0.81896346  0.33816405  1
  Zn  Zn79  1  0.78079340  0.78845959  0.80411850  1
  Zn  Zn80  1  0.30176588  0.39960725  0.42973182  1
  Zn  Zn81  1  0.17131769  0.42498610  0.94791359  1
  Zn  Zn82  1  0.15713461  0.89133626  0.51571319  1
  Zn  Zn83  1  0.15816073  0.89173771  0.92148484  1
  Zn  Zn84  1  0.65897028  0.46151792  0.40960716  1
  Zn  Zn85  1  0.69352387  0.42542911  0.93651223  1
  Zn  Zn86  1  0.68497145  0.92910396  0.44491717  1
  Zn  Zn87  1  0.68250708  0.91772036  0.94400876  1
  Zn  Zn88  1  0.33316972  0.07964058  0.04556054  1
  Zn  Zn89  1  0.34056108  0.05657199  0.58619418  1
  Zn  Zn90  1  0.31132764  0.56998885  0.05015317  1
  Zn  Zn91  1  0.28936280  0.55169528  0.56102961  1
  Zn  Zn92  1  0.81593634  0.04783121  0.05425924  1
  Zn  Zn93  1  0.79427094  0.07232272  0.60045240  1
  Zn  Zn94  1  0.80400217  0.54546669  0.05005102  1
  Zn  Zn95  1  0.62295157  0.57506571  0.55071198  1
  Zn  Zn96  1  0.44344422  0.43595037  0.17663036  1
  Zn  Zn97  1  0.41116163  0.42818859  0.70799631  1
  Zn  Zn98  1  0.46101345  0.95616977  0.20845432  1
  Zn  Zn99  1  0.39826910  0.92415694  0.69795791  1
  Zn  Zn100  1  0.93194285  0.42849761  0.19286943  1
  Zn  Zn101  1  0.93430395  0.43370219  0.69457892  1
  Zn  Zn102  1  0.91728630  0.91008981  0.22521571  1
  Zn  Zn103  1  0.92299583  0.92696807  0.68547179  1
  Zn  Zn104  1  0.00248873  0.08505839  0.34458182  1
  Zn  Zn105  1  0.03782533  0.04035454  0.73974616  1
  Zn  Zn106  1  0.05511891  0.56803331  0.31362369  1
  Zn  Zn107  1  0.04549848  0.57032119  0.82725422  1
  Zn  Zn108  1  0.56703184  0.06827728  0.31082492  1
  Zn  Zn109  1  0.55365101  0.06381912  0.81362275  1
  Zn  Zn110  1  0.55031231  0.58145981  0.30196061  1
  Zn  Zn111  1  0.56606496  0.54708793  0.82434383  1
  Zn  Zn112  1  0.45364145  0.19224627  0.43182983  1
  Zn  Zn113  1  0.44355239  0.18418624  0.93287116  1
  Zn  Zn114  1  0.43172675  0.67990509  0.43650846  1
  Zn  Zn115  1  0.41959646  0.69035574  0.94538719  1
  Zn  Zn116  1  0.91160093  0.16133210  0.48408085  1
  Zn  Zn117  1  0.92622416  0.16905247  0.92239494  1
  Zn  Zn118  1  0.92291235  0.67927085  0.44937321  1
  Zn  Zn119  1  0.92325055  0.69125630  0.93193233  1
  Zn  Zn120  1  0.07182121  0.30940045  0.04606244  1
  Zn  Zn121  1  0.05512235  0.34285925  0.57651663  1
  Zn  Zn122  1  0.03848865  0.79616801  0.04632563  1
  Zn  Zn123  1  0.03996751  0.82080550  0.60434418  1
  Zn  Zn124  1  0.57693888  0.30953337  0.06228543  1
  Zn  Zn125  1  0.54620512  0.40326263  0.56512280  1
  Zn  Zn126  1  0.58117422  0.81830958  0.06857404  1
  Zn  Zn127  1  0.54817227  0.80135176  0.57354098  1
  O  O128  1  0.15019979  0.05312441  0.10222066  1
  O  O129  1  0.22308667  0.13662336  0.50125602  1
  O  O130  1  0.11306166  0.60768812  0.11618631  1
  O  O131  1  0.10693314  0.62161170  0.62167058  1
  O  O132  1  0.61981969  0.10827004  0.13642141  1
  O  O133  1  0.62362129  0.11249253  0.61866861  1
  O  O134  1  0.62770430  0.59390731  0.14288881  1
  O  O135  1  0.60133468  0.65432915  0.61893375  1
  O  O136  1  0.40467144  0.39718967  0.34908841  1
  O  O137  1  0.39356242  0.37773650  0.87143617  1
  O  O138  1  0.38517295  0.85530892  0.40496028  1
  O  O139  1  0.36536074  0.88929709  0.88059052  1
  O  O140  1  0.85512841  0.39811735  0.38727092  1
  O  O141  1  0.88694865  0.37754150  0.87161373  1
  O  O142  1  0.87529267  0.89189475  0.39509724  1
  O  O143  1  0.82687538  0.89438715  0.85589335  1
  O  O144  1  0.16710290  0.02903682  0.32584710  1
  O  O145  1  0.32098947  -0.05368318  0.89142021  1
  O  O146  1  0.27920674  0.51130174  0.38898731  1
  O  O147  1  0.26202437  0.47712584  0.88997347  1
  O  O148  1  0.75593235  -0.00319152  0.37848198  1
  O  O149  1  0.77635688  -0.05070295  0.86423249  1
  O  O150  1  0.74669373  0.52276879  0.36259382  1
  O  O151  1  0.76509850  0.48344214  0.86706223  1
  O  O152  1  0.24901609  0.49362560  0.11448335  1
  O  O153  1  0.22363542  0.50764588  0.64606925  1
  O  O154  1  0.21446842  1.01912041  0.10399576  1
  O  O155  1  0.23158033  1.10978556  0.58597482  1
  O  O156  1  0.74888358  0.48079946  0.11970278  1
  O  O157  1  0.74500157  0.48998583  0.64023831  1
  O  O158  1  0.74557890  1.00917276  0.14554982  1
  O  O159  1  0.72451326  0.97801984  0.61823045  1
  O  O160  1  0.01050500  0.36561905  0.24659906  1
  O  O161  1  0.00642089  0.37040428  0.76196797  1
  O  O162  1  -0.00182319  0.85944496  0.28816933  1
  O  O163  1  -0.00737023  0.84334105  0.71529712  1
  O  O164  1  0.50818846  0.35690962  0.23811638  1
  O  O165  1  0.51466457  0.38457672  0.76515083  1
  O  O166  1  0.51637200  0.87088129  0.25312879  1
  O  O167  1  0.49496136  0.88005608  0.75101801  1
  O  O168  1  0.49993031  0.12977456  0.24064842  1
  O  O169  1  0.50343028  0.12131990  0.72689420  1
  O  O170  1  0.48244603  0.65523896  0.24929053  1
  O  O171  1  0.50703109  0.62702058  0.76869088  1
  O  O172  1  1.02772189  0.14603939  0.25306466  1
  O  O173  1  0.95880415  0.12044652  0.74625495  1
  O  O174  1  1.01210503  0.66941423  0.28123038  1
  O  O175  1  0.99542014  0.62561262  0.73772956  1
  O  O176  1  0.37305853  0.25230941  -0.00580090  1
  O  O177  1  0.40603285  0.26209890  0.50516935  1
  O  O178  1  0.34606565  0.74602066  0.00939765  1
  O  O179  1  0.37188960  0.74437329  0.51261301  1
  O  O180  1  0.86571362  0.24152548  -0.00476624  1
  O  O181  1  0.86087075  0.26823550  0.49642571  1
  O  O182  1  0.86040276  0.75952794  -0.00010228  1
  O  O183  1  0.84490957  0.73361158  0.52050145  1
  O  O184  1  0.13295588  0.26877469  0.48435254  1
  O  O185  1  0.17725749  0.24238616  1.05302836  1
  O  O186  1  0.14131357  0.76014935  0.52327022  1
  O  O187  1  0.12502958  0.73451598  1.00808471  1
  O  O188  1  0.63739243  0.24422929  0.48205919  1
  O  O189  1  0.63127322  0.24165235  0.98662978  1
  O  O190  1  0.61552702  0.75122992  0.48752129  1
  O  O191  1  0.67199780  0.74913766  1.06938182  1
  O  O192  1  0.52247529  0.23322179  0.13286038  1
  O  O193  1  0.52510321  0.23932130  0.61851995  1
  O  O194  1  0.50280919  0.76259233  0.13140143  1
  O  O195  1  0.48251653  0.73517349  0.63943208  1
  O  O196  1  1.00921098  0.25474328  0.12490675  1
  O  O197  1  0.97939240  0.27336805  0.62225473  1
  O  O198  1  1.00102757  0.76980410  0.15050055  1
  O  O199  1  0.97271054  0.72265074  0.62678791  1
  O  O200  1  0.11261861  0.23641187  0.42260021  1
  O  O201  1  -0.01822535  0.25485657  0.87186688  1
  O  O202  1  -0.01834311  0.76809508  0.41562484  1
  O  O203  1  -0.01608853  0.74855650  0.85236948  1
  O  O204  1  0.51809025  0.26160464  0.35694381  1
  O  O205  1  0.51467208  0.26167465  0.88093323  1
  O  O206  1  0.50890289  0.74751103  0.37141570  1
  O  O207  1  0.46551303  0.74970316  0.85877007  1
  O  O208  1  0.27650033  0.10896953  0.45828941  1
  O  O209  1  0.26709399  0.14176009  0.98275229  1
  O  O210  1  0.25136298  0.63162421  0.48847452  1
  O  O211  1  0.23185693  0.63853159  0.99639830  1
  O  O212  1  0.73892309  0.13779436  0.51263229  1
  O  O213  1  0.75718743  0.13321445  1.01249173  1
  O  O214  1  0.72040006  0.63457118  0.50051363  1
  O  O215  1  0.76434116  0.64120219  1.01193441  1
  O  O216  1  0.25267629  0.36678367  0.01678659  1
  O  O217  1  0.29858600  0.43454233  0.53748955  1
  O  O218  1  0.22600855  0.85116018  -0.00053972  1
  O  O219  1  0.26622150  0.85968100  0.50635694  1
  O  O220  1  0.74638070  0.36119089  0.01327937  1
  O  O221  1  0.75307518  0.37229386  0.51361551  1
  O  O222  1  0.76041068  0.86127472  0.00641383  1
  O  O223  1  0.72472892  0.84980486  0.52093337  1
  O  O224  1  0.09838000  0.49603194  0.22937856  1
  O  O225  1  0.11686869  0.48637110  0.75617567  1
  O  O226  1  0.13419915  1.01034597  0.26089418  1
  O  O227  1  0.14732816  1.01260057  0.72632496  1
  O  O228  1  0.61750361  0.54449645  0.19857399  1
  O  O229  1  0.63989582  0.48014878  0.76530871  1
  O  O230  1  0.63987109  0.99214772  0.26065234  1
  O  O231  1  0.61095503  0.99102055  0.73723041  1
  O  O232  1  0.38110608  0.01794133  0.24942178  1
  O  O233  1  0.36955912  0.03461212  0.69947317  1
  O  O234  1  0.40258313  0.51951524  0.24881233  1
  O  O235  1  0.38317637  0.50866227  0.77972072  1
  O  O236  1  0.85793260  -0.00317915  0.26425807  1
  O  O237  1  0.85892420  -0.00306656  0.74217516  1
  O  O238  1  0.88063287  0.50370796  0.26631904  1
  O  O239  1  0.85834760  0.49694559  0.75364915  1
  O  O240  1  0.12355733  0.40310450  0.36044575  1
  O  O241  1  0.15128339  0.43242898  0.79245579  1
  O  O242  1  0.10397516  0.87488321  0.40571794  1
  O  O243  1  0.14592594  0.87453573  0.81232511  1
  O  O244  1  0.63428329  0.35715972  0.36195402  1
  O  O245  1  0.61750624  0.36582058  0.87187579  1
  O  O246  1  0.62871092  0.86059769  0.36798464  1
  O  O247  1  0.62077434  0.88520033  0.85640499  1
  O  O248  1  0.39922113  0.12281964  0.13286887  1
  O  O249  1  0.40118819  0.15401901  0.61421251  1
  O  O250  1  0.35923271  0.62628438  0.14049905  1
  O  O251  1  0.37000388  0.61850312  0.61557340  1
  O  O252  1  0.92232639  0.08211605  0.12691087  1
  O  O253  1  0.87831186  0.15563878  0.59840137  1
  O  O254  1  0.90087256  0.60673117  0.11093679  1
  O  O255  1  0.85774645  0.62068837  0.63757905  1
  O  O256  1  0.22577867  0.26388655  0.11933751  1
  O  O257  1  0.29043780  0.28543784  0.60338091  1
  O  O258  1  0.23327239  0.74548599  0.12661600  1
  O  O259  1  0.26436702  0.73363328  0.61673161  1
  O  O260  1  0.74635193  0.25355541  0.11005081  1
  O  O261  1  0.75084399  0.26445523  0.61458280  1
  O  O262  1  0.87126575  0.65414276  0.15824207  1
  O  O263  1  0.74384826  0.74330528  0.62522446  1
  O  O264  1  0.27958546  0.30825634  0.37214490  1
  O  O265  1  0.25379864  0.27232848  0.88280085  1
  O  O266  1  0.23962245  0.74737545  0.39701791  1
  O  O267  1  0.24741826  0.74132315  0.87275320  1
  O  O268  1  0.74738406  0.25201464  0.38069195  1
  O  O269  1  0.74141349  0.25595395  0.89009128  1
  O  O270  1  0.74192756  0.74144881  0.39328435  1
  O  O271  1  0.72641862  0.74841081  0.89563191  1
  O  O272  1  -0.01521025  0.08116955  -0.03427582  1
  O  O273  1  0.01088115  0.10525461  0.50084228  1
  O  O274  1  0.00968846  0.63698422  -0.00998914  1
  O  O275  1  -0.01659477  0.61123964  0.51933231  1
  O  O276  1  0.50168314  0.11721938  0.01418657  1
  O  O277  1  0.51563932  0.11913583  0.50593204  1
  O  O278  1  0.49419093  0.62149241  -0.00036684  1
  O  O279  1  0.50301349  0.59934095  0.48384871  1
  O  O280  1  0.50783413  0.37551928  0.46263320  1
  O  O281  1  0.50982111  0.37503095  0.99251393  1
  O  O282  1  0.50696391  0.88828093  0.49940672  1
  O  O283  1  0.52344662  0.88874968  1.00361786  1
  O  O284  1  0.97636310  0.39329843  0.50594371  1
  O  O285  1  1.07317896  0.36106535  0.94089558  1
  O  O286  1  0.99850771  0.88959952  0.51961857  1
  O  O287  1  0.96975347  0.86654303  0.98849733  1
  O  O288  1  0.54937976  0.48094670  0.34915372  1
  O  O289  1  0.49164962  0.48737616  0.89186071  1
  O  O290  1  0.50625940  1.00593894  0.38865822  1
  O  O291  1  0.50867461  1.00971654  0.90060059  1
  O  O292  1  0.97393876  0.51970980  0.39081208  1
  O  O293  1  0.98755565  0.48309986  0.87175666  1
  O  O294  1  0.98362595  0.98478675  0.41174981  1
  O  O295  1  0.99601115  0.97788451  0.84298589  1
  O  O296  1  -0.02705807  0.03177538  0.14590815  1
  O  O297  1  -0.00393353  0.00061766  0.62920985  1
  O  O298  1  -0.00901641  0.48366397  0.11020578  1
  O  O299  1  -0.00826599  0.50496043  0.61978845  1
  O  O300  1  0.51930627  0.00827824  0.11926402  1
  O  O301  1  0.51203900  0.00935334  0.60845899  1
  O  O302  1  0.50343034  0.49227575  0.10085700  1
  O  O303  1  0.49168326  0.51703927  0.58914835  1
  O  O304  1  0.21866957  0.37590892  0.22908154  1
  O  O305  1  0.29643753  0.38687690  0.71770388  1
  O  O306  1  0.25592768  0.88444863  0.26691150  1
  O  O307  1  0.28371104  0.89664402  0.73331167  1
  O  O308  1  0.78467632  0.36145841  0.22498658  1
  O  O309  1  0.74429934  0.37981597  0.73878969  1
  O  O310  1  0.73997246  0.87720803  0.25992444  1
  O  O311  1  0.71478141  0.85263704  0.73092556  1
  O  O312  1  0.27700078  0.14160144  0.24652912  1
  O  O313  1  0.27261977  0.14791102  0.74759556  1
  O  O314  1  0.26344684  0.61756443  0.26104590  1
  O  O315  1  0.23481130  0.62275882  0.77080377  1
  O  O316  1  0.75042136  0.11528950  0.26073793  1
  O  O317  1  0.77006262  0.11900986  0.70770457  1
  O  O318  1  0.74745876  0.65071472  0.25364241  1
  O  O319  1  0.73154415  0.60626668  0.75751294  1
  O  O320  1  0.39296194  0.13130655  0.35999687  1
  O  O321  1  0.39880186  0.12671258  0.84447655  1
  O  O322  1  0.36025900  0.65365944  0.35323772  1
  O  O323  1  0.34444952  0.60994525  0.88924515  1
  O  O324  1  0.89059719  0.09834756  0.38817433  1
  O  O325  1  0.84445151  0.11384455  0.86199273  1
  O  O326  1  0.85039672  0.61982433  0.38064109  1
  O  O327  1  0.88095465  0.60031665  0.87929624  1
  O  O328  1  0.12622412  0.39660410  0.11299363  1
  O  O329  1  0.15287776  0.36509796  0.61905835  1
  O  O330  1  0.13146241  0.89089031  0.15669248  1
  O  O331  1  0.14171547  0.87179914  0.63883427  1
  O  O332  1  0.63685729  0.37059064  0.13614080  1
  O  O333  1  0.62931382  0.37252650  0.64363512  1
  O  O334  1  0.62890949  0.89677334  0.14685695  1
  O  O335  1  0.61007959  0.88251885  0.63347533  1
  O  O336  1  0.11162671  0.27124999  0.26273214  1
  O  O337  1  0.13162465  0.24330214  0.72811581  1
  O  O338  1  0.13537022  0.84789302  0.21497822  1
  O  O339  1  0.10288154  0.73607374  0.74286262  1
  O  O340  1  0.62579130  0.23407140  0.26087933  1
  O  O341  1  0.63708139  0.26614534  0.76502386  1
  O  O342  1  0.61787790  0.76553119  0.25242219  1
  O  O343  1  0.59272735  0.76020077  0.75453067  1
  O  O344  1  0.40297737  0.24157978  0.24616883  1
  O  O345  1  0.39072561  0.24417802  0.72626182  1
  O  O346  1  0.38704236  0.77720626  0.23814504  1
  O  O347  1  0.37632522  0.73690937  0.73393765  1
  O  O348  1  0.91600901  0.24959243  0.27327756  1
  O  O349  1  0.86167703  0.25139204  0.73194766  1
  O  O350  1  0.87580853  0.76502232  0.26172724  1
  O  O351  1  0.86345353  0.74335907  0.73984475  1
  O  O352  1  0.45734757  0.54137354  0.52307880  1
  O  O353  1  0.38723258  0.50360781  0.99222918  1
  O  O354  1  0.38870421  0.98605046  0.50835477  1
  O  O355  1  0.39650707  0.98994866  1.01820111  1
  O  O356  1  0.86251000  0.49361246  0.49662785  1
  O  O357  1  0.87404005  0.48475145  0.98789726  1
  O  O358  1  0.85205011  1.00497073  0.51414469  1
  O  O359  1  0.87486420  0.97402337  0.99192993  1
  O  O360  1  0.08852904  -0.03677265  -0.02727977  1
  O  O361  1  0.12197803  -0.00063967  0.52365203  1
  O  O362  1  0.11892172  0.51304580  0.00973415  1
  O  O363  1  0.09778114  0.49785940  0.49526559  1
  O  O364  1  0.64072549  -0.00304013  0.01780140  1
  O  O365  1  0.61823514  0.00536567  0.50304294  1
  O  O366  1  0.61539428  0.51673383  -0.02182991  1
  O  O367  1  0.62975624  0.47278739  0.51645178  1
  O  O368  1  0.34872955  0.37360956  0.15803290  1
  O  O369  1  0.44065918  0.36693514  0.61880914  1
  O  O370  1  0.27904725  0.91236888  0.20417448  1
  O  O371  1  0.39159017  0.85552903  0.60582329  1
  O  O372  1  0.84440522  0.35771956  0.16408730  1
  O  O373  1  0.85778207  0.37379732  0.61747587  1
  O  O374  1  0.87310565  0.87982746  0.12509930  1
  O  O375  1  0.84251254  0.86456489  0.62854419  1
  O  O376  1  0.12576037  0.07550211  0.37375752  1
  O  O377  1  0.10744753  0.19921774  0.78175893  1
  O  O378  1  0.14960932  0.60324478  0.36556702  1
  O  O379  1  0.13328456  0.61139769  0.89046771  1
  O  O380  1  0.62375381  0.13553000  0.38538656  1
  O  O381  1  0.62419498  0.14160716  0.85977037  1
  O  O382  1  0.63238112  0.64427559  0.36156389  1
  O  O383  1  0.62947039  0.57462531  0.92264231  1
