# generated using pymatgen
data_VZnO4
_symmetry_space_group_name_H-M   'P 1'
_cell_length_a   17.02337249
_cell_length_b   17.06384323
_cell_length_c   16.99328456
_cell_angle_alpha   89.68042105
_cell_angle_beta   89.73323212
_cell_angle_gamma   89.97115754
_symmetry_Int_Tables_number   1
_chemical_formula_structural   VZnO4
_chemical_formula_sum   'V64 Zn64 O256'
_cell_volume   4936.14912700
_cell_formula_units_Z   64
loop_
 _symmetry_equiv_pos_site_id
 _symmetry_equiv_pos_as_xyz
  1  'x, y, z'
loop_
 _atom_site_type_symbol
 _atom_site_label
 _atom_site_symmetry_multiplicity
 _atom_site_fract_x
 _atom_site_fract_y
 _atom_site_fract_z
 _atom_site_occupancy
  V  V0  1  0.16769110  -0.04744354  0.07067304  1
  V  V1  1  0.30560355  0.45060422  0.23102061  1
  V  V2  1  0.49167431  0.14872868  0.10879849  1
  V  V3  1  -0.00660713  0.08724698  0.60545512  1
  V  V4  1  0.37999896  0.62760580  0.25458206  1
  V  V5  1  0.50727572  0.75997715  0.25806767  1
  V  V6  1  0.00047399  0.24751805  0.26670723  1
  V  V7  1  0.75557290  0.76294275  0.50267556  1
  V  V8  1  0.38439079  0.52679356  0.88100042  1
  V  V9  1  0.37857448  0.88039323  0.48793192  1
  V  V10  1  0.87596363  0.39473578  0.49994662  1
  V  V11  1  0.12514408  0.38978096  0.23506652  1
  V  V12  1  0.00990493  0.37772075  0.86015559  1
  V  V13  1  0.02267514  0.50833751  0.00552200  1
  V  V14  1  0.87088067  0.74438564  0.64402029  1
  V  V15  1  0.28406944  0.14542738  0.85783683  1
  V  V16  1  0.22833022  0.25217225  0.50343334  1
  V  V17  1  0.86949585  0.71885518  0.11947258  1
  V  V18  1  0.15285902  0.14139005  0.01498342  1
  V  V19  1  0.75043329  0.25998813  -0.03703040  1
  V  V20  1  0.25754701  0.64176748  0.38583623  1
  V  V21  1  0.36406853  -0.01349652  0.83991401  1
  V  V22  1  0.87431826  0.13029059  0.75013690  1
  V  V23  1  0.36658475  0.76098954  0.12050516  1
  V  V24  1  0.89275211  0.87574427  0.01946009  1
  V  V25  1  0.14862857  -0.03470945  0.64963904  1
  V  V26  1  0.00962545  0.75617901  0.75740540  1
  V  V27  1  0.69690320  0.48892768  0.22560079  1
  V  V28  1  0.02954713  0.62194140  0.62859846  1
  V  V29  1  0.65867515  0.10872298  -0.01197046  1
  V  V30  1  0.24428802  0.38209646  0.64507987  1
  V  V31  1  0.76179559  -0.02398651  0.74696819  1
  V  V32  1  0.50976107  0.49850611  0.00726847  1
  V  V33  1  0.85302988  0.26057405  0.14187302  1
  V  V34  1  0.87888808  0.52762181  0.35578073  1
  V  V35  1  0.89697019  0.26196870  0.62526083  1
  V  V36  1  0.35346675  0.12280536  0.26181527  1
  V  V37  1  0.51483021  0.62875288  0.12184659  1
  V  V38  1  0.13413243  0.89120174  0.25243125  1
  V  V39  1  0.49366215  0.62338734  0.62934991  1
  V  V40  1  0.63220124  0.75448511  0.37203458  1
  V  V41  1  0.65171756  0.00475958  0.60707732  1
  V  V42  1  0.50348675  0.87665831  0.87134168  1
  V  V43  1  0.76355729  0.60011439  0.87729457  1
  V  V44  1  0.49607110  0.35199910  0.84276947  1
  V  V45  1  0.37735422  0.49638556  0.39144028  1
  V  V46  1  0.10507404  0.74447111  0.37142782  1
  V  V47  1  0.74805854  0.37735513  0.64090183  1
  V  V48  1  0.11859738  0.75790674  0.89622938  1
  V  V49  1  0.37144315  0.75697969  0.61882444  1
  V  V50  1  0.01008529  0.39539162  0.37391607  1
  V  V51  1  0.70895709  0.72523508  -0.00770859  1
  V  V52  1  0.54999302  0.45295755  0.45366050  1
  V  V53  1  0.46238468  -0.01853046  0.01169622  1
  V  V54  1  0.75590370  0.24484509  0.48660115  1
  V  V55  1  0.51162566  0.75594698  0.75052002  1
  V  V56  1  -0.00977398  0.13436196  0.11446358  1
  V  V57  1  0.24193979  0.63778704  0.90517515  1
  V  V58  1  0.62475395  0.49656352  0.64600080  1
  V  V59  1  0.25050247  0.53386150  0.75071798  1
  V  V60  1  0.87222342  0.38573349  -0.00788724  1
  V  V61  1  0.37734954  0.37051627  0.51226385  1
  V  V62  1  0.63508253  0.62318933  0.50122901  1
  V  V63  1  -0.01700299  0.88484738  0.36751142  1
  Zn  Zn64  1  0.16469912  0.17883497  0.20945106  1
  Zn  Zn65  1  0.20420889  0.20614024  0.68858214  1
  Zn  Zn66  1  0.20217485  0.70284011  0.20982559  1
  Zn  Zn67  1  0.19462649  0.72520665  0.68980249  1
  Zn  Zn68  1  0.65444714  0.18893749  0.17395898  1
  Zn  Zn69  1  0.70361478  0.17826086  0.66192130  1
  Zn  Zn70  1  0.70728849  0.68637657  0.19534375  1
  Zn  Zn71  1  0.68248702  0.69308902  0.68372957  1
  Zn  Zn72  1  0.32573230  0.30820680  0.31515516  1
  Zn  Zn73  1  0.31004430  0.34617973  0.84903829  1
  Zn  Zn74  1  0.32106247  0.82417431  0.31379150  1
  Zn  Zn75  1  0.30741849  0.80639118  0.80229510  1
  Zn  Zn76  1  0.81705538  0.33096595  0.31434035  1
  Zn  Zn77  1  0.83770122  0.32210067  0.80504924  1
  Zn  Zn78  1  0.84201205  0.73182587  0.32977039  1
  Zn  Zn79  1  0.81962376  0.80305022  0.83121253  1
  Zn  Zn80  1  0.20415553  0.43511398  0.42946724  1
  Zn  Zn81  1  0.17271989  0.45539074  0.91414633  1
  Zn  Zn82  1  0.16650909  0.87330523  0.48283407  1
  Zn  Zn83  1  0.15448283  0.96298536  0.87093071  1
  Zn  Zn84  1  0.72031570  0.42811639  0.40181235  1
  Zn  Zn85  1  0.67636103  0.43382754  0.92791190  1
  Zn  Zn86  1  0.57690375  0.93954261  0.44263205  1
  Zn  Zn87  1  0.76609927  0.94765238  0.94700553  1
  Zn  Zn88  1  0.31128161  0.07006577  0.08896651  1
  Zn  Zn89  1  0.27544498  0.03873414  0.52549335  1
  Zn  Zn90  1  0.32497501  0.56792242  0.06845165  1
  Zn  Zn91  1  0.20518037  0.56593593  0.56847875  1
  Zn  Zn92  1  0.85009684  0.08618897  0.03577685  1
  Zn  Zn93  1  0.82594181  0.06286428  0.56500219  1
  Zn  Zn94  1  0.78444674  0.55123277  0.06488121  1
  Zn  Zn95  1  0.81661289  0.56674063  0.58917507  1
  Zn  Zn96  1  0.48619846  0.44292222  0.20603896  1
  Zn  Zn97  1  0.42779838  0.44840289  0.69493476  1
  Zn  Zn98  1  0.43781081  0.93955551  0.19623829  1
  Zn  Zn99  1  0.44193830  0.92772494  0.67773837  1
  Zn  Zn100  1  0.93347963  0.44011839  0.18069288  1
  Zn  Zn101  1  0.92593754  0.47191618  0.70017689  1
  Zn  Zn102  1  0.92289546  0.84133077  0.21133323  1
  Zn  Zn103  1  0.92028036  0.92951003  0.68458082  1
  Zn  Zn104  1  0.01376817  0.02358762  0.26423184  1
  Zn  Zn105  1  0.07610896  0.10302137  0.78504970  1
  Zn  Zn106  1  0.07541474  0.56891742  0.43393605  1
  Zn  Zn107  1  0.06026993  0.56663625  0.81920663  1
  Zn  Zn108  1  0.40394049  -0.00019955  0.37470848  1
  Zn  Zn109  1  0.62675193  0.01466132  0.83924134  1
  Zn  Zn110  1  0.56935732  0.57533232  0.31051761  1
  Zn  Zn111  1  0.56545925  0.57138068  0.81107610  1
  Zn  Zn112  1  0.35775680  0.18389024  0.44128242  1
  Zn  Zn113  1  0.48463804  0.14027260  0.90126020  1
  Zn  Zn114  1  0.44544299  0.68284975  0.44428228  1
  Zn  Zn115  1  0.44125378  0.69726890  0.94123886  1
  Zn  Zn116  1  1.01172951  0.25184575  0.48506931  1
  Zn  Zn117  1  0.94133780  0.20214863  0.93390531  1
  Zn  Zn118  1  0.93963031  0.67891858  0.46299457  1
  Zn  Zn119  1  0.93578878  0.67902216  0.94129708  1
  Zn  Zn120  1  0.05139770  0.31366191  0.06301488  1
  Zn  Zn121  1  0.06473512  0.43676480  0.56573116  1
  Zn  Zn122  1  0.05027612  0.80094219  0.08551962  1
  Zn  Zn123  1  0.01578326  0.82821298  0.56814018  1
  Zn  Zn124  1  0.54448949  0.29586542  -0.01116050  1
  Zn  Zn125  1  0.58091677  0.31245515  0.55358700  1
  Zn  Zn126  1  0.55056807  0.81080160  0.05709936  1
  Zn  Zn127  1  0.55149636  0.80522666  0.55289370  1
  O  O128  1  0.09473451  0.14246383  0.12878690  1
  O  O129  1  0.09000312  0.04470225  0.60930432  1
  O  O130  1  0.11727736  0.62795213  0.14051158  1
  O  O131  1  0.13221559  0.63613253  0.62947381  1
  O  O132  1  0.61676130  0.12986397  0.08029953  1
  O  O133  1  0.63460946  0.10358028  0.61493026  1
  O  O134  1  0.61177099  0.63261404  0.13150012  1
  O  O135  1  0.62435651  0.61005966  0.62422164  1
  O  O136  1  0.38315185  0.38861440  0.38971347  1
  O  O137  1  0.40859372  0.40314758  0.87313725  1
  O  O138  1  0.39040163  0.88394734  0.37865726  1
  O  O139  1  0.37443514  0.88234324  0.85649414  1
  O  O140  1  0.88668961  0.40060210  0.38750765  1
  O  O141  1  0.87903531  0.38378756  0.88902664  1
  O  O142  1  0.89559542  0.83636696  0.32700689  1
  O  O143  1  0.85086065  0.86792671  0.92006765  1
  O  O144  1  0.13182614  0.04118760  0.42434469  1
  O  O145  1  0.26468239  -0.00129360  0.84972624  1
  O  O146  1  0.27446070  0.49786190  0.35758329  1
  O  O147  1  0.26179390  0.52752740  0.87253460  1
  O  O148  1  0.74934926  -0.08170019  0.30283820  1
  O  O149  1  0.74660614  -0.00014143  0.84797902  1
  O  O150  1  0.78564230  0.51974138  0.39208081  1
  O  O151  1  0.75135523  0.50170109  0.87418996  1
  O  O152  1  0.27971146  0.49561069  0.14701943  1
  O  O153  1  0.25908290  0.49827366  0.64665434  1
  O  O154  1  0.24231549  0.98836112  0.12573313  1
  O  O155  1  0.24160106  0.99439954  0.62637866  1
  O  O156  1  0.72152917  0.48115934  0.12861891  1
  O  O157  1  0.73249964  0.48826052  0.62330312  1
  O  O158  1  0.79462812  1.01044167  0.16889887  1
  O  O159  1  0.75814555  0.99364856  0.62721436  1
  O  O160  1  0.00771752  0.38308939  0.26119229  1
  O  O161  1  -0.02331437  0.39836360  0.76487989  1
  O  O162  1  0.01569924  0.88999442  0.25169456  1
  O  O163  1  -0.01094434  0.85445416  0.74830118  1
  O  O164  1  0.52083525  0.33413738  0.24459552  1
  O  O165  1  0.48872758  0.36154817  0.74315919  1
  O  O166  1  0.50818492  0.85747277  0.25157749  1
  O  O167  1  0.49730057  0.86500147  0.75883306  1
  O  O168  1  0.53828876  0.15464093  0.19676675  1
  O  O169  1  0.48777995  0.14359119  0.75392855  1
  O  O170  1  0.49677370  0.63367015  0.24229098  1
  O  O171  1  0.50578129  0.64191660  0.74079876  1
  O  O172  1  0.99761637  0.15007979  0.27671443  1
  O  O173  1  0.98354108  0.10399010  0.71325616  1
  O  O174  1  1.05397159  0.61436847  0.17333462  1
  O  O175  1  1.00829747  0.63120333  0.73719822  1
  O  O176  1  0.24089940  0.33055227  0.01289183  1
  O  O177  1  0.39468862  0.27190628  0.50315667  1
  O  O178  1  0.38540547  0.75522876  0.02214552  1
  O  O179  1  0.39890856  0.76025533  0.51075401  1
  O  O180  1  0.85713954  0.26360165  0.00485864  1
  O  O181  1  0.87536608  0.27435122  0.51523000  1
  O  O182  1  0.88595407  0.75322743  0.01549138  1
  O  O183  1  0.85503201  0.74856721  0.48734820  1
  O  O184  1  0.13083610  0.25696710  0.49903935  1
  O  O185  1  0.10245502  0.22844827  1.00256100  1
  O  O186  1  0.13015360  0.76472034  0.46816122  1
  O  O187  1  0.10393687  0.75249775  0.99500352  1
  O  O188  1  0.65396061  0.25500924  0.49421014  1
  O  O189  1  0.64914493  0.24830395  0.98391060  1
  O  O190  1  0.63527610  0.73827824  0.49985983  1
  O  O191  1  0.60991405  0.73281523  0.99182325  1
  O  O192  1  0.48798492  0.24077835  0.07273344  1
  O  O193  1  0.54218551  0.24589328  0.64703453  1
  O  O194  1  0.49982639  0.74470008  0.14012929  1
  O  O195  1  0.50294443  0.74159222  0.63495835  1
  O  O196  1  0.98625893  0.24580499  0.14579612  1
  O  O197  1  0.99186539  0.27829170  0.61946020  1
  O  O198  1  0.96846884  0.74486939  0.14990289  1
  O  O199  1  1.00652190  0.73835391  0.64297156  1
  O  O200  1  -0.01009728  0.28121544  0.37007264  1
  O  O201  1  -0.00866726  0.27735293  0.87078075  1
  O  O202  1  0.00806587  0.72752808  0.37399379  1
  O  O203  1  0.00787091  0.73571145  0.86622458  1
  O  O204  1  0.52091617  0.15385630  0.36457064  1
  O  O205  1  0.49079222  0.25640743  0.88680006  1
  O  O206  1  0.51654992  0.73623683  0.36467668  1
  O  O207  1  0.49460129  0.76239489  0.86210543  1
  O  O208  1  0.26324756  0.15415993  0.52094522  1
  O  O209  1  0.23789471  0.15704411  1.06523403  1
  O  O210  1  0.26033565  0.61706731  0.48228041  1
  O  O211  1  0.24909700  0.62598729  1.00308999  1
  O  O212  1  0.77308669  0.14779342  0.50793487  1
  O  O213  1  0.75992450  0.14481306  0.98688518  1
  O  O214  1  0.73551434  0.62336632  0.51770555  1
  O  O215  1  0.73349291  0.61625903  0.98231923  1
  O  O216  1  0.26330730  0.38934452  -0.04893611  1
  O  O217  1  0.26498155  0.37129347  0.50927437  1
  O  O218  1  0.20310310  0.91277853  -0.01064417  1
  O  O219  1  0.27985846  0.86257382  0.48764019  1
  O  O220  1  0.75392058  0.36585437  -0.01531549  1
  O  O221  1  0.76952270  0.37590909  0.49574910  1
  O  O222  1  0.70564896  0.85070028  0.01056861  1
  O  O223  1  0.74410874  0.85662162  0.50819432  1
  O  O224  1  0.13062289  0.48522754  0.23926870  1
  O  O225  1  0.15422427  0.51086219  0.76948324  1
  O  O226  1  0.12708822  0.99145611  0.25921732  1
  O  O227  1  0.12739570  0.97216071  0.74652536  1
  O  O228  1  0.59237327  0.48499967  0.24358667  1
  O  O229  1  0.62307971  0.49623630  0.74399487  1
  O  O230  1  0.63765042  1.02423521  0.23026778  1
  O  O231  1  0.65743143  0.99518401  0.72977632  1
  O  O232  1  0.39674275  0.02181325  0.25719167  1
  O  O233  1  0.38829143  0.00103767  0.74364908  1
  O  O234  1  0.39334226  0.51406797  0.26695613  1
  O  O235  1  0.36463383  0.50937268  0.77152293  1
  O  O236  1  0.80462767  0.04739721  0.22981586  1
  O  O237  1  0.86545685  0.01349911  0.74029777  1
  O  O238  1  0.87912823  0.50579486  0.25815628  1
  O  O239  1  0.84177552  0.54210188  0.69966492  1
  O  O240  1  0.11143625  0.39074979  0.37180625  1
  O  O241  1  0.11110767  0.37688660  0.86015373  1
  O  O242  1  0.09899204  0.86556800  0.36339377  1
  O  O243  1  0.12147546  0.85357388  0.87559349  1
  O  O244  1  0.61094253  0.39724987  0.39960466  1
  O  O245  1  0.58539594  0.38732822  0.87432340  1
  O  O246  1  0.62397149  0.85136728  0.38206981  1
  O  O247  1  0.59915645  0.90119943  0.86917382  1
  O  O248  1  0.39394376  0.12415593  0.14487300  1
  O  O249  1  0.46270520  0.11346956  0.59050316  1
  O  O250  1  0.38576778  0.63895800  0.14075761  1
  O  O251  1  0.39659255  0.63449627  0.61903866  1
  O  O252  1  0.87444672  0.15695945  0.12580975  1
  O  O253  1  0.88530939  0.15192626  0.62392857  1
  O  O254  1  0.86655044  0.62074834  0.10744027  1
  O  O255  1  0.89855912  0.65112431  0.60526808  1
  O  O256  1  0.28914649  0.32543488  0.06748718  1
  O  O257  1  0.25196847  0.27483007  0.61538189  1
  O  O258  1  0.26773389  0.74338810  0.13010081  1
  O  O259  1  0.27545976  0.73575569  0.60895165  1
  O  O260  1  0.75292151  0.24866889  0.14814810  1
  O  O261  1  0.75266133  0.27174235  0.61476297  1
  O  O262  1  0.74784536  0.72670874  0.08995164  1
  O  O263  1  0.76546790  0.74130599  0.62039963  1
  O  O264  1  0.26442844  0.25983093  0.40524994  1
  O  O265  1  0.30883656  0.23873209  0.87892701  1
  O  O266  1  0.26786319  0.73968735  0.37853124  1
  O  O267  1  0.23815837  0.74214016  0.88284563  1
  O  O268  1  0.77358008  0.25661190  0.38793373  1
  O  O269  1  0.75950165  0.25752452  0.86534520  1
  O  O270  1  0.73725576  0.74169760  0.38853785  1
  O  O271  1  0.75000699  0.74259601  0.89941931  1
  O  O272  1  -0.03137189  0.12322104  0.01331200  1
  O  O273  1  0.00449490  0.14512141  0.52427026  1
  O  O274  1  0.00291359  0.60669720  -0.00333587  1
  O  O275  1  0.02199819  0.62880877  0.51853348  1
  O  O276  1  0.48687988  0.08880352  0.01011983  1
  O  O277  1  0.48146158  0.12328048  0.52092512  1
  O  O278  1  0.49485018  0.62695890  0.01938935  1
  O  O279  1  0.52015991  0.63399963  0.52186619  1
  O  O280  1  0.49636782  0.38636418  0.51447812  1
  O  O281  1  0.50051052  0.39973610  1.01590839  1
  O  O282  1  0.49469181  0.88009352  0.49299893  1
  O  O283  1  0.49097861  0.87502389  0.98287690  1
  O  O284  1  0.99480135  0.37824544  0.48945072  1
  O  O285  1  0.98670299  0.38256632  0.99216188  1
  O  O286  1  0.98222836  0.86120767  0.46555319  1
  O  O287  1  0.99110943  0.88135025  1.02157592  1
  O  O288  1  0.49422819  0.51046118  0.38714633  1
  O  O289  1  0.49073519  0.53409402  0.88841227  1
  O  O290  1  0.52514540  1.01812325  0.37570683  1
  O  O291  1  0.47243059  0.98437500  0.88969241  1
  O  O292  1  0.99272300  0.50196397  0.38080095  1
  O  O293  1  1.00803685  0.49133090  0.89218593  1
  O  O294  1  0.97084300  0.98454646  0.36471297  1
  O  O295  1  1.07998938  1.04754983  0.87787723  1
  O  O296  1  -0.02642841  0.04606501  0.15903191  1
  O  O297  1  -0.06720756  0.00634590  0.58556921  1
  O  O298  1  -0.00388633  0.48955169  0.10359004  1
  O  O299  1  0.01340040  0.51735758  0.63230705  1
  O  O300  1  0.50122853  -0.03018033  0.10470365  1
  O  O301  1  0.54535699  -0.03964181  0.62496458  1
  O  O302  1  0.49445796  0.51792259  0.11648721  1
  O  O303  1  0.50885606  0.51454368  0.63885737  1
  O  O304  1  0.23554324  0.37278877  0.26257795  1
  O  O305  1  0.26339477  0.37231404  0.74469046  1
  O  O306  1  0.23317802  0.87673651  0.26733320  1
  O  O307  1  0.22844412  0.83101899  0.72511821  1
  O  O308  1  0.73862094  0.41006584  0.28329072  1
  O  O309  1  0.75504424  0.37330704  0.73821910  1
  O  O310  1  0.71254037  0.90336281  0.24298363  1
  O  O311  1  0.78001952  0.87782718  0.74962958  1
  O  O312  1  0.25672864  0.12618175  0.23558490  1
  O  O313  1  0.26587953  0.14355238  0.75968959  1
  O  O314  1  0.27302376  0.62928475  0.26595241  1
  O  O315  1  0.25261458  0.63201051  0.74690732  1
  O  O316  1  0.67478307  0.08052802  0.25778920  1
  O  O317  1  0.77177421  0.13043529  0.73890704  1
  O  O318  1  0.71777559  0.58319084  0.25277650  1
  O  O319  1  0.71796064  0.62934184  0.77768005  1
  O  O320  1  0.34888277  0.10208075  0.37013014  1
  O  O321  1  0.37732087  0.09651643  0.87896743  1
  O  O322  1  0.37639513  0.61713637  0.37612014  1
  O  O323  1  0.36215732  0.63147162  0.88336721  1
  O  O324  1  0.80655353  0.03969289  0.38434533  1
  O  O325  1  0.89395346  0.13794234  0.84717113  1
  O  O326  1  0.89027663  0.63019828  0.36757098  1
  O  O327  1  0.86093959  0.62252810  0.87488847  1
  O  O328  1  0.11992451  0.36660637  0.13756825  1
  O  O329  1  0.14650450  0.38935727  0.63252627  1
  O  O330  1  0.12242688  0.87625314  0.13835301  1
  O  O331  1  0.11402530  0.88424005  0.59112183  1
  O  O332  1  0.59697285  0.32311664  0.22787657  1
  O  O333  1  0.63481832  0.38791010  0.62372170  1
  O  O334  1  0.65586804  0.87006719  0.06767199  1
  O  O335  1  0.59917788  0.89696599  0.62361031  1
  O  O336  1  0.10481939  0.26284102  0.25733881  1
  O  O337  1  0.10752239  0.19292463  0.73248791  1
  O  O338  1  0.12839959  0.76247320  0.26557737  1
  O  O339  1  0.11140981  0.74781011  0.76531471  1
  O  O340  1  0.63047360  0.26318326  0.26688944  1
  O  O341  1  0.59214895  0.23547560  0.70174860  1
  O  O342  1  0.62377413  0.74011971  0.26462074  1
  O  O343  1  0.61112246  0.76017760  0.74152288  1
  O  O344  1  0.38290059  0.21876269  0.27542684  1
  O  O345  1  0.43014188  0.17592217  0.72454505  1
  O  O346  1  0.39504990  0.74396237  0.25709022  1
  O  O347  1  0.38952056  0.75663015  0.72639327  1
  O  O348  1  0.88327612  0.27151963  0.24497160  1
  O  O349  1  0.87999974  0.24579481  0.73270587  1
  O  O350  1  0.81893253  0.72751127  0.21762044  1
  O  O351  1  0.87954866  0.74092367  0.74653809  1
  O  O352  1  0.37438127  0.49350597  0.49115247  1
  O  O353  1  0.38373568  0.51025744  0.98599332  1
  O  O354  1  0.37426706  0.98721595  0.49636015  1
  O  O355  1  0.36466304  0.98751083  1.01978212  1
  O  O356  1  0.88024333  0.49218510  0.51880690  1
  O  O357  1  0.85969345  0.48212474  1.01041975  1
  O  O358  1  0.82216670  0.99537852  0.43932876  1
  O  O359  1  0.85339667  0.97720455  1.02076295  1
  O  O360  1  0.11871691  0.03774808  0.03021722  1
  O  O361  1  0.19486996  -0.01208482  0.45068291  1
  O  O362  1  0.12314342  0.49688129  0.00686872  1
  O  O363  1  0.13928212  0.49868884  0.49922523  1
  O  O364  1  0.67847948  0.01236203  -0.00400528  1
  O  O365  1  0.65134316  -0.00671381  0.50673546  1
  O  O366  1  0.60735796  0.50674711  -0.00985941  1
  O  O367  1  0.61498510  0.51031441  0.51074989  1
  O  O368  1  0.37704996  0.38385814  0.20835833  1
  O  O369  1  0.36822725  0.38943824  0.61429915  1
  O  O370  1  0.37616559  0.85679089  0.14804768  1
  O  O371  1  0.38117883  0.86456123  0.60855187  1
  O  O372  1  0.87418542  0.36212155  0.11295416  1
  O  O373  1  0.86327142  0.37731622  0.62125962  1
  O  O374  1  0.85866199  0.85439446  0.11804947  1
  O  O375  1  0.89953989  0.83938851  0.61363653  1
  O  O376  1  0.15626060  0.10139239  0.38930164  1
  O  O377  1  0.19818717  0.12775884  0.91804396  1
  O  O378  1  0.14730413  0.63790741  0.37036563  1
  O  O379  1  0.13971016  0.63373472  0.88329972  1
  O  O380  1  0.56230825  0.09789743  0.38679900  1
  O  O381  1  0.60136092  0.11020566  0.89682457  1
  O  O382  1  0.62357750  0.62658801  0.39730965  1
  O  O383  1  0.65796126  0.63612660  0.83897807  1
