# generated using pymatgen
data_VZnO4
_symmetry_space_group_name_H-M   'P 1'
_cell_length_a   16.89099822
_cell_length_b   16.94484261
_cell_length_c   16.96926047
_cell_angle_alpha   90.11409939
_cell_angle_beta   89.72824138
_cell_angle_gamma   89.94512088
_symmetry_Int_Tables_number   1
_chemical_formula_structural   VZnO4
_chemical_formula_sum   'V64 Zn64 O256'
_cell_volume   4856.79554862
_cell_formula_units_Z   64
loop_
 _symmetry_equiv_pos_site_id
 _symmetry_equiv_pos_as_xyz
  1  'x, y, z'
loop_
 _atom_site_type_symbol
 _atom_site_label
 _atom_site_symmetry_multiplicity
 _atom_site_fract_x
 _atom_site_fract_y
 _atom_site_fract_z
 _atom_site_occupancy
  V  V0  1  0.74020617  0.35570027  0.11348066  1
  V  V1  1  -0.00560550  0.25593142  0.24344131  1
  V  V2  1  0.73984659  0.74768126  0.00565213  1
  V  V3  1  0.49466009  0.61955844  0.12154923  1
  V  V4  1  0.86642484  0.62127701  0.75690544  1
  V  V5  1  0.62119626  0.89154836  0.25431910  1
  V  V6  1  0.12393257  0.47816660  0.61906055  1
  V  V7  1  0.48596412  0.11735426  0.11536433  1
  V  V8  1  0.88049336  0.88886145  0.00276441  1
  V  V9  1  0.26239957  0.24479331  0.01543485  1
  V  V10  1  0.33984437  0.69974668  0.06315680  1
  V  V11  1  0.23784544  0.26342767  0.49333798  1
  V  V12  1  0.89226346  0.36164673  0.52126051  1
  V  V13  1  0.12701585  0.10922158  0.00673060  1
  V  V14  1  0.50916540  0.87721561  0.86947661  1
  V  V15  1  0.35749143  0.75192513  0.63266195  1
  V  V16  1  0.74719007  0.49012365  0.73909154  1
  V  V17  1  0.74351856  0.89938283  0.12833160  1
  V  V18  1  0.11180168  0.48590540  0.11972159  1
  V  V19  1  0.49758693  0.38065293  0.87907379  1
  V  V20  1  0.87427534  0.01698314  0.37889685  1
  V  V21  1  0.67485851  0.26676764  0.37191156  1
  V  V22  1  0.02091616  0.01163771  0.50815123  1
  V  V23  1  0.48821219  0.76486905  0.22914706  1
  V  V24  1  -0.00006399  0.50392193  0.48812557  1
  V  V25  1  0.85989620  0.75871317  0.63035758  1
  V  V26  1  0.23573638  0.63909784  0.39873329  1
  V  V27  1  0.27327885  0.38381653  0.61884188  1
  V  V28  1  0.64530022  0.88377670  0.74481015  1
  V  V29  1  0.25023404  0.50239799  0.76540200  1
  V  V30  1  0.62970620  0.39040043  0.25222435  1
  V  V31  1  0.23376502  0.12626461  0.38444029  1
  V  V32  1  0.37637460  0.37685418  0.02348441  1
  V  V33  1  0.39264261  0.62228743  0.76046669  1
  V  V34  1  0.39021747  0.88656196  0.01054367  1
  V  V35  1  0.59655731  0.75015001  0.38083389  1
  V  V36  1  0.14942439  0.37448868  0.25627643  1
  V  V37  1  0.38399707  0.00531584  0.86951276  1
  V  V38  1  0.37042744  0.62348764  0.25971101  1
  V  V39  1  0.62874453  0.11174381  0.00624263  1
  V  V40  1  0.75324369  0.73639027  0.48056706  1
  V  V41  1  0.62327001  0.36668056  0.72523161  1
  V  V42  1  -0.00513150  0.38613743  0.84677651  1
  V  V43  1  0.10976787  0.87051913  0.26613015  1
  V  V44  1  -0.00873075  0.11559631  0.12630552  1
  V  V45  1  0.23732423  -0.00381516  0.24461986  1
  V  V46  1  0.88156616  0.86946355  0.47479983  1
  V  V47  1  0.62465090  0.25312483  0.88471305  1
  V  V48  1  0.37902239  0.51764034  0.40180838  1
  V  V49  1  0.23952133  -0.01433149  0.74710138  1
  V  V50  1  0.87128823  0.73866279  0.12682766  1
  V  V51  1  0.75023274  0.12132384  0.86841304  1
  V  V52  1  0.88361623  0.12800850  0.73516660  1
  V  V53  1  0.62933313  0.73862229  0.87576063  1
  V  V54  1  0.38413888  0.22293963  0.61628070  1
  V  V55  1  0.00562339  0.64096689  0.62638933  1
  V  V56  1  -0.00308244  0.73380996  0.25110667  1
  V  V57  1  0.36627370  -0.02051741  0.38749732  1
  V  V58  1  0.23838641  0.87299749  0.11020952  1
  V  V59  1  0.25887924  0.12841936  0.86891855  1
  V  V60  1  0.37032232  0.12867748  0.24946956  1
  V  V61  1  0.46778327  0.37251813  0.37287983  1
  V  V62  1  0.88260694  -0.00498796  0.86535266  1
  V  V63  1  0.11438339  0.24595012  0.86953176  1
  Zn  Zn64  1  0.17658147  0.18417889  0.19548737  1
  Zn  Zn65  1  0.23075390  0.21135438  0.70514928  1
  Zn  Zn66  1  0.19204117  0.69516694  0.19327147  1
  Zn  Zn67  1  0.19556693  0.67938400  0.69511624  1
  Zn  Zn68  1  0.63553640  0.20270360  0.18189395  1
  Zn  Zn69  1  0.68683011  0.18616042  0.70030372  1
  Zn  Zn70  1  0.66940458  0.68912484  0.18903026  1
  Zn  Zn71  1  0.69509623  0.69853852  0.69459049  1
  Zn  Zn72  1  0.31933984  0.30915861  0.31592281  1
  Zn  Zn73  1  0.32159791  0.31421265  0.80393105  1
  Zn  Zn74  1  0.29111502  0.80932927  0.30267081  1
  Zn  Zn75  1  0.32673127  0.81291680  0.80853282  1
  Zn  Zn76  1  0.79171126  0.27213674  0.23847961  1
  Zn  Zn77  1  0.81347287  0.30558205  0.80327685  1
  Zn  Zn78  1  0.80871245  0.81571278  0.30383114  1
  Zn  Zn79  1  0.81429600  0.81183047  0.81780960  1
  Zn  Zn80  1  0.19482125  0.45190542  0.43373543  1
  Zn  Zn81  1  0.17840587  0.41506020  0.93954977  1
  Zn  Zn82  1  0.17592959  0.93904639  0.42788582  1
  Zn  Zn83  1  0.19699927  0.93658530  0.93068434  1
  Zn  Zn84  1  0.72156132  0.43909673  0.44476234  1
  Zn  Zn85  1  0.71073835  0.43074200  0.92230375  1
  Zn  Zn86  1  0.70149234  0.93173961  0.42500590  1
  Zn  Zn87  1  0.69478501  0.93930307  0.93750600  1
  Zn  Zn88  1  0.30749860  0.05385664  0.06075562  1
  Zn  Zn89  1  0.29442472  0.05676621  0.56286649  1
  Zn  Zn90  1  0.26137866  0.53467291  0.02805101  1
  Zn  Zn91  1  0.31058827  0.58405223  0.56922940  1
  Zn  Zn92  1  0.80998206  0.07407169  0.05803058  1
  Zn  Zn93  1  0.89746213  0.15113935  0.53502635  1
  Zn  Zn94  1  0.80671436  0.62941921  0.31454256  1
  Zn  Zn95  1  0.81747170  0.56351405  0.56419021  1
  Zn  Zn96  1  0.44709529  0.44303345  0.19763468  1
  Zn  Zn97  1  0.43632286  0.43440730  0.70255567  1
  Zn  Zn98  1  0.43871493  0.95278273  0.19612591  1
  Zn  Zn99  1  0.43313687  0.93158997  0.69315121  1
  Zn  Zn100  1  0.92880167  0.43351856  0.16914073  1
  Zn  Zn101  1  0.93694586  0.44368163  0.68181995  1
  Zn  Zn102  1  0.93247266  0.94498030  0.19290097  1
  Zn  Zn103  1  0.89699089  0.97660180  0.64583536  1
  Zn  Zn104  1  0.04712909  0.06179927  0.31463605  1
  Zn  Zn105  1  0.06213923  0.06296188  0.81114822  1
  Zn  Zn106  1  0.07163431  0.56160776  0.30379460  1
  Zn  Zn107  1  0.05482062  0.55045832  0.79158657  1
  Zn  Zn108  1  0.54573464  0.06175471  0.34936645  1
  Zn  Zn109  1  0.57367586  0.05482624  0.81335889  1
  Zn  Zn110  1  0.58930470  0.53884846  0.37292764  1
  Zn  Zn111  1  0.57619164  0.54997266  0.81461140  1
  Zn  Zn112  1  0.42328487  0.18382169  0.43245001  1
  Zn  Zn113  1  0.44436051  0.19266626  0.93729712  1
  Zn  Zn114  1  0.38347979  0.77280367  0.43312606  1
  Zn  Zn115  1  0.44308461  0.69373572  0.92591583  1
  Zn  Zn116  1  0.89090763  0.22316239  0.37902553  1
  Zn  Zn117  1  0.94495278  0.17080838  0.93502974  1
  Zn  Zn118  1  0.94836151  0.69044214  0.44308143  1
  Zn  Zn119  1  0.87779122  0.65149487  0.96924990  1
  Zn  Zn120  1  0.08525051  0.29377802  0.07298972  1
  Zn  Zn121  1  0.05988167  0.31297099  0.42381856  1
  Zn  Zn122  1  0.04800430  0.81219810  0.06392812  1
  Zn  Zn123  1  0.02824878  0.84881812  0.59316296  1
  Zn  Zn124  1  0.55229047  0.30534204  0.06860537  1
  Zn  Zn125  1  0.56268050  0.28669589  0.53840956  1
  Zn  Zn126  1  0.56618820  0.82587860  0.06310237  1
  Zn  Zn127  1  0.62093332  0.86295481  0.54311822  1
  O  O128  1  0.13331692  0.11865231  0.10810055  1
  O  O129  1  0.12499634  0.15218098  0.64174503  1
  O  O130  1  0.15299422  0.59717139  0.13692296  1
  O  O131  1  0.10715268  0.64145328  0.63538288  1
  O  O132  1  0.63464014  0.11348284  0.10608745  1
  O  O133  1  0.61990187  0.13537474  0.62112153  1
  O  O134  1  0.59152809  0.64702957  0.11508692  1
  O  O135  1  0.60969574  0.63516839  0.62646665  1
  O  O136  1  0.36373595  0.41033096  0.37509362  1
  O  O137  1  0.39549940  0.36931472  0.86827774  1
  O  O138  1  0.34609212  0.87634594  0.38429780  1
  O  O139  1  0.39143175  0.88422917  0.88188351  1
  O  O140  1  0.84542568  0.46172198  0.31193652  1
  O  O141  1  0.89665116  0.35791090  0.86162530  1
  O  O142  1  0.87711523  0.87975507  0.37263681  1
  O  O143  1  0.86780590  0.88704637  0.88790091  1
  O  O144  1  0.24549858  0.00729606  0.36685186  1
  O  O145  1  0.26480432  0.00945365  0.87243601  1
  O  O146  1  0.26580736  0.52897380  0.38533328  1
  O  O147  1  0.23656034  0.47917800  0.86088525  1
  O  O148  1  0.77404881  0.00086179  0.37822184  1
  O  O149  1  0.75864164  0.01505007  0.87681449  1
  O  O150  1  0.78958457  0.50004914  0.35238585  1
  O  O151  1  0.74270435  0.50200200  0.84794659  1
  O  O152  1  0.21890200  0.54228629  0.14281584  1
  O  O153  1  0.24176567  0.48979448  0.61060748  1
  O  O154  1  0.24877430  0.98230293  0.13265413  1
  O  O155  1  0.24593218  1.00294039  0.64825502  1
  O  O156  1  0.70354153  0.51061364  0.10799775  1
  O  O157  1  0.75249807  0.50215337  0.63715333  1
  O  O158  1  0.75218052  0.99760796  0.12570381  1
  O  O159  1  0.66530148  1.06982303  0.59531647  1
  O  O160  1  -0.01106302  0.35715040  0.23202669  1
  O  O161  1  0.00875331  0.38126062  0.74863662  1
  O  O162  1  0.00899017  0.87273662  0.24462116  1
  O  O163  1  0.04903606  0.84893400  0.77099777  1
  O  O164  1  0.51221935  0.38007491  0.27284186  1
  O  O165  1  0.51745019  0.37933565  0.76178329  1
  O  O166  1  0.50957227  0.87350013  0.24299632  1
  O  O167  1  0.50700582  0.87695529  0.76867205  1
  O  O168  1  0.47171654  0.11586894  0.25379549  1
  O  O169  1  0.50295421  0.08490495  0.71137388  1
  O  O170  1  0.48352858  0.64807362  0.23301821  1
  O  O171  1  0.49210237  0.60357532  0.75517093  1
  O  O172  1  1.02055458  0.13335426  0.23109826  1
  O  O173  1  0.98330383  0.11751683  0.74875376  1
  O  O174  1  1.00979317  0.63570185  0.23809902  1
  O  O175  1  0.98182499  0.61717816  0.73227879  1
  O  O176  1  0.36869161  0.24945534  0.00567023  1
  O  O177  1  0.35507639  0.23765730  0.51102198  1
  O  O178  1  0.37424481  0.77637130  -0.00530164  1
  O  O179  1  0.38292509  0.73003228  0.53502625  1
  O  O180  1  0.90879432  0.27274024  0.00239170  1
  O  O181  1  0.90984585  0.25999827  0.49352954  1
  O  O182  1  0.86089515  0.76952350  0.00916910  1
  O  O183  1  0.86533218  0.75174630  0.50681416  1
  O  O184  1  0.13820471  0.25919485  0.49188110  1
  O  O185  1  0.14435184  0.23884585  0.98762474  1
  O  O186  1  0.14680466  0.81019743  0.54084592  1
  O  O187  1  0.06692007  0.72033987  0.98111033  1
  O  O188  1  0.63853602  0.24295242  0.46284878  1
  O  O189  1  0.61862317  0.23425545  0.98765494  1
  O  O190  1  0.64112289  0.76329924  0.48201298  1
  O  O191  1  0.63319043  0.75902077  0.99560236  1
  O  O192  1  0.52407194  0.21545687  0.14000263  1
  O  O193  1  0.48333542  0.24259744  0.60733336  1
  O  O194  1  0.48719447  0.76613439  0.12882899  1
  O  O195  1  0.55262475  0.66893376  0.59473914  1
  O  O196  1  1.01173417  0.23432427  0.13348204  1
  O  O197  1  1.07417203  0.20399929  0.63333631  1
  O  O198  1  0.97754326  0.75882495  0.13207934  1
  O  O199  1  0.98482734  0.74451505  0.62333975  1
  O  O200  1  0.00510608  0.24593249  0.35145261  1
  O  O201  1  0.01522627  0.22906639  0.86309911  1
  O  O202  1  -0.00830863  0.74388050  0.35018425  1
  O  O203  1  0.02197214  0.66025079  0.98281359  1
  O  O204  1  0.42733671  0.27850172  0.36274396  1
  O  O205  1  0.51614185  0.25348994  0.87067586  1
  O  O206  1  0.49869533  0.76861237  0.39297171  1
  O  O207  1  0.51898595  0.76847088  0.88626096  1
  O  O208  1  0.23741576  0.12962147  0.48771286  1
  O  O209  1  0.24784829  0.12811736  0.99221168  1
  O  O210  1  0.23363513  0.63261909  0.49949583  1
  O  O211  1  0.27714772  0.64591955  1.00926254  1
  O  O212  1  0.76918624  0.19311467  0.55011633  1
  O  O213  1  0.73783286  0.12623545  0.98493115  1
  O  O214  1  0.75313495  0.63859079  0.50254173  1
  O  O215  1  0.75821705  0.65079599  0.99724212  1
  O  O216  1  0.26427081  0.35167838  -0.00465237  1
  O  O217  1  0.25211085  0.37001624  0.50121089  1
  O  O218  1  0.26548395  0.88299354  0.01035890  1
  O  O219  1  0.20451265  0.85053751  0.51650677  1
  O  O220  1  0.71873689  0.37518631  0.01648849  1
  O  O221  1  0.79850105  0.37152345  0.48324772  1
  O  O222  1  0.75047748  0.87641956  0.01627953  1
  O  O223  1  0.76797805  0.85609838  0.48933931  1
  O  O224  1  0.11330693  0.47768087  0.23699123  1
  O  O225  1  0.14279229  0.50587466  0.72810786  1
  O  O226  1  0.12730612  0.98141344  0.25776802  1
  O  O227  1  0.14047722  0.99405787  0.77252675  1
  O  O228  1  0.62286837  0.48830843  0.26817440  1
  O  O229  1  0.63332248  0.48140761  0.73959583  1
  O  O230  1  0.61029879  0.98694953  0.27778028  1
  O  O231  1  0.63190617  0.98424546  0.74806469  1
  O  O232  1  0.35043154  -0.00506029  0.25872179  1
  O  O233  1  0.36777819  -0.00372056  0.76684969  1
  O  O234  1  0.37641216  0.52358413  0.25006102  1
  O  O235  1  0.36245058  0.50891941  0.74861417  1
  O  O236  1  0.89864868  0.01389355  0.27974004  1
  O  O237  1  0.87341228  0.00011382  0.76266531  1
  O  O238  1  0.87726931  0.50582759  0.25351802  1
  O  O239  1  0.86455795  0.51161675  0.74410358  1
  O  O240  1  0.13318390  0.38379029  0.36148144  1
  O  O241  1  0.09522124  0.35277169  0.89415056  1
  O  O242  1  0.12267971  0.86040595  0.36371743  1
  O  O243  1  0.16949817  0.82617286  0.89064237  1
  O  O244  1  0.66051989  0.37150080  0.36506454  1
  O  O245  1  0.62036470  0.36003211  0.88237866  1
  O  O246  1  0.64210880  0.85440746  0.35260838  1
  O  O247  1  0.61870724  0.88059111  0.87008855  1
  O  O248  1  0.37890045  0.11251033  0.13094673  1
  O  O249  1  0.37012017  0.12399941  0.61856363  1
  O  O250  1  0.36899458  0.64204368  0.14639159  1
  O  O251  1  0.37010389  0.63602587  0.64920127  1
  O  O252  1  0.89142745  0.12901396  0.11290787  1
  O  O253  1  0.86937251  0.09427113  0.63519685  1
  O  O254  1  0.87469474  0.64412507  0.10321946  1
  O  O255  1  0.87940742  0.64012784  0.63141034  1
  O  O256  1  0.24568690  0.23969667  0.11207923  1
  O  O257  1  0.25118246  0.27150612  0.60825499  1
  O  O258  1  0.26750334  0.76374857  0.12186882  1
  O  O259  1  0.25593726  0.75779665  0.64358887  1
  O  O260  1  0.73771944  0.25208972  0.13585963  1
  O  O261  1  0.75252066  0.23971839  0.60603352  1
  O  O262  1  0.75342527  0.76140603  0.11784677  1
  O  O263  1  0.75643276  0.75017399  0.61174502  1
  O  O264  1  0.25494141  0.23777944  0.38553499  1
  O  O265  1  0.26261980  0.23394609  0.87918737  1
  O  O266  1  0.27227375  0.73938932  0.39149295  1
  O  O267  1  0.22939615  0.77857530  0.88550137  1
  O  O268  1  0.77669116  0.25262198  0.35594052  1
  O  O269  1  0.73827215  0.23806856  0.87096017  1
  O  O270  1  0.76033336  0.73623764  0.37613750  1
  O  O271  1  0.73758397  0.76462903  0.89332873  1
  O  O272  1  0.01955416  0.12896474  0.01063469  1
  O  O273  1  0.00524190  0.10710777  0.53063896  1
  O  O274  1  -0.09089522  0.52955630  -0.01424393  1
  O  O275  1  -0.00285027  0.61573843  0.51961735  1
  O  O276  1  0.50615536  0.12459209  0.01067683  1
  O  O277  1  0.52219303  0.13477732  0.42921112  1
  O  O278  1  0.44619989  0.64715160  0.02847527  1
  O  O279  1  0.52951356  0.49570928  0.55153119  1
  O  O280  1  0.51879758  0.36053205  0.45786245  1
  O  O281  1  0.48400702  0.36132524  0.99245471  1
  O  O282  1  0.60411835  0.95157688  0.47914101  1
  O  O283  1  0.49517181  0.88406315  0.99277098  1
  O  O284  1  0.99475001  0.39038101  0.48296207  1
  O  O285  1  0.96138372  0.32614528  1.00574942  1
  O  O286  1  0.98093001  0.84458866  0.48697870  1
  O  O287  1  0.97953347  0.87913018  1.00380197  1
  O  O288  1  0.48162881  0.49527690  0.37931408  1
  O  O289  1  0.51728191  0.47834319  0.88593516  1
  O  O290  1  0.46444719  0.98212547  0.36958996  1
  O  O291  1  0.49155950  0.99587292  0.87115687  1
  O  O292  1  1.00671492  0.51991797  0.39086495  1
  O  O293  1  1.00506034  0.48525100  0.86808861  1
  O  O294  1  0.99727370  1.00431231  0.40121435  1
  O  O295  1  0.98117076  1.00923885  0.87780048  1
  O  O296  1  -0.00035328  0.01500307  0.12979628  1
  O  O297  1  0.00494298  -0.03943672  0.60405720  1
  O  O298  1  0.01138539  0.49195897  0.11128439  1
  O  O299  1  0.01815487  0.50665986  0.62301696  1
  O  O300  1  0.50983122  0.02150542  0.13604501  1
  O  O301  1  0.49816288  0.03020720  0.65957224  1
  O  O302  1  0.49570215  0.52003902  0.12661874  1
  O  O303  1  0.51670962  0.50435072  0.62272926  1
  O  O304  1  0.24870528  0.37322772  0.25101714  1
  O  O305  1  0.26176748  0.38975567  0.72738234  1
  O  O306  1  0.22761556  0.87334002  0.23349899  1
  O  O307  1  0.25540216  0.88652136  0.76010545  1
  O  O308  1  0.73508143  0.37999014  0.22828912  1
  O  O309  1  0.73947405  0.37838899  0.74370299  1
  O  O310  1  0.73866996  0.87786733  0.23577674  1
  O  O311  1  0.74506296  0.87500247  0.75155941  1
  O  O312  1  0.24713192  0.10974166  0.24929651  1
  O  O313  1  0.25080835  0.11440526  0.76783482  1
  O  O314  1  0.26870962  0.64903665  0.26594241  1
  O  O315  1  0.25478826  0.60686691  0.76020849  1
  O  O316  1  0.70022932  0.11768536  0.26790542  1
  O  O317  1  0.75769911  0.12103919  0.76226800  1
  O  O318  1  0.74542158  0.62279349  0.22820231  1
  O  O319  1  0.75836278  0.61640991  0.74473698  1
  O  O320  1  0.35243860  0.11176107  0.36120574  1
  O  O321  1  0.37212365  0.11432991  0.88249315  1
  O  O322  1  0.38210297  0.62369206  0.36919276  1
  O  O323  1  0.37540345  0.63412178  0.86069196  1
  O  O324  1  0.87622096  0.11443676  0.41682141  1
  O  O325  1  0.86527735  0.11901249  0.87065229  1
  O  O326  1  0.88086242  0.61734079  0.39093154  1
  O  O327  1  0.88110206  0.63841870  0.85495030  1
  O  O328  1  0.13219212  0.38128186  0.13081853  1
  O  O329  1  0.13166631  0.38198982  0.62380577  1
  O  O330  1  0.13886486  0.86440053  0.10191620  1
  O  O331  1  0.09179809  0.84103301  0.71148434  1
  O  O332  1  0.61856310  0.36788054  0.14377283  1
  O  O333  1  0.61445871  0.35360076  0.62810822  1
  O  O334  1  0.63368635  0.88263578  0.13747063  1
  O  O335  1  0.61790861  0.85566696  0.65100879  1
  O  O336  1  0.12172773  0.27142941  0.24502485  1
  O  O337  1  0.14817518  0.25420054  0.77564121  1
  O  O338  1  0.10793425  0.76299751  0.23189387  1
  O  O339  1  0.11909753  0.70607788  0.79984695  1
  O  O340  1  0.62304662  0.26214399  0.27957696  1
  O  O341  1  0.63049137  0.26478442  0.75998766  1
  O  O342  1  0.59731886  0.75779226  0.25734306  1
  O  O343  1  0.63611712  0.75970156  0.77325559  1
  O  O344  1  0.35226457  0.22492293  0.23940344  1
  O  O345  1  0.35086479  0.24708059  0.71652522  1
  O  O346  1  0.39032047  0.75955485  0.26343123  1
  O  O347  1  0.38355325  0.73628334  0.74716383  1
  O  O348  1  0.89368517  0.22947005  0.25130711  1
  O  O349  1  0.86738230  0.22706848  0.73449112  1
  O  O350  1  0.87827111  0.74688923  0.23695313  1
  O  O351  1  0.85970280  0.74148483  0.73749197  1
  O  O352  1  0.38064084  0.52154990  0.50053110  1
  O  O353  1  0.35574379  0.47368847  1.00586325  1
  O  O354  1  0.35476626  0.99905273  0.48551105  1
  O  O355  1  0.37281347  0.99132975  0.98535877  1
  O  O356  1  0.89727268  0.48921447  0.51815116  1
  O  O357  1  0.85676764  0.47785222  0.98669522  1
  O  O358  1  0.88771715  0.97363822  0.49619411  1
  O  O359  1  0.86641910  0.99259805  0.99062706  1
  O  O360  1  0.13193140  0.01081561  -0.01243885  1
  O  O361  1  0.12185149  -0.00091882  0.50485041  1
  O  O362  1  0.15131142  0.49278996  0.01802910  1
  O  O363  1  0.11402217  0.49469629  0.50976533  1
  O  O364  1  0.62099390  0.01426218  -0.01555585  1
  O  O365  1  0.66322924  0.05771205  0.52163727  1
  O  O366  1  0.67186762  0.52697441  0.04485817  1
  O  O367  1  0.64905726  0.51651165  0.46490827  1
  O  O368  1  0.38904010  0.37361999  0.12207364  1
  O  O369  1  0.37370982  0.38613628  0.61567924  1
  O  O370  1  0.37940646  0.89055684  0.11172704  1
  O  O371  1  0.39378319  0.84857808  0.63492954  1
  O  O372  1  0.83782001  0.38408074  0.12006225  1
  O  O373  1  0.88792912  0.36098833  0.62089555  1
  O  O374  1  0.86123261  0.88261931  0.11901001  1
  O  O375  1  0.87576669  0.86050026  0.62413898  1
  O  O376  1  0.13701560  0.12408930  0.36251542  1
  O  O377  1  0.13993286  0.13091886  0.88429151  1
  O  O378  1  0.14087273  0.63197920  0.36631672  1
  O  O379  1  0.11255238  0.64752212  0.84622097  1
  O  O380  1  0.67207691  0.12528194  0.33735512  1
  O  O381  1  0.63274576  0.13209373  0.87231176  1
  O  O382  1  0.60711009  0.65223728  0.36999430  1
  O  O383  1  0.61864299  0.64014393  0.87538136  1
