# generated using pymatgen
data_VZnO4
_symmetry_space_group_name_H-M   'P 1'
_cell_length_a   16.96354297
_cell_length_b   16.97688398
_cell_length_c   17.01785896
_cell_angle_alpha   90.14955504
_cell_angle_beta   90.01179420
_cell_angle_gamma   89.84113532
_symmetry_Int_Tables_number   1
_chemical_formula_structural   VZnO4
_chemical_formula_sum   'V64 Zn64 O256'
_cell_volume   4900.90525193
_cell_formula_units_Z   64
loop_
 _symmetry_equiv_pos_site_id
 _symmetry_equiv_pos_as_xyz
  1  'x, y, z'
loop_
 _atom_site_type_symbol
 _atom_site_label
 _atom_site_symmetry_multiplicity
 _atom_site_fract_x
 _atom_site_fract_y
 _atom_site_fract_z
 _atom_site_occupancy
  V  V0  1  0.49743903  0.63079174  0.60327055  1
  V  V1  1  0.41515251  0.48314193  0.85670045  1
  V  V2  1  0.23757692  0.49457170  0.75788439  1
  V  V3  1  0.00077011  0.62154954  0.11792024  1
  V  V4  1  0.25944845  -0.00923174  0.74077769  1
  V  V5  1  0.87830201  0.64780151  0.76320407  1
  V  V6  1  0.09588434  0.49466196  0.62972304  1
  V  V7  1  0.48409768  0.49047086  0.49427988  1
  V  V8  1  0.13570076  0.12699585  0.47614038  1
  V  V9  1  0.50115564  0.37409939  0.35462624  1
  V  V10  1  0.49440764  0.74472932  0.24115026  1
  V  V11  1  0.72127544  0.00357818  0.24977999  1
  V  V12  1  0.37606326  0.62549021  0.74956405  1
  V  V13  1  0.75275158  0.35161070  0.59931982  1
  V  V14  1  0.62454082  0.85234260  0.74837841  1
  V  V15  1  0.13798142  0.00483520  0.12279263  1
  V  V16  1  0.50609232  0.11444083  0.12537548  1
  V  V17  1  0.62513040  -0.01290214  0.63242224  1
  V  V18  1  0.73952530  0.12298781  0.39443267  1
  V  V19  1  0.62558639  0.25654102  0.40871030  1
  V  V20  1  0.11580093  0.25939737  0.88616914  1
  V  V21  1  0.38505689  0.13712682  0.25511843  1
  V  V22  1  0.25997853  0.00423983  0.24664041  1
  V  V23  1  0.88390040  0.78246380  0.12132128  1
  V  V24  1  0.01104281  0.21307840  0.73531681  1
  V  V25  1  0.37559862  0.00120518  0.38000592  1
  V  V26  1  0.88035960  0.48546750  0.36800335  1
  V  V27  1  0.16442098  0.44761420  0.14491419  1
  V  V28  1  0.25409108  0.86642774  0.12117818  1
  V  V29  1  0.38487427  0.00006479  0.88407491  1
  V  V30  1  0.12731679  0.27364759  0.36806312  1
  V  V31  1  0.73949823  0.75157328  0.00213603  1
  V  V32  1  0.62893518  0.75360957  0.38166582  1
  V  V33  1  0.75954756  0.09813969  0.85781512  1
  V  V34  1  0.74978988  0.61813140  0.37073310  1
  V  V35  1  0.00755785  -0.01317904  0.48285457  1
  V  V36  1  0.65977468  0.51999938  0.59936498  1
  V  V37  1  -0.02887662  0.10419561  0.09749786  1
  V  V38  1  0.25723986  0.38031202  0.61241374  1
  V  V39  1  0.12305146  0.86490095  0.74937872  1
  V  V40  1  0.00658697  0.76824657  0.26561204  1
  V  V41  1  0.38732450  0.37385082  -0.01491615  1
  V  V42  1  0.37956901  0.14137667  0.74286332  1
  V  V43  1  0.37429229  0.85089833  0.00075021  1
  V  V44  1  0.13586293  0.74624182  0.89980443  1
  V  V45  1  0.71881822  0.89138007  0.12075241  1
  V  V46  1  0.12246737  0.62239212  0.50592887  1
  V  V47  1  0.36449369  0.61676662  0.26138250  1
  V  V48  1  0.49691498  0.13590293  0.61769536  1
  V  V49  1  0.49044959  0.61157911  0.11095076  1
  V  V50  1  0.14661047  0.13131123  0.01279393  1
  V  V51  1  -0.00231808  0.88879539  0.89314321  1
  V  V52  1  0.49909075  0.84803882  0.86967933  1
  V  V53  1  -0.01292207  0.24407708  0.25527104  1
  V  V54  1  0.25781186  0.13208864  0.87826649  1
  V  V55  1  0.35525444  0.75327907  0.60194082  1
  V  V56  1  0.49829496  0.87271130  0.36405820  1
  V  V57  1  0.49437625  -0.01324081  0.51006744  1
  V  V58  1  0.37376238  0.25499232  0.11518325  1
  V  V59  1  0.12306724  0.01396082  0.63378768  1
  V  V60  1  0.61078023  0.10736059  -0.01573956  1
  V  V61  1  0.76070553  0.24277175  -0.00866044  1
  V  V62  1  0.86711577  0.62413650  0.23920323  1
  V  V63  1  0.87789714  0.10211358  0.26786645  1
  Zn  Zn64  1  0.20109149  0.20021653  0.20819611  1
  Zn  Zn65  1  0.19258209  0.19385038  0.70552201  1
  Zn  Zn66  1  0.17819070  0.68862095  0.18849821  1
  Zn  Zn67  1  0.18705634  0.67601994  0.68595530  1
  Zn  Zn68  1  0.69720297  0.17362567  0.17157592  1
  Zn  Zn69  1  0.69102518  0.16439818  0.66815079  1
  Zn  Zn70  1  0.68116064  0.70631471  0.18983601  1
  Zn  Zn71  1  0.67891335  0.66750129  0.69048028  1
  Zn  Zn72  1  0.31342017  0.32361006  0.42956783  1
  Zn  Zn73  1  0.30012970  0.31965492  0.80741883  1
  Zn  Zn74  1  0.32042213  0.81990713  0.30328868  1
  Zn  Zn75  1  0.30957924  0.80872447  0.81523264  1
  Zn  Zn76  1  0.80812008  0.29433601  0.31472885  1
  Zn  Zn77  1  0.84899362  0.25267076  0.84063541  1
  Zn  Zn78  1  0.79505791  0.80628697  0.28439701  1
  Zn  Zn79  1  0.80790703  0.83423012  0.82516167  1
  Zn  Zn80  1  0.14944217  0.43523867  0.45971129  1
  Zn  Zn81  1  0.22932581  0.48971492  0.97361936  1
  Zn  Zn82  1  0.20937590  0.95962301  0.45405830  1
  Zn  Zn83  1  0.19561311  0.93878684  0.93462033  1
  Zn  Zn84  1  0.68941858  0.43709565  0.43860357  1
  Zn  Zn85  1  0.62741232  0.24229152  0.86640166  1
  Zn  Zn86  1  0.67495539  0.93966240  0.43530258  1
  Zn  Zn87  1  0.68052023  0.92827024  0.92925237  1
  Zn  Zn88  1  0.32295019  0.06470299  0.06619507  1
  Zn  Zn89  1  0.30392097  0.19464185  0.56354225  1
  Zn  Zn90  1  0.29149297  0.56865055  0.11845754  1
  Zn  Zn91  1  0.30519065  0.56472663  0.55659739  1
  Zn  Zn92  1  0.79432287  0.07978362  0.06555233  1
  Zn  Zn93  1  0.80788641  0.01270642  0.54373963  1
  Zn  Zn94  1  0.85242864  0.59790414  0.03582446  1
  Zn  Zn95  1  0.81896845  0.65067908  0.55792772  1
  Zn  Zn96  1  0.43221224  0.43860383  0.18196223  1
  Zn  Zn97  1  0.42682981  0.44081599  0.66800335  1
  Zn  Zn98  1  0.43634612  0.93689697  0.18280606  1
  Zn  Zn99  1  0.43187135  0.92483187  0.69232521  1
  Zn  Zn100  1  1.00209598  0.44857461  0.21784829  1
  Zn  Zn101  1  0.90355590  0.45280744  0.70120351  1
  Zn  Zn102  1  0.94597500  0.94398430  0.20153277  1
  Zn  Zn103  1  0.97093876  0.99250079  0.74450697  1
  Zn  Zn104  1  0.07230870  0.05062903  0.30999954  1
  Zn  Zn105  1  0.08394100  0.06168996  0.83019415  1
  Zn  Zn106  1  0.06278563  0.57177204  0.30490529  1
  Zn  Zn107  1  0.06324822  0.57237862  0.81633850  1
  Zn  Zn108  1  0.55699276  0.07295259  0.32299000  1
  Zn  Zn109  1  0.55796214  0.05547000  0.80088375  1
  Zn  Zn110  1  0.56154491  0.56663771  0.31518721  1
  Zn  Zn111  1  0.55975761  0.53760708  0.75734437  1
  Zn  Zn112  1  0.44625322  0.18924585  0.43749198  1
  Zn  Zn113  1  0.43206153  0.19183205  0.93999185  1
  Zn  Zn114  1  0.42427644  0.68884134  0.43235515  1
  Zn  Zn115  1  0.37409823  0.63895138  0.96576966  1
  Zn  Zn116  1  0.95319297  0.16202282  0.42336500  1
  Zn  Zn117  1  0.94068287  0.15183520  0.93402611  1
  Zn  Zn118  1  0.96421802  0.66528030  0.42497456  1
  Zn  Zn119  1  0.94895141  0.71715109  0.94599980  1
  Zn  Zn120  1  0.07208333  0.27869937  0.08966329  1
  Zn  Zn121  1  0.11076359  0.28393859  0.58273296  1
  Zn  Zn122  1  0.06661167  0.82324548  0.06292003  1
  Zn  Zn123  1  0.10404671  0.82490848  0.55612272  1
  Zn  Zn124  1  0.54408844  0.27311911  0.03825659  1
  Zn  Zn125  1  0.56780231  0.33402157  0.58573033  1
  Zn  Zn126  1  0.55319281  0.81016006  0.05745115  1
  Zn  Zn127  1  0.55357270  0.81025799  0.56071249  1
  O  O128  1  0.15640552  0.12624055  0.11714423  1
  O  O129  1  0.13943299  0.11331553  0.63793758  1
  O  O130  1  0.09882764  0.63746786  0.11853708  1
  O  O131  1  0.12157256  0.60277464  0.62268120  1
  O  O132  1  0.61151073  0.12505608  0.10904939  1
  O  O133  1  0.60112643  0.10083674  0.63320977  1
  O  O134  1  0.60999241  0.61320173  0.15740459  1
  O  O135  1  0.60146921  0.62819455  0.60197728  1
  O  O136  1  0.40374611  0.36924278  0.37393782  1
  O  O137  1  0.37949937  0.38416538  0.85948737  1
  O  O138  1  0.38735058  0.89014354  0.36963837  1
  O  O139  1  0.37830047  0.88117693  0.88404497  1
  O  O140  1  0.84884090  0.39249269  0.34047133  1
  O  O141  1  0.88635667  0.38311466  0.85820840  1
  O  O142  1  0.83095149  0.86858718  0.45121117  1
  O  O143  1  0.89889158  0.87690005  0.87372964  1
  O  O144  1  0.26828527  -0.00568079  0.36553475  1
  O  O145  1  0.26366368  0.01340475  0.86817212  1
  O  O146  1  0.22651068  0.50218612  0.36544393  1
  O  O147  1  0.23896513  0.49154201  0.85700277  1
  O  O148  1  0.72730227  0.01550907  0.36214365  1
  O  O149  1  0.74735588  -0.00208156  0.86841108  1
  O  O150  1  0.75364556  0.51500219  0.37813901  1
  O  O151  1  0.74296372  0.51364194  0.91760964  1
  O  O152  1  0.26482897  0.46018418  0.15494099  1
  O  O153  1  0.24855397  0.48814814  0.62805448  1
  O  O154  1  0.25542011  0.99749900  0.13051218  1
  O  O155  1  0.25126321  0.99791879  0.64280483  1
  O  O156  1  0.84122578  0.47311454  0.03597693  1
  O  O157  1  0.75307522  0.54327122  0.58020520  1
  O  O158  1  0.74277306  0.99981499  0.13554148  1
  O  O159  1  0.72270381  0.99603037  0.62087365  1
  O  O160  1  -0.01413262  0.33761480  0.22128549  1
  O  O161  1  -0.05975984  0.40174803  0.81062446  1
  O  O162  1  0.01384285  0.86831975  0.24966861  1
  O  O163  1  0.02155507  0.88265591  0.75659571  1
  O  O164  1  0.50436465  0.38235018  0.25608029  1
  O  O165  1  0.52301702  0.37192792  0.69753049  1
  O  O166  1  0.49142630  0.86465357  0.25713953  1
  O  O167  1  0.49807578  0.86699403  0.76506028  1
  O  O168  1  0.49592776  0.11974069  0.23611436  1
  O  O169  1  0.48356997  0.11779838  0.73445511  1
  O  O170  1  0.48647084  0.63797614  0.26144163  1
  O  O171  1  0.48183255  0.61495661  0.72089830  1
  O  O172  1  0.98192478  0.11643156  0.28106646  1
  O  O173  1  1.00622884  0.11292294  0.75579968  1
  O  O174  1  0.98182910  0.64151362  0.23559892  1
  O  O175  1  0.98257813  0.64495110  0.75504440  1
  O  O176  1  0.35337793  0.23713298  0.01883598  1
  O  O177  1  0.36731038  0.24607619  0.48968970  1
  O  O178  1  0.36532487  0.75409580  -0.00764568  1
  O  O179  1  0.36117057  0.75349587  0.50149023  1
  O  O180  1  0.86309110  0.24072188  -0.03861340  1
  O  O181  1  0.90070675  0.25731096  0.50646633  1
  O  O182  1  0.86443864  0.76688653  0.01981662  1
  O  O183  1  0.85207074  0.80263289  0.47583794  1
  O  O184  1  0.11476974  0.23617726  0.47510601  1
  O  O185  1  0.13701223  0.23810568  1.00004139  1
  O  O186  1  0.09495083  0.71765782  0.52825810  1
  O  O187  1  0.13048063  0.75251585  1.00025921  1
  O  O188  1  0.62368934  0.25944410  0.50620300  1
  O  O189  1  0.63380132  0.23274360  0.98462866  1
  O  O190  1  0.61501702  0.75652623  0.48031395  1
  O  O191  1  0.63946228  0.74907206  1.01999587  1
  O  O192  1  0.48600350  0.23530847  0.12729653  1
  O  O193  1  0.51189721  0.23193799  0.61419927  1
  O  O194  1  0.50884711  0.73818544  0.13940676  1
  O  O195  1  0.48081165  0.73404370  0.60783981  1
  O  O196  1  1.00339233  0.19979299  0.14217610  1
  O  O197  1  1.02600809  0.23222043  0.63785348  1
  O  O198  1  0.98951630  0.76021722  0.12564639  1
  O  O199  1  0.91405486  0.84183750  0.61287326  1
  O  O200  1  -0.00025590  0.24916346  0.36080723  1
  O  O201  1  0.01648006  0.23302726  0.89044584  1
  O  O202  1  -0.01789450  0.75625270  0.36210983  1
  O  O203  1  0.02199658  0.77693504  0.88521691  1
  O  O204  1  0.52017377  0.26010623  0.37883184  1
  O  O205  1  0.58657373  0.27114955  0.76071358  1
  O  O206  1  0.49890443  0.76356404  0.37263739  1
  O  O207  1  0.49301719  0.75316079  0.87337688  1
  O  O208  1  0.23110613  0.12533588  0.50877527  1
  O  O209  1  0.25511055  0.12298552  0.99017205  1
  O  O210  1  0.22152671  0.61342325  0.49211705  1
  O  O211  1  0.28756262  0.58123587  1.00888790  1
  O  O212  1  0.74857855  0.10698200  0.49096939  1
  O  O213  1  0.72622403  0.11260850  0.96993793  1
  O  O214  1  0.76666939  0.65845765  0.45791585  1
  O  O215  1  0.75898083  0.65099192  1.00847912  1
  O  O216  1  0.28843901  0.38113620  -0.01828335  1
  O  O217  1  0.24322218  0.38397917  0.50562131  1
  O  O218  1  0.26649236  0.88215743  0.00915629  1
  O  O219  1  0.20681971  0.85059476  0.49234253  1
  O  O220  1  0.74393161  0.33715170  0.00237654  1
  O  O221  1  0.76035115  0.36745900  0.50015640  1
  O  O222  1  0.73861590  0.88315830  0.01989331  1
  O  O223  1  0.76468106  0.90655798  0.49998409  1
  O  O224  1  0.11286940  0.49784012  0.22531266  1
  O  O225  1  0.13173095  0.51053278  0.74262852  1
  O  O226  1  0.14814304  1.01269732  0.23459901  1
  O  O227  1  0.14445212  1.00051648  0.74863534  1
  O  O228  1  0.62452753  0.55519493  0.21185673  1
  O  O229  1  0.65604113  0.54808155  0.70816059  1
  O  O230  1  0.62353526  1.01100630  0.24668339  1
  O  O231  1  0.61031594  0.98014272  0.73607133  1
  O  O232  1  0.37568688  0.00545945  0.25682202  1
  O  O233  1  0.36776409  0.00006047  0.75916176  1
  O  O234  1  0.38451530  0.51771099  0.25387437  1
  O  O235  1  0.37055742  0.49617992  0.75247436  1
  O  O236  1  0.87079987  0.00051845  0.27181859  1
  O  O237  1  0.85989161  0.01808906  0.70886978  1
  O  O238  1  0.84874536  0.53093792  0.22162595  1
  O  O239  1  0.86848107  0.54323340  0.76817205  1
  O  O240  1  0.10600793  0.37136383  0.37721787  1
  O  O241  1  0.12077231  0.35495895  0.89073207  1
  O  O242  1  0.21825642  0.81646776  0.36237009  1
  O  O243  1  0.12577586  0.87494155  0.86813653  1
  O  O244  1  0.62433007  0.35975172  0.37860564  1
  O  O245  1  0.52170042  0.31906667  0.75994030  1
  O  O246  1  0.60384959  0.87319610  0.37432413  1
  O  O247  1  0.60597885  0.86902944  0.86417287  1
  O  O248  1  0.38427570  0.13394833  0.13631465  1
  O  O249  1  0.37974584  0.13676691  0.63595858  1
  O  O250  1  0.39263498  0.62909804  0.14163775  1
  O  O251  1  0.37372480  0.63365446  0.62520977  1
  O  O252  1  0.88270053  0.10406136  0.16015052  1
  O  O253  1  0.86058222  0.06790604  0.65205421  1
  O  O254  1  0.87183063  0.65679819  0.13545295  1
  O  O255  1  0.88119431  0.64900580  0.65907184  1
  O  O256  1  0.28234591  0.26152690  0.15658737  1
  O  O257  1  0.22672389  0.26766547  0.62290432  1
  O  O258  1  0.24272682  0.76977635  0.13087639  1
  O  O259  1  0.25730025  0.73956267  0.62399091  1
  O  O260  1  0.76875082  0.19771238  0.08757727  1
  O  O261  1  0.73578503  0.25525422  0.62762167  1
  O  O262  1  0.75457926  0.78081552  0.13142229  1
  O  O263  1  0.75172632  0.71555255  0.61832913  1
  O  O264  1  0.22759247  0.27388761  0.36539462  1
  O  O265  1  0.24080712  0.23743930  0.86395943  1
  O  O266  1  0.22189415  0.79022293  0.43588906  1
  O  O267  1  0.23566215  0.75705149  0.88036671  1
  O  O268  1  0.73355787  0.23569302  0.37910777  1
  O  O269  1  0.74180616  0.22669905  0.87391465  1
  O  O270  1  0.72562727  0.78029921  0.36763789  1
  O  O271  1  0.74847195  0.77784636  0.90561805  1
  O  O272  1  0.03665631  0.12330925  0.01120799  1
  O  O273  1  0.02562087  0.10570054  0.49034067  1
  O  O274  1  -0.03589589  0.62848979  0.01638962  1
  O  O275  1  -0.07743809  0.63825283  0.52197484  1
  O  O276  1  0.50380329  0.13142143  0.01029176  1
  O  O277  1  0.49042796  0.10788751  0.51446997  1
  O  O278  1  0.48306940  0.62889111  0.01373082  1
  O  O279  1  0.48535222  0.61350728  0.49790102  1
  O  O280  1  0.50264079  0.39036433  0.50813099  1
  O  O281  1  0.46955654  0.30276490  0.95206577  1
  O  O282  1  0.48953667  0.88412355  0.48926255  1
  O  O283  1  0.48265456  0.86527801  0.98747039  1
  O  O284  1  0.93710595  0.31972500  0.51575824  1
  O  O285  1  0.97878512  0.35482868  1.03305577  1
  O  O286  1  1.02223097  0.89155129  0.51426826  1
  O  O287  1  1.00944019  0.89542411  0.99300268  1
  O  O288  1  0.51700648  0.48472180  0.38397429  1
  O  O289  1  0.51302091  0.47839619  0.83759855  1
  O  O290  1  0.49692584  0.99016386  0.38200308  1
  O  O291  1  0.48376236  0.99410898  0.86848790  1
  O  O292  1  0.97588913  0.49195403  0.32163914  1
  O  O293  1  0.97569885  0.53339878  0.86890907  1
  O  O294  1  1.02678728  0.97930613  0.38423735  1
  O  O295  1  1.00213996  0.99236460  0.86102963  1
  O  O296  1  0.01918910  0.01834591  0.13715268  1
  O  O297  1  0.02321261  0.00488248  0.63585833  1
  O  O298  1  -0.01621738  0.52297518  0.12920307  1
  O  O299  1  -0.00005605  0.48658897  0.65489256  1
  O  O300  1  0.48896277  0.01568240  0.11949965  1
  O  O301  1  0.48826686  -0.00706029  0.61441344  1
  O  O302  1  0.49694597  0.51177380  0.12097838  1
  O  O303  1  0.49589286  0.51099366  0.60685174  1
  O  O304  1  0.26283206  0.45135514  0.32745430  1
  O  O305  1  0.24639082  0.38861183  0.73366983  1
  O  O306  1  0.26769647  0.89143671  0.22859153  1
  O  O307  1  0.24622100  0.88885488  0.76097536  1
  O  O308  1  0.72237217  0.32936325  0.22337879  1
  O  O309  1  0.66299000  0.39628778  0.83512185  1
  O  O310  1  0.74257484  0.89851168  0.23982729  1
  O  O311  1  0.72377500  0.86710089  0.75723270  1
  O  O312  1  0.27456288  0.11585148  0.24890152  1
  O  O313  1  0.26737936  0.11706848  0.75731316  1
  O  O314  1  0.26455182  0.62287554  0.22256686  1
  O  O315  1  0.26653266  0.60208556  0.73985514  1
  O  O316  1  0.75494160  0.11169212  0.25302128  1
  O  O317  1  0.71683988  0.11852927  0.76685463  1
  O  O318  1  0.76402487  0.66202979  0.26455257  1
  O  O319  1  0.77276002  0.64739985  0.76282937  1
  O  O320  1  0.39764495  0.10952680  0.36218362  1
  O  O321  1  0.37817154  0.11855481  0.86644276  1
  O  O322  1  0.35589235  0.63424158  0.36006536  1
  O  O323  1  0.38945441  0.59378984  0.85677602  1
  O  O324  1  0.85055393  0.12836501  0.37442176  1
  O  O325  1  0.85993682  0.11523112  0.85370777  1
  O  O326  1  0.87083287  0.60938679  0.35287761  1
  O  O327  1  0.88402181  0.65630440  0.86720966  1
  O  O328  1  0.13590783  0.34942487  0.14704537  1
  O  O329  1  0.12745266  0.39336945  0.61744579  1
  O  O330  1  0.14596939  0.89285543  0.11584134  1
  O  O331  1  0.13491716  0.89146624  0.64537305  1
  O  O332  1  0.66347714  0.43609016  0.11768754  1
  O  O333  1  0.66189956  0.40770205  0.62130922  1
  O  O334  1  0.62089248  0.88251242  0.12537952  1
  O  O335  1  0.60975477  0.87639542  0.63589652  1
  O  O336  1  0.10890313  0.23366703  0.26688098  1
  O  O337  1  0.11101919  0.24263604  0.77239852  1
  O  O338  1  0.10343905  0.73541057  0.25825950  1
  O  O339  1  0.13366902  0.76433123  0.74587421  1
  O  O340  1  0.66319434  0.28390868  0.20960782  1
  O  O341  1  0.73302703  0.39765953  0.81578693  1
  O  O342  1  0.60193355  0.75020624  0.26575328  1
  O  O343  1  0.61825341  0.75280190  0.73884778  1
  O  O344  1  0.38657780  0.23301372  0.26237097  1
  O  O345  1  0.37366100  0.23831596  0.75932024  1
  O  O346  1  0.38693722  0.74505943  0.25205002  1
  O  O347  1  0.36614910  0.72437169  0.75954557  1
  O  O348  1  0.88156956  0.22594326  0.25677974  1
  O  O349  1  0.92153947  0.25677722  0.75676212  1
  O  O350  1  0.88633423  0.76427037  0.23735114  1
  O  O351  1  0.87057365  0.75232897  0.76332050  1
  O  O352  1  0.38378057  0.49889953  0.49390352  1
  O  O353  1  0.41967490  0.47206152  0.96752644  1
  O  O354  1  0.38130868  1.00293681  0.48097311  1
  O  O355  1  0.37579330  1.00223342  0.98416509  1
  O  O356  1  0.89895820  0.48290999  0.46155862  1
  O  O357  1  0.99366463  0.41320944  0.99211691  1
  O  O358  1  0.90836335  1.00375442  0.49642420  1
  O  O359  1  0.90217913  1.08036852  1.02200915  1
  O  O360  1  0.14462867  0.01449521  0.01417697  1
  O  O361  1  0.12992893  0.00943998  0.51738477  1
  O  O362  1  0.14470717  0.48062921  0.05079035  1
  O  O363  1  0.09215969  0.50991274  0.52089558  1
  O  O364  1  0.61204141  0.00872842  -0.01397800  1
  O  O365  1  0.60269401  -0.01153255  0.51493524  1
  O  O366  1  0.65613197  0.47631139  0.05866913  1
  O  O367  1  0.61700242  0.50480968  0.50468508  1
  O  O368  1  0.40299580  0.36327353  0.09584645  1
  O  O369  1  0.35583081  0.36658918  0.61916694  1
  O  O370  1  0.37181491  0.87326991  0.10770810  1
  O  O371  1  0.37496506  0.84716981  0.63489177  1
  O  O372  1  0.83329759  0.42925531  0.09406522  1
  O  O373  1  0.83139573  0.38922695  0.65003644  1
  O  O374  1  0.87937264  0.88326477  0.12911777  1
  O  O375  1  0.85629772  0.87884334  0.63704246  1
  O  O376  1  0.14386160  0.11457101  0.37746632  1
  O  O377  1  0.14396372  0.12832860  0.89443093  1
  O  O378  1  0.07409667  0.61540679  0.40921767  1
  O  O379  1  0.12115162  0.64840496  0.87340972  1
  O  O380  1  0.62737455  0.14193898  0.38127888  1
  O  O381  1  0.59249873  0.12749793  0.88102409  1
  O  O382  1  0.64113702  0.63994582  0.36677453  1
  O  O383  1  0.67561178  0.53778607  0.90669733  1
