# generated using pymatgen
data_VZnO4
_symmetry_space_group_name_H-M   'P 1'
_cell_length_a   16.93193827
_cell_length_b   16.94218644
_cell_length_c   16.87785021
_cell_angle_alpha   89.72922074
_cell_angle_beta   89.91155025
_cell_angle_gamma   89.90189676
_symmetry_Int_Tables_number   1
_chemical_formula_structural   VZnO4
_chemical_formula_sum   'V64 Zn64 O256'
_cell_volume   4841.58167870
_cell_formula_units_Z   64
loop_
 _symmetry_equiv_pos_site_id
 _symmetry_equiv_pos_as_xyz
  1  'x, y, z'
loop_
 _atom_site_type_symbol
 _atom_site_label
 _atom_site_symmetry_multiplicity
 _atom_site_fract_x
 _atom_site_fract_y
 _atom_site_fract_z
 _atom_site_occupancy
  V  V0  1  0.87299517  0.64971363  0.75227852  1
  V  V1  1  0.00679280  -0.02182274  0.00229862  1
  V  V2  1  0.61379272  0.39388810  0.73146957  1
  V  V3  1  0.87248565  -0.01492116  0.87912195  1
  V  V4  1  0.00786417  0.87503378  0.37527828  1
  V  V5  1  0.50489055  0.75349449  0.22123135  1
  V  V6  1  0.25620757  0.74251367  0.00885338  1
  V  V7  1  -0.01431250  0.10668671  0.13893449  1
  V  V8  1  0.00675755  0.36768149  0.88262040  1
  V  V9  1  0.22468807  0.37275014  0.12079711  1
  V  V10  1  0.89594288  0.25431013  0.16138049  1
  V  V11  1  0.50098960  0.87557029  0.41041313  1
  V  V12  1  0.11679945  0.76504545  0.87496811  1
  V  V13  1  0.60723178  0.74325794  0.37706440  1
  V  V14  1  0.25354150  0.86579600  0.58465133  1
  V  V15  1  0.86471642  0.89065904  0.48434521  1
  V  V16  1  0.00559473  0.09953080  0.63234307  1
  V  V17  1  0.74957730  0.61862093  0.87700635  1
  V  V18  1  0.75499365  0.87647453  0.64594243  1
  V  V19  1  0.13493651  0.11991856  0.01886568  1
  V  V20  1  0.26004770  0.12006658  0.37071166  1
  V  V21  1  0.10993374  0.51136627  0.63086566  1
  V  V22  1  0.39126092  0.48406371  0.37303792  1
  V  V23  1  0.49384967  0.37329544  0.88757994  1
  V  V24  1  0.22484491  0.49847024  0.25308737  1
  V  V25  1  0.12309985  0.65299725  0.49974197  1
  V  V26  1  0.64261061  0.24781906  0.86439186  1
  V  V27  1  0.75072077  0.49147214  0.25759350  1
  V  V28  1  0.48939364  0.24247060  0.25818025  1
  V  V29  1  0.23663333  -0.02316320  0.75100865  1
  V  V30  1  0.12426923  0.09433346  0.49920281  1
  V  V31  1  0.50364020  0.60309909  0.12250413  1
  V  V32  1  0.63197940  0.46807754  0.10744363  1
  V  V33  1  -0.01578006  0.65246157  0.62246417  1
  V  V34  1  0.79008751  0.25384101  0.02299211  1
  V  V35  1  0.75737025  0.25616015  0.51717702  1
  V  V36  1  0.26716017  0.52588377  0.73271206  1
  V  V37  1  0.22870890  0.12620324  0.86618638  1
  V  V38  1  0.63538384  0.10938579  0.50359093  1
  V  V39  1  0.50586924  0.00030968  -0.00418314  1
  V  V40  1  0.87470753  0.12298156  0.75789410  1
  V  V41  1  0.62264671  0.06544141  0.11476811  1
  V  V42  1  0.49587680  0.10768341  0.61941617  1
  V  V43  1  0.38259319  0.26574114  0.10426441  1
  V  V44  1  0.87081343  0.49107600  0.40733285  1
  V  V45  1  0.62541935  -0.01369426  0.64638313  1
  V  V46  1  0.84845045  0.75496245  0.10692670  1
  V  V47  1  0.62655479  0.63262513  -0.00309335  1
  V  V48  1  0.62865643  0.24151910  0.38628592  1
  V  V49  1  -0.04440579  0.74889013  0.25874185  1
  V  V50  1  0.75481336  0.01607830  0.23803667  1
  V  V51  1  0.74685080  0.63087400  0.37681618  1
  V  V52  1  0.48849541  0.75845079  0.76992905  1
  V  V53  1  -0.00963898  0.62681074  0.12063216  1
  V  V54  1  0.37927557  0.25601407  0.61459619  1
  V  V55  1  0.19386570  0.33094903  0.65209019  1
  V  V56  1  0.39347313  0.00861778  0.38502224  1
  V  V57  1  0.37063271  0.50089050  0.87870557  1
  V  V58  1  0.23818390  0.24444620  0.50095466  1
  V  V59  1  0.74594863  0.75153487  0.51393773  1
  V  V60  1  0.61949378  0.37519388  0.27833269  1
  V  V61  1  0.75718868  0.49810916  0.73305109  1
  V  V62  1  0.49621024  0.25184177  0.74769217  1
  V  V63  1  0.37621027  0.10986834  0.75987866  1
  Zn  Zn64  1  0.24838817  0.16131895  0.16355221  1
  Zn  Zn65  1  0.18847151  0.16001380  0.67808196  1
  Zn  Zn66  1  0.19761841  0.65934713  0.13984716  1
  Zn  Zn67  1  0.19354872  0.70381396  0.68048110  1
  Zn  Zn68  1  0.71028084  0.20011717  0.20300215  1
  Zn  Zn69  1  0.68255826  0.16433720  0.71276976  1
  Zn  Zn70  1  0.67753449  0.67388148  0.19130261  1
  Zn  Zn71  1  0.67804971  0.68553284  0.69585799  1
  Zn  Zn72  1  0.29999631  0.31917632  0.31419869  1
  Zn  Zn73  1  0.31527920  0.30444517  0.81113850  1
  Zn  Zn74  1  0.40374704  0.89799751  0.24987377  1
  Zn  Zn75  1  0.30604548  0.81762895  0.85485185  1
  Zn  Zn76  1  0.81114519  0.30977476  0.33027376  1
  Zn  Zn77  1  0.80318011  0.30549688  0.69741094  1
  Zn  Zn78  1  0.78672721  0.83020857  0.30193955  1
  Zn  Zn79  1  0.77845254  0.82167263  0.85555370  1
  Zn  Zn80  1  0.25461249  0.46314075  0.52227718  1
  Zn  Zn81  1  0.20577759  0.43541729  0.92538196  1
  Zn  Zn82  1  0.19851160  0.92797796  0.41083643  1
  Zn  Zn83  1  0.18566632  0.93481651  0.93292099  1
  Zn  Zn84  1  0.68335370  0.43708689  0.45552567  1
  Zn  Zn85  1  0.70243644  0.41873271  0.91611727  1
  Zn  Zn86  1  0.68283426  0.93034390  0.43579357  1
  Zn  Zn87  1  0.66965174  0.98336514  0.91553971  1
  Zn  Zn88  1  0.33188437  0.07255579  0.03402000  1
  Zn  Zn89  1  0.31303949  0.04977995  0.56181642  1
  Zn  Zn90  1  0.30790438  0.54708730  0.06467362  1
  Zn  Zn91  1  0.29480442  0.60851504  0.42792798  1
  Zn  Zn92  1  0.81436910  0.06813584  0.04924044  1
  Zn  Zn93  1  0.81239457  0.05949879  0.57714144  1
  Zn  Zn94  1  0.81054124  0.57435081  0.06883374  1
  Zn  Zn95  1  0.79826564  0.57678159  0.57042115  1
  Zn  Zn96  1  0.44342615  0.43048305  0.19089910  1
  Zn  Zn97  1  0.43459511  0.44062789  0.67810465  1
  Zn  Zn98  1  0.43670180  1.08144701  0.18615800  1
  Zn  Zn99  1  0.43126754  0.93100393  0.68979564  1
  Zn  Zn100  1  0.91284736  0.46107716  0.15023881  1
  Zn  Zn101  1  0.91582039  0.44924618  0.60661940  1
  Zn  Zn102  1  0.92720128  0.92374450  0.18562848  1
  Zn  Zn103  1  0.93696175  0.93159834  0.69024838  1
  Zn  Zn104  1  0.07300489  0.05541711  0.32241362  1
  Zn  Zn105  1  0.05773280  0.03638437  0.81283770  1
  Zn  Zn106  1  0.04712489  0.56887840  0.31919020  1
  Zn  Zn107  1  0.08293523  0.61416970  0.78596575  1
  Zn  Zn108  1  0.58768482  0.04052867  0.31863758  1
  Zn  Zn109  1  0.55341072  0.07197569  0.83238254  1
  Zn  Zn110  1  0.55441757  0.56351891  0.32442044  1
  Zn  Zn111  1  0.54953299  0.56101042  0.82163128  1
  Zn  Zn112  1  0.44557123  0.18977030  0.43900453  1
  Zn  Zn113  1  0.44344320  0.18497856  0.93609676  1
  Zn  Zn114  1  0.36639449  0.62017730  0.24839869  1
  Zn  Zn115  1  0.43297913  0.67646149  0.95125644  1
  Zn  Zn116  1  0.97321483  0.22821878  0.49401671  1
  Zn  Zn117  1  0.94721333  0.17295664  0.94861918  1
  Zn  Zn118  1  0.92728456  0.69171596  0.44336633  1
  Zn  Zn119  1  0.93072569  0.68781127  0.93788268  1
  Zn  Zn120  1  0.06069980  0.29231326  0.07151901  1
  Zn  Zn121  1  -0.02308231  0.27760820  0.68710520  1
  Zn  Zn122  1  0.05903755  0.77721811  0.06736044  1
  Zn  Zn123  1  0.05251716  0.84158635  0.57527402  1
  Zn  Zn124  1  0.58172050  0.26968607  0.07045447  1
  Zn  Zn125  1  0.60631291  0.27622433  0.60321483  1
  Zn  Zn126  1  0.56941507  0.81349124  0.05214203  1
  Zn  Zn127  1  0.56625569  0.78873101  0.57825598  1
  O  O128  1  0.15699188  0.11013793  0.11710949  1
  O  O129  1  0.12219098  0.10080387  0.60900740  1
  O  O130  1  0.08761084  0.67300172  0.12576482  1
  O  O131  1  0.10117140  0.63686811  0.62366114  1
  O  O132  1  0.63412428  0.16908652  0.11888887  1
  O  O133  1  0.61353994  0.11070353  0.62597820  1
  O  O134  1  0.62736603  0.60164233  0.10545853  1
  O  O135  1  0.59605314  0.68544445  0.62023797  1
  O  O136  1  0.37074631  0.38447090  0.37517886  1
  O  O137  1  0.38740567  0.37118040  0.86840859  1
  O  O138  1  0.40113765  0.88754874  0.36921600  1
  O  O139  1  0.40321389  0.86354270  0.88303305  1
  O  O140  1  0.86164385  0.39294937  0.38887106  1
  O  O141  1  0.90401235  0.35969575  0.88956361  1
  O  O142  1  0.85522395  0.88025403  0.38346752  1
  O  O143  1  0.86907713  0.88413611  0.87933007  1
  O  O144  1  0.27774798  0.01205598  0.37466959  1
  O  O145  1  0.24553841  0.00988233  0.85711012  1
  O  O146  1  0.25624341  0.50806950  0.34921312  1
  O  O147  1  0.26253332  0.49093817  0.84448437  1
  O  O148  1  0.70161182  -0.00622041  0.34235611  1
  O  O149  1  0.77418627  0.01069010  0.88708515  1
  O  O150  1  0.74826745  0.50784789  0.38390953  1
  O  O151  1  0.74146223  0.50655704  0.84775847  1
  O  O152  1  0.24341367  0.47998405  0.13323843  1
  O  O153  1  0.25743945  0.48891835  0.63808556  1
  O  O154  1  0.27801059  0.98186967  0.09841782  1
  O  O155  1  0.26902952  0.97733362  0.64003708  1
  O  O156  1  0.72974667  0.49838300  0.15118470  1
  O  O157  1  0.72404300  0.52319876  0.63856997  1
  O  O158  1  0.73797972  1.03449835  0.12936942  1
  O  O159  1  0.73553052  0.98617973  0.63329516  1
  O  O160  1  0.01137619  0.27487726  0.32541393  1
  O  O161  1  0.01428243  0.34523963  0.78085970  1
  O  O162  1  -0.00977852  0.85455494  0.25968974  1
  O  O163  1  0.02169279  0.85707257  0.68937203  1
  O  O164  1  0.51790131  0.35789554  0.25158026  1
  O  O165  1  0.49961046  0.36724918  0.74603306  1
  O  O166  1  0.50430703  0.85412519  0.21692167  1
  O  O167  1  0.49507510  0.86245859  0.76842440  1
  O  O168  1  0.50964049  0.14246070  0.25700006  1
  O  O169  1  0.48941937  0.12878609  0.74476037  1
  O  O170  1  0.52050468  0.61996402  0.22630199  1
  O  O171  1  0.49417423  0.65183741  0.76590276  1
  O  O172  1  1.02141501  0.09889376  0.23252431  1
  O  O173  1  1.01240202  0.11142061  0.73487917  1
  O  O174  1  0.99362976  0.65270529  0.25561002  1
  O  O175  1  0.97779211  0.62722680  0.74207470  1
  O  O176  1  0.38456178  0.25020610  0.00508347  1
  O  O177  1  0.37385684  0.23887651  0.51286098  1
  O  O178  1  0.35947981  0.74065304  0.00389716  1
  O  O179  1  0.21037824  0.74561565  0.32357848  1
  O  O180  1  0.89367639  0.24778397  0.02312992  1
  O  O181  1  0.85511455  0.24155408  0.50586284  1
  O  O182  1  0.86012331  0.74872655  0.00510170  1
  O  O183  1  0.84851352  0.76214389  0.49572456  1
  O  O184  1  0.14095382  0.22574852  0.50168954  1
  O  O185  1  0.12471975  0.21948021  1.00822349  1
  O  O186  1  0.09718627  0.74908670  0.51058442  1
  O  O187  1  0.13446314  0.75587966  0.98436372  1
  O  O188  1  0.62828673  0.23186454  0.50185515  1
  O  O189  1  0.62495523  0.24639394  0.96541955  1
  O  O190  1  0.63827614  0.75942531  0.48429769  1
  O  O191  1  0.62872875  0.73077726  0.99769724  1
  O  O192  1  0.48685637  0.24891110  0.13975609  1
  O  O193  1  0.49304965  0.23219203  0.62957394  1
  O  O194  1  0.51961847  0.72790177  0.11962478  1
  O  O195  1  0.47733376  0.76002309  0.66502553  1
  O  O196  1  0.99992210  0.22034897  0.13853111  1
  O  O197  1  1.00057015  0.20745643  0.60366354  1
  O  O198  1  0.96586532  0.75220934  0.14049706  1
  O  O199  1  0.97916006  0.75028870  0.62337046  1
  O  O200  1  -0.01087977  0.35446926  0.49829963  1
  O  O201  1  0.01172490  0.26168420  0.89662415  1
  O  O202  1  -0.02649649  0.76050548  0.36586339  1
  O  O203  1  0.02151127  0.72488593  0.88232328  1
  O  O204  1  0.51554543  0.24702202  0.36971460  1
  O  O205  1  0.49911091  0.25729387  0.85718911  1
  O  O206  1  0.50558709  0.75907670  0.37986022  1
  O  O207  1  0.49649498  0.74874608  0.87538032  1
  O  O208  1  0.24937262  0.12543962  0.49899468  1
  O  O209  1  0.23946197  0.11177921  0.97578262  1
  O  O210  1  0.22543642  0.65866231  0.49532795  1
  O  O211  1  0.24394056  0.63598165  1.02951119  1
  O  O212  1  0.73672684  0.12837594  0.51746046  1
  O  O213  1  0.76571831  0.16036418  0.99314398  1
  O  O214  1  0.74151144  0.64394342  0.49511809  1
  O  O215  1  0.74071515  0.60915960  0.98543155  1
  O  O216  1  0.22998150  0.37724775  0.01789187  1
  O  O217  1  0.22966336  0.34767298  0.53728621  1
  O  O218  1  0.26414100  0.85562469  -0.04183603  1
  O  O219  1  0.26561964  0.86991529  0.48354429  1
  O  O220  1  0.75684798  0.34157772  -0.01695479  1
  O  O221  1  0.74069127  0.35638445  0.51416189  1
  O  O222  1  0.73123157  0.87315384  0.01827497  1
  O  O223  1  0.74963684  0.86810374  0.50648628  1
  O  O224  1  0.12538660  0.50840892  0.26069082  1
  O  O225  1  0.14454822  0.53031418  0.73451375  1
  O  O226  1  0.16578691  0.97432517  0.28294366  1
  O  O227  1  0.13725572  0.98555910  0.74403341  1
  O  O228  1  0.62332294  0.48007399  0.26519710  1
  O  O229  1  0.60398947  0.49386590  0.74604465  1
  O  O230  1  0.61500577  1.02230437  0.20879344  1
  O  O231  1  0.61922601  0.99886538  0.74364022  1
  O  O232  1  0.40133428  0.01008872  0.26817113  1
  O  O233  1  0.38372018  0.00917710  0.75874495  1
  O  O234  1  0.38475724  0.49687229  0.25991758  1
  O  O235  1  0.37227443  0.49966615  0.75011481  1
  O  O236  1  0.85218580  -0.00553070  0.24106801  1
  O  O237  1  0.89516444  0.00034255  0.77121508  1
  O  O238  1  0.85019254  0.49100767  0.25406132  1
  O  O239  1  0.85513873  0.49344856  0.72154783  1
  O  O240  1  0.08195646  0.39269064  0.40887851  1
  O  O241  1  0.11145229  0.38356756  0.88131811  1
  O  O242  1  0.10529419  0.85993612  0.38468791  1
  O  O243  1  0.11514470  0.86397180  0.86404353  1
  O  O244  1  0.62109957  0.36438370  0.38231387  1
  O  O245  1  0.60895058  0.36647167  0.85365218  1
  O  O246  1  0.60453326  0.86287193  0.37900603  1
  O  O247  1  0.69522486  0.86646610  0.93977680  1
  O  O248  1  0.35823250  0.14174278  0.12373611  1
  O  O249  1  0.38844589  0.11807548  0.63159392  1
  O  O250  1  0.40256231  0.59697088  0.11940126  1
  O  O251  1  0.40682299  0.64189472  0.56695302  1
  O  O252  1  0.88569963  0.12679098  0.13734005  1
  O  O253  1  0.89159682  0.10350105  0.64405579  1
  O  O254  1  0.87612886  0.64151625  0.13272090  1
  O  O255  1  0.87322682  0.63327036  0.63996849  1
  O  O256  1  0.27356522  0.27109066  0.13407785  1
  O  O257  1  0.26776132  0.23481484  0.61898936  1
  O  O258  1  0.22911459  0.77179678  0.10277721  1
  O  O259  1  0.25689951  0.76820055  0.61641620  1
  O  O260  1  0.78427733  0.25773181  0.13121495  1
  O  O261  1  0.73140720  0.24329560  0.62644291  1
  O  O262  1  0.74955209  0.73122029  0.12694860  1
  O  O263  1  0.73928716  0.76224436  0.61929515  1
  O  O264  1  0.26328567  0.24000409  0.39658968  1
  O  O265  1  0.24420727  0.22572957  0.85366273  1
  O  O266  1  0.25279799  0.79077610  0.28578995  1
  O  O267  1  0.23383134  0.73527485  0.88751030  1
  O  O268  1  0.73649075  0.24933927  0.39887793  1
  O  O269  1  0.73583761  0.26799108  0.84385371  1
  O  O270  1  0.73581510  0.73764057  0.36956774  1
  O  O271  1  0.73471031  0.71785165  0.86543777  1
  O  O272  1  0.01851329  0.10991307  0.02407214  1
  O  O273  1  0.02400351  0.10973107  0.49012774  1
  O  O274  1  -0.01940979  0.62093137  0.01951630  1
  O  O275  1  -0.01564691  0.63028160  0.52075233  1
  O  O276  1  0.51878258  0.10553788  -0.05751599  1
  O  O277  1  0.51060430  0.12267383  0.51759022  1
  O  O278  1  0.51668443  0.61742993  0.00828742  1
  O  O279  1  0.43506559  0.69268128  0.52333680  1
  O  O280  1  0.53647894  0.47007619  0.53728099  1
  O  O281  1  0.50889763  0.35990451  0.98288062  1
  O  O282  1  0.50063786  0.85932560  0.50884293  1
  O  O283  1  0.51276551  0.90446565  1.03246782  1
  O  O284  1  1.06347753  0.38166633  0.48068342  1
  O  O285  1  1.01885723  0.37443541  0.98830197  1
  O  O286  1  0.97285149  0.86995415  0.48565721  1
  O  O287  1  1.01521819  0.88115062  1.02255973  1
  O  O288  1  0.49238928  0.49082288  0.38466968  1
  O  O289  1  0.48603169  0.48107692  0.87385845  1
  O  O290  1  0.50853992  0.98668833  0.38782516  1
  O  O291  1  0.55702041  0.97568007  0.89545085  1
  O  O292  1  0.96405495  0.51213978  0.37910506  1
  O  O293  1  0.98918072  0.46761823  0.86618742  1
  O  O294  1  1.00068376  0.97414577  0.36000114  1
  O  O295  1  0.99632689  0.98647438  0.89509325  1
  O  O296  1  -0.01337504  -0.00083225  0.11703985  1
  O  O297  1  -0.00233469  0.00043938  0.61253704  1
  O  O298  1  0.00080886  0.53082465  0.15243922  1
  O  O299  1  0.00789919  0.51398140  0.62817976  1
  O  O300  1  0.51249386  0.05598845  0.09659418  1
  O  O301  1  0.50796164  0.00289174  0.63247352  1
  O  O302  1  0.52443561  0.49464219  0.12575898  1
  O  O303  1  0.49525296  0.50874404  0.59204741  1
  O  O304  1  0.24377467  0.38747067  0.24263483  1
  O  O305  1  0.25002653  0.35820244  0.73068738  1
  O  O306  1  0.31844149  0.87740393  0.17018955  1
  O  O307  1  0.25996997  0.88043792  0.76794117  1
  O  O308  1  0.73406075  0.38306784  0.26858930  1
  O  O309  1  0.72630310  0.39059590  0.73653116  1
  O  O310  1  0.72013837  0.90599546  0.25341169  1
  O  O311  1  0.75252372  0.86331197  0.74412015  1
  O  O312  1  0.25644500  0.14013758  0.27392231  1
  O  O313  1  0.26123623  0.10682199  0.74837703  1
  O  O314  1  0.25400918  0.60353622  0.22049582  1
  O  O315  1  0.27166224  0.62403281  0.72324341  1
  O  O316  1  0.74764752  0.11485830  0.26695620  1
  O  O317  1  0.77642374  0.11129968  0.74888781  1
  O  O318  1  0.73042059  0.60431424  0.27203085  1
  O  O319  1  0.75481447  0.61961525  0.75228826  1
  O  O320  1  0.37711952  0.11806877  0.38201230  1
  O  O321  1  0.36746582  0.13126768  0.85874783  1
  O  O322  1  0.38314378  0.60762644  0.36168410  1
  O  O323  1  0.38558201  0.60042188  0.88015945  1
  O  O324  1  1.00764346  0.21299164  0.37898662  1
  O  O325  1  0.89986645  0.11669716  0.86326555  1
  O  O326  1  0.84923395  0.61615605  0.38638250  1
  O  O327  1  0.85987589  0.62052707  0.86349505  1
  O  O328  1  0.12665202  0.35703432  0.13529346  1
  O  O329  1  0.11910561  0.40476555  0.63964864  1
  O  O330  1  0.14361778  0.92730232  0.15917791  1
  O  O331  1  0.15469788  0.88725991  0.59834496  1
  O  O332  1  0.62778467  0.36930277  0.13376975  1
  O  O333  1  0.60548246  0.38448519  0.63076230  1
  O  O334  1  0.68196395  0.86728325  0.07562189  1
  O  O335  1  0.62923799  0.88212667  0.62867471  1
  O  O336  1  0.07872823  0.29193285  0.29853122  1
  O  O337  1  0.13053841  0.25989071  0.68759272  1
  O  O338  1  0.14093328  0.91316472  0.23241841  1
  O  O339  1  0.13470841  0.71557197  0.77818326  1
  O  O340  1  0.63335385  0.26048362  0.27031045  1
  O  O341  1  0.60839806  0.26504787  0.73706662  1
  O  O342  1  0.61103281  0.74090828  0.26494385  1
  O  O343  1  0.59501910  0.75460146  0.76357321  1
  O  O344  1  0.39021792  0.25413722  0.26086066  1
  O  O345  1  0.38134477  0.23661423  0.73371506  1
  O  O346  1  0.40924025  0.73064217  0.24297922  1
  O  O347  1  0.38444512  0.75515673  0.77722886  1
  O  O348  1  0.87220987  0.24382582  0.25954563  1
  O  O349  1  0.88462216  0.22691833  0.74684550  1
  O  O350  1  0.85470849  0.74906355  0.25416671  1
  O  O351  1  0.86670088  0.74497040  0.76135141  1
  O  O352  1  0.34535040  0.50769184  0.47348016  1
  O  O353  1  0.34937924  0.48587144  0.97671075  1
  O  O354  1  0.38674855  1.00164145  0.48610576  1
  O  O355  1  0.40586319  1.00716412  0.98008931  1
  O  O356  1  0.86487056  0.49877549  0.51319237  1
  O  O357  1  0.85626580  0.47484792  1.05441922  1
  O  O358  1  0.85544227  0.98910061  0.49716757  1
  O  O359  1  0.89332018  1.00611972  0.99181971  1
  O  O360  1  0.11551722  0.00394877  -0.00500149  1
  O  O361  1  0.13877413  -0.00290911  0.48587849  1
  O  O362  1  0.13471349  0.53567540  -0.03945122  1
  O  O363  1  0.14591703  0.52420129  0.53359325  1
  O  O364  1  0.63284055  0.02107564  0.02154549  1
  O  O365  1  0.63140293  0.00747635  0.51263066  1
  O  O366  1  0.64488659  0.47116744  0.00907053  1
  O  O367  1  0.60276050  0.50757305  0.51458904  1
  O  O368  1  0.38572637  0.36712214  0.11613612  1
  O  O369  1  0.38539238  0.35444409  0.61869420  1
  O  O370  1  0.33038499  0.92358844  0.10700553  1
  O  O371  1  0.36319141  0.88273035  0.61972235  1
  O  O372  1  0.92295186  0.34984430  0.15538824  1
  O  O373  1  0.89720432  0.35056935  0.64980157  1
  O  O374  1  0.85441390  0.85519828  0.12905974  1
  O  O375  1  0.85453670  0.88230055  0.61742257  1
  O  O376  1  0.15145368  0.11239133  0.38467028  1
  O  O377  1  0.12768469  0.11890760  0.86703602  1
  O  O378  1  0.09691482  0.62468471  0.40613800  1
  O  O379  1  0.09676176  0.57913690  0.91285925  1
  O  O380  1  0.62074945  0.12613463  0.39800169  1
  O  O381  1  0.63770233  0.14916907  0.82625646  1
  O  O382  1  0.62295950  0.63621536  0.38530503  1
  O  O383  1  0.62768711  0.60522688  0.89222743  1
