# generated using pymatgen
data_VZnO4
_symmetry_space_group_name_H-M   'P 1'
_cell_length_a   16.87056235
_cell_length_b   16.93054064
_cell_length_c   16.91216401
_cell_angle_alpha   89.77975846
_cell_angle_beta   90.00011650
_cell_angle_gamma   89.86827882
_symmetry_Int_Tables_number   1
_chemical_formula_structural   VZnO4
_chemical_formula_sum   'V64 Zn64 O256'
_cell_volume   4830.53475486
_cell_formula_units_Z   64
loop_
 _symmetry_equiv_pos_site_id
 _symmetry_equiv_pos_as_xyz
  1  'x, y, z'
loop_
 _atom_site_type_symbol
 _atom_site_label
 _atom_site_symmetry_multiplicity
 _atom_site_fract_x
 _atom_site_fract_y
 _atom_site_fract_z
 _atom_site_occupancy
  V  V0  1  0.12652664  0.26517588  0.86943599  1
  V  V1  1  0.13018141  0.11825519  0.00049538  1
  V  V2  1  0.00947446  0.87427286  0.86562637  1
  V  V3  1  0.35749261  0.60691990  0.23931837  1
  V  V4  1  0.60749861  -0.00130849  0.11130498  1
  V  V5  1  0.49845841  0.74486949  0.22666280  1
  V  V6  1  0.87901829  0.01494383  0.36797882  1
  V  V7  1  0.37812059  0.11374413  0.23241458  1
  V  V8  1  0.13470367  -0.00525351  0.64615673  1
  V  V9  1  0.86782727  0.23525326  0.13685910  1
  V  V10  1  0.61574382  0.61730260  0.00626835  1
  V  V11  1  0.86677728  0.01378114  0.86861511  1
  V  V12  1  0.71649209  0.75546960  0.49808415  1
  V  V13  1  -0.00210433  0.11997841  0.63253048  1
  V  V14  1  0.49876787  0.25321609  0.76489157  1
  V  V15  1  0.47273904  0.00758554  0.47615109  1
  V  V16  1  0.87083133  0.88060377  0.48767906  1
  V  V17  1  0.62464260  0.75617273  0.86004384  1
  V  V18  1  0.26241187  0.11745570  0.38148315  1
  V  V19  1  0.62348707  0.36669794  0.75977594  1
  V  V20  1  0.48750894  0.75864558  0.75139180  1
  V  V21  1  0.00132166  0.12726538  0.13285983  1
  V  V22  1  0.85298420  0.77718416  0.63516107  1
  V  V23  1  0.24756903  0.26866227  0.00987481  1
  V  V24  1  0.00649707  0.75364323  0.74428390  1
  V  V25  1  -0.00711511  0.49412323  0.01376510  1
  V  V26  1  0.24271134  0.37650465  0.64941441  1
  V  V27  1  0.75267708  0.74941015  0.00637962  1
  V  V28  1  0.86485938  0.36188853  0.00470883  1
  V  V29  1  0.87314935  0.63288522  0.73798181  1
  V  V30  1  0.51002073  0.24259379  0.25855079  1
  V  V31  1  0.37994817  0.24448409  0.62277715  1
  V  V32  1  0.87149649  0.63068231  0.26424053  1
  V  V33  1  0.51417231  0.11656513  0.63185397  1
  V  V34  1  0.12274327  0.11057222  0.50154860  1
  V  V35  1  0.73986330  0.22941104  -0.02129923  1
  V  V36  1  0.37707160  0.87636168  -0.01256040  1
  V  V37  1  0.87870937  0.48382150  0.86724532  1
  V  V38  1  0.23632663  0.00044746  0.23797274  1
  V  V39  1  -0.00076883  0.00188704  -0.00084764  1
  V  V40  1  0.23746159  0.53070854  0.76295550  1
  V  V41  1  0.74291565  0.37643066  0.61575408  1
  V  V42  1  0.63936643  0.86305255  0.24641158  1
  V  V43  1  0.38702609  0.49283158  0.86896256  1
  V  V44  1  0.87295031  0.86576368  0.00151015  1
  V  V45  1  0.75014658  0.24190973  0.48766079  1
  V  V46  1  0.25778947  0.11716607  0.86608480  1
  V  V47  1  -0.00925066  0.50514218  0.50740509  1
  V  V48  1  0.49570259  0.38002184  0.38493607  1
  V  V49  1  0.74070892  0.49928756  0.74203831  1
  V  V50  1  0.50638104  0.46269799  0.00128061  1
  V  V51  1  0.23860735  0.73509479  -0.02495854  1
  V  V52  1  0.25058055  0.26221972  0.50014650  1
  V  V53  1  0.38082484  0.26283543  0.12553929  1
  V  V54  1  0.73986101  -0.00166356  0.74522638  1
  V  V55  1  0.75484400  0.62632023  0.87115754  1
  V  V56  1  0.24196376  0.86635789  0.12245296  1
  V  V57  1  0.88099943  0.25798984  0.62102382  1
  V  V58  1  0.00087835  0.26590925  0.75375722  1
  V  V59  1  0.11459162  0.25523691  0.36645334  1
  V  V60  1  0.63811203  0.39613674  0.25125208  1
  V  V61  1  0.75463028  0.01633222  0.24115004  1
  V  V62  1  0.28637818  0.87940979  0.62702461  1
  V  V63  1  0.39926863  0.71490648  0.58140951  1
  Zn  Zn64  1  0.18893734  0.18627783  0.18743225  1
  Zn  Zn65  1  0.18627839  0.18799626  0.68887685  1
  Zn  Zn66  1  0.24599156  0.65122867  0.12746904  1
  Zn  Zn67  1  0.20727583  0.72426105  0.68356530  1
  Zn  Zn68  1  0.68445305  0.18021534  0.16741015  1
  Zn  Zn69  1  0.69730618  0.18329136  0.68128582  1
  Zn  Zn70  1  0.68438846  0.68152822  0.18345335  1
  Zn  Zn71  1  0.68067433  0.68369446  0.66887184  1
  Zn  Zn72  1  0.31510254  0.30764935  0.31131547  1
  Zn  Zn73  1  0.31685102  0.30623778  0.82183032  1
  Zn  Zn74  1  0.30278229  0.79018346  0.26028891  1
  Zn  Zn75  1  0.30453792  0.80692371  0.80995210  1
  Zn  Zn76  1  0.83166871  0.32394785  0.30917054  1
  Zn  Zn77  1  0.80750838  0.29800344  0.80429035  1
  Zn  Zn78  1  0.79356152  0.80630673  0.32736122  1
  Zn  Zn79  1  0.81260512  0.82229416  0.82094542  1
  Zn  Zn80  1  0.18167799  0.43523164  0.30609872  1
  Zn  Zn81  1  0.18240316  0.45444064  0.93663249  1
  Zn  Zn82  1  0.28533113  0.93799903  0.44017039  1
  Zn  Zn83  1  0.19679229  0.93324734  0.93445838  1
  Zn  Zn84  1  0.70477931  0.41376072  0.40409202  1
  Zn  Zn85  1  0.69076295  0.43574936  0.93664098  1
  Zn  Zn86  1  0.69312805  0.92755534  0.41949289  1
  Zn  Zn87  1  0.68405039  0.93811899  0.92886011  1
  Zn  Zn88  1  0.31778608  0.05680740  0.05502841  1
  Zn  Zn89  1  0.31739233  0.06154918  0.57943738  1
  Zn  Zn90  1  0.35590667  0.58243518  0.02211964  1
  Zn  Zn91  1  0.26243146  0.58519867  0.59363661  1
  Zn  Zn92  1  0.80919547  0.05914337  0.05827681  1
  Zn  Zn93  1  0.81325982  0.06020539  0.56297769  1
  Zn  Zn94  1  0.83996612  0.57699175  0.05195743  1
  Zn  Zn95  1  0.75923610  0.55285414  0.52977056  1
  Zn  Zn96  1  0.44914676  0.42916093  0.18283279  1
  Zn  Zn97  1  0.41920875  0.42364209  0.70196524  1
  Zn  Zn98  1  0.43190982  0.92447482  0.17618780  1
  Zn  Zn99  1  0.56604857  0.93334989  0.71170297  1
  Zn  Zn100  1  0.88248949  0.44398039  0.18038118  1
  Zn  Zn101  1  0.93150022  0.43669013  0.69229264  1
  Zn  Zn102  1  0.92872212  0.94448671  0.17946672  1
  Zn  Zn103  1  0.93246283  0.94535057  0.69231993  1
  Zn  Zn104  1  0.06104099  0.05869624  0.32077830  1
  Zn  Zn105  1  0.06227831  0.07183802  0.81759138  1
  Zn  Zn106  1  0.05243304  0.57520538  0.32885440  1
  Zn  Zn107  1  0.05996046  0.57802229  0.82593108  1
  Zn  Zn108  1  0.55537947  0.04281586  0.28965259  1
  Zn  Zn109  1  0.61509918  0.10755525  0.80697816  1
  Zn  Zn110  1  0.52543306  0.54984419  0.28986279  1
  Zn  Zn111  1  0.56666498  0.56063193  0.82183350  1
  Zn  Zn112  1  0.44188150  0.18783083  0.44370578  1
  Zn  Zn113  1  0.43163772  0.19915392  0.94007644  1
  Zn  Zn114  1  0.45218031  0.66868420  0.39702490  1
  Zn  Zn115  1  0.43178838  0.69646952  0.93234813  1
  Zn  Zn116  1  0.93800509  0.18687033  0.44178061  1
  Zn  Zn117  1  0.94324581  0.18849546  0.93418853  1
  Zn  Zn118  1  0.90814502  0.68893871  0.46342451  1
  Zn  Zn119  1  0.95439767  0.68040077  0.93548942  1
  Zn  Zn120  1  0.04595254  0.30767529  0.04920981  1
  Zn  Zn121  1  0.07031747  0.31077278  0.55826962  1
  Zn  Zn122  1  0.07349873  0.82614067  0.05439782  1
  Zn  Zn123  1  0.04571242  0.83077842  0.57450704  1
  Zn  Zn124  1  0.57774590  0.30690909  0.07565838  1
  Zn  Zn125  1  0.57208506  0.30270264  0.55836096  1
  Zn  Zn126  1  0.56531713  0.81449213  0.06029600  1
  Zn  Zn127  1  0.54864037  0.82919344  0.56682428  1
  O  O128  1  0.11352029  0.13515374  0.10867544  1
  O  O129  1  0.12463406  0.11738617  0.61962760  1
  O  O130  1  0.10795391  0.62384400  0.14215733  1
  O  O131  1  0.17894649  0.65861309  0.59651710  1
  O  O132  1  0.62746222  0.09846882  0.11397576  1
  O  O133  1  0.61168076  0.13590774  0.61850216  1
  O  O134  1  0.64023471  0.61606969  0.10342696  1
  O  O135  1  0.57899191  0.62016156  0.66517122  1
  O  O136  1  0.39623813  0.35671504  0.37126915  1
  O  O137  1  0.37213619  0.39033822  0.87229656  1
  O  O138  1  0.34513750  0.85430902  0.36529216  1
  O  O139  1  0.35641351  0.87173600  0.88594282  1
  O  O140  1  0.91390297  0.39089315  0.27272803  1
  O  O141  1  0.86999524  0.38389652  0.85655210  1
  O  O142  1  0.87025632  0.86612356  0.38635762  1
  O  O143  1  0.88654131  0.88913220  0.88254380  1
  O  O144  1  0.25137484  0.01239927  0.36183674  1
  O  O145  1  0.24343983  0.01763898  0.87618778  1
  O  O146  1  0.30575924  0.49476540  0.43076165  1
  O  O147  1  0.25781365  0.50254972  0.86558481  1
  O  O148  1  0.76349524  -0.00810963  0.35204196  1
  O  O149  1  0.76374335  0.00297191  0.87821056  1
  O  O150  1  0.74752374  0.51294999  0.42745214  1
  O  O151  1  0.75860760  0.50626328  0.86148653  1
  O  O152  1  0.09488360  0.56377998  0.18263884  1
  O  O153  1  0.25354714  0.48578636  0.65567453  1
  O  O154  1  0.24721574  1.00847278  0.13591634  1
  O  O155  1  0.24205345  0.99281652  0.63632792  1
  O  O156  1  0.80253853  0.50655526  0.13041916  1
  O  O157  1  0.75508821  0.48533274  0.62842332  1
  O  O158  1  0.75725620  0.99587435  0.13764746  1
  O  O159  1  0.75163483  1.01256035  0.64524948  1
  O  O160  1  0.09108850  0.39155837  0.19741611  1
  O  O161  1  0.00374594  0.36501115  0.74497336  1
  O  O162  1  0.00755344  0.85481415  0.21844141  1
  O  O163  1  -0.00437397  0.87136673  0.75816510  1
  O  O164  1  0.50987928  0.35405086  0.25516734  1
  O  O165  1  0.51440059  0.36614818  0.74025238  1
  O  O166  1  0.49380938  0.84792777  0.24189299  1
  O  O167  1  0.49288008  0.85711901  0.76056255  1
  O  O168  1  0.48282099  0.12739394  0.25056780  1
  O  O169  1  0.51735508  0.14814722  0.74572768  1
  O  O170  1  0.51971564  0.66379914  0.30028778  1
  O  O171  1  0.53031346  0.62832660  0.72772513  1
  O  O172  1  1.00885617  0.11619052  0.23016601  1
  O  O173  1  1.01168465  0.14162638  0.73536892  1
  O  O174  1  0.97699050  0.62364801  0.26100110  1
  O  O175  1  0.98031326  0.64148941  0.75347961  1
  O  O176  1  0.36082955  0.25092912  0.01398756  1
  O  O177  1  0.36345263  0.24047340  0.51350878  1
  O  O178  1  0.34912584  0.75351589  -0.00865449  1
  O  O179  1  0.42254356  0.73446071  0.48439174  1
  O  O180  1  0.86685626  0.25613037  -0.01469728  1
  O  O181  1  0.88305872  0.25623789  0.51836401  1
  O  O182  1  0.87122892  0.75776297  -0.01226595  1
  O  O183  1  0.85411212  0.76340072  0.52338991  1
  O  O184  1  0.13983555  0.23966403  0.49735938  1
  O  O185  1  0.12997558  0.24590572  0.99256519  1
  O  O186  1  0.13161855  0.80410729  0.47807531  1
  O  O187  1  0.14227103  0.75028897  1.01247042  1
  O  O188  1  0.64925339  0.24628528  0.49380173  1
  O  O189  1  0.64359124  0.24482867  1.00757609  1
  O  O190  1  0.61675537  0.76934221  0.49686325  1
  O  O191  1  0.64022069  0.73904937  0.99030544  1
  O  O192  1  0.48575927  0.25160193  0.13109446  1
  O  O193  1  0.48834143  0.24518895  0.62208642  1
  O  O194  1  0.51570905  0.72942581  0.13042221  1
  O  O195  1  0.48517649  0.75276884  0.63718072  1
  O  O196  1  0.98595803  0.23593716  0.11807321  1
  O  O197  1  0.99725968  0.25182769  0.63228151  1
  O  O198  1  1.02067896  0.79819467  0.17014968  1
  O  O199  1  0.97982240  0.76276075  0.64085411  1
  O  O200  1  0.01442338  0.24517427  0.38362821  1
  O  O201  1  0.01282855  0.24923501  0.86352286  1
  O  O202  1  0.00533023  0.73318235  0.41017081  1
  O  O203  1  -0.01003164  0.76867758  0.86068672  1
  O  O204  1  0.50221418  0.23799229  0.36113665  1
  O  O205  1  0.49709229  0.25360616  0.86373580  1
  O  O206  1  0.41840504  0.84605258  0.38372388  1
  O  O207  1  0.51748961  0.72921151  0.86010946  1
  O  O208  1  0.24526164  0.12049363  0.49204093  1
  O  O209  1  0.23630378  0.12919214  0.99942518  1
  O  O210  1  0.27262602  0.55159717  0.46229619  1
  O  O211  1  0.24540207  0.63426550  1.01280438  1
  O  O212  1  0.77043060  0.14371517  0.49987110  1
  O  O213  1  0.75458730  0.12949222  0.98858259  1
  O  O214  1  0.72220257  0.65911699  0.55126874  1
  O  O215  1  0.75852749  0.63520896  0.98858727  1
  O  O216  1  0.23833882  0.36631813  0.00241178  1
  O  O217  1  0.25234760  0.35866273  0.50320858  1
  O  O218  1  0.25158280  0.86021569  0.00580483  1
  O  O219  1  0.25714178  0.87770842  0.52703195  1
  O  O220  1  0.76012920  0.36159939  -0.01121941  1
  O  O221  1  0.74838657  0.36779755  0.51459262  1
  O  O222  1  0.76346291  0.85965256  -0.01306096  1
  O  O223  1  0.74979813  0.86502471  0.49762462  1
  O  O224  1  0.14826559  0.53198426  0.33979529  1
  O  O225  1  0.13615935  0.52220123  0.76628305  1
  O  O226  1  0.13760384  1.00661568  0.25254387  1
  O  O227  1  0.12289230  1.00732914  0.74436254  1
  O  O228  1  0.61424619  0.49455546  0.24422426  1
  O  O229  1  0.63579318  0.48950473  0.75149241  1
  O  O230  1  0.63930888  0.99060200  0.23483076  1
  O  O231  1  0.63333251  0.99603999  0.77727482  1
  O  O232  1  0.36971070  0.01180635  0.24184721  1
  O  O233  1  0.41555437  -0.00379154  0.81883806  1
  O  O234  1  0.41953687  0.52138595  0.23995107  1
  O  O235  1  0.37459840  0.50758240  0.76390689  1
  O  O236  1  0.86711968  -0.00077469  0.25483700  1
  O  O237  1  0.86504186  0.00615827  0.76277101  1
  O  O238  1  0.86011412  0.52711883  0.27116893  1
  O  O239  1  0.86740631  0.51377455  0.75040730  1
  O  O240  1  0.12997976  0.35472190  0.37342013  1
  O  O241  1  0.12892009  0.36254394  0.87987565  1
  O  O242  1  0.12725263  0.85215398  0.42258878  1
  O  O243  1  0.10840985  0.88238503  0.87797543  1
  O  O244  1  0.61008400  0.36815688  0.35738066  1
  O  O245  1  0.63061492  0.37431405  0.85784536  1
  O  O246  1  0.61743298  0.88488300  0.34545295  1
  O  O247  1  0.62457355  0.85371258  0.87792676  1
  O  O248  1  0.36902793  0.13105066  0.13059012  1
  O  O249  1  0.38213745  0.13844761  0.63579937  1
  O  O250  1  0.36549947  0.62130901  0.12745238  1
  O  O251  1  0.37298653  0.61811554  0.59261440  1
  O  O252  1  0.88961133  0.12808251  0.11530927  1
  O  O253  1  0.89362548  0.13560517  0.62125638  1
  O  O254  1  0.87895643  0.63767630  0.15996555  1
  O  O255  1  0.86393701  0.64820194  0.63982168  1
  O  O256  1  0.25280078  0.24869178  0.11403034  1
  O  O257  1  0.25675493  0.24967231  0.61719236  1
  O  O258  1  0.23881648  0.76682002  0.15131429  1
  O  O259  1  0.31442833  0.76487507  0.60693281  1
  O  O260  1  0.76750143  0.23095154  0.10558936  1
  O  O261  1  0.76510892  0.25512796  0.62067068  1
  O  O262  1  0.75067129  0.74534456  0.10454066  1
  O  O263  1  0.75319251  0.77291017  0.64417001  1
  O  O264  1  0.24599600  0.23589002  0.38770593  1
  O  O265  1  0.24081190  0.24518136  0.89031134  1
  O  O266  1  0.20027058  0.73578448  0.31792394  1
  O  O267  1  0.23164203  0.73999342  0.87581047  1
  O  O268  1  0.78180686  0.27146131  0.39535662  1
  O  O269  1  0.74259488  0.24435632  0.87744642  1
  O  O270  1  0.73909519  0.73639598  0.40174961  1
  O  O271  1  0.74212155  0.74221770  0.87360895  1
  O  O272  1  0.01171393  0.11926784  -0.00037274  1
  O  O273  1  0.01726569  0.13351952  0.51738139  1
  O  O274  1  -0.05035952  0.59471304  0.01395509  1
  O  O275  1  -0.03140265  0.60765074  0.51820304  1
  O  O276  1  0.52031085  0.11251882  -0.04030929  1
  O  O277  1  0.49097380  0.10757669  0.51724168  1
  O  O278  1  0.51737730  0.63283090  -0.00072015  1
  O  O279  1  0.53167765  0.62394288  0.48569100  1
  O  O280  1  0.50955360  0.35779664  0.48360350  1
  O  O281  1  0.52086798  0.36433705  0.99154313  1
  O  O282  1  0.52160202  0.92857326  0.51328269  1
  O  O283  1  0.47564250  0.85038795  0.99961582  1
  O  O284  1  1.01042121  0.40242644  0.50540520  1
  O  O285  1  0.97596840  0.37834972  0.99036136  1
  O  O286  1  0.97070564  0.87129358  0.50166789  1
  O  O287  1  0.99374987  0.88035365  0.98907209  1
  O  O288  1  0.49751507  0.48124646  0.38050608  1
  O  O289  1  0.49566808  0.49415991  0.87811233  1
  O  O290  1  0.49042073  1.01433733  0.37778672  1
  O  O291  1  0.47134266  1.00390137  0.86369027  1
  O  O292  1  0.98509787  0.50474569  0.40174890  1
  O  O293  1  0.97848638  0.50194406  0.87184792  1
  O  O294  1  0.97924333  0.99306857  0.36420036  1
  O  O295  1  0.99313213  0.99537472  0.87975676  1
  O  O296  1  -0.00583932  0.01221179  0.10806718  1
  O  O297  1  0.00633179  0.01655378  0.63483934  1
  O  O298  1  -0.02259230  0.47719560  0.11176750  1
  O  O299  1  -0.00328406  0.49285572  0.61217713  1
  O  O300  1  0.50749311  -0.00246671  0.13308754  1
  O  O301  1  0.50738443  0.02070609  0.65522043  1
  O  O302  1  0.51483351  0.47660597  0.10048299  1
  O  O303  1  0.47958977  0.48324560  0.60274182  1
  O  O304  1  0.25313997  0.37733869  0.25152294  1
  O  O305  1  0.24425402  0.36059209  0.74833308  1
  O  O306  1  0.25457895  0.89358064  0.23694109  1
  O  O307  1  0.24399307  0.83204832  0.71654130  1
  O  O308  1  0.73833032  0.39407860  0.28376106  1
  O  O309  1  0.74101344  0.37833910  0.73993504  1
  O  O310  1  0.74261821  0.86515183  0.24542093  1
  O  O311  1  0.75348173  0.89800629  0.75957829  1
  O  O312  1  0.25977012  0.11861990  0.25815709  1
  O  O313  1  0.25004773  0.13706944  0.76738131  1
  O  O314  1  0.25694489  0.59197037  0.22937045  1
  O  O315  1  0.25318210  0.62745827  0.74609779  1
  O  O316  1  0.74566276  0.11442096  0.24640006  1
  O  O317  1  0.72419900  0.11511202  0.76666012  1
  O  O318  1  0.76647725  0.63543603  0.25462866  1
  O  O319  1  0.75324870  0.61768317  0.75000073  1
  O  O320  1  0.36274260  0.13063775  0.37081691  1
  O  O321  1  0.35599483  0.13264199  0.88849906  1
  O  O322  1  0.36134940  0.62625830  0.34231121  1
  O  O323  1  0.37599835  0.59728324  0.90577298  1
  O  O324  1  0.87897512  0.11371759  0.37801813  1
  O  O325  1  0.88477446  0.11145746  0.87686958  1
  O  O326  1  0.87306524  0.63488704  0.37021455  1
  O  O327  1  0.86377704  0.62216002  0.86266166  1
  O  O328  1  0.11741156  0.37530471  0.13014638  1
  O  O329  1  0.14597510  0.36455948  0.62371835  1
  O  O330  1  0.14426278  0.89471960  0.11188077  1
  O  O331  1  0.11649357  0.89681889  0.62910961  1
  O  O332  1  0.63998926  0.35559452  0.15714750  1
  O  O333  1  0.63950834  0.36742597  0.63094438  1
  O  O334  1  0.61976805  0.88162310  0.13760130  1
  O  O335  1  0.62141354  0.86666103  0.64352842  1
  O  O336  1  0.12837181  0.23470348  0.26802173  1
  O  O337  1  0.11901386  0.25138030  0.76238294  1
  O  O338  1  0.14029896  0.76695254  0.28676731  1
  O  O339  1  0.10335562  0.74253279  0.73992468  1
  O  O340  1  0.60671072  0.22317292  0.24178337  1
  O  O341  1  0.61938794  0.26153911  0.74683057  1
  O  O342  1  0.62291968  0.75799148  0.24094318  1
  O  O343  1  0.62350477  0.74803361  0.75720642  1
  O  O344  1  0.37864395  0.23561182  0.23794356  1
  O  O345  1  0.39253099  0.25603937  0.74355541  1
  O  O346  1  0.39076257  0.72530606  0.23514085  1
  O  O347  1  0.39181759  0.73620325  0.76894419  1
  O  O348  1  0.86233810  0.23803093  0.23446075  1
  O  O349  1  0.89277006  0.24937802  0.74099393  1
  O  O350  1  0.87161065  0.73646979  0.27083368  1
  O  O351  1  0.87137004  0.74873206  0.74755729  1
  O  O352  1  0.44052723  0.49040610  0.54130418  1
  O  O353  1  0.40070846  0.47769242  0.99532563  1
  O  O354  1  0.36961910  1.00070276  0.49323539  1
  O  O355  1  0.37270866  0.98015475  0.99649215  1
  O  O356  1  0.88366035  0.49481003  0.51202661  1
  O  O357  1  0.86706148  0.47565878  0.97850516  1
  O  O358  1  0.85892356  0.98918125  0.48209909  1
  O  O359  1  0.88243404  0.99094076  0.98984813  1
  O  O360  1  0.11768175  0.01364252  -0.00780371  1
  O  O361  1  0.12592593  0.01256572  0.51469712  1
  O  O362  1  0.09374727  0.49469656  -0.00265405  1
  O  O363  1  0.08988336  0.53524730  0.50117177  1
  O  O364  1  0.62065565  -0.02553522  0.01298457  1
  O  O365  1  0.64263659  0.05093883  0.45172060  1
  O  O366  1  0.61549918  0.50950038  -0.01733418  1
  O  O367  1  0.61448616  0.53093348  0.52824968  1
  O  O368  1  0.37001800  0.36055224  0.13453741  1
  O  O369  1  0.35788898  0.35572740  0.63125243  1
  O  O370  1  0.35249796  0.87821095  0.11030018  1
  O  O371  1  0.37724923  0.90928407  0.63873052  1
  O  O372  1  0.86975419  0.34873420  0.10902446  1
  O  O373  1  0.86387107  0.36303590  0.63435399  1
  O  O374  1  0.88116883  0.87595442  0.10025241  1
  O  O375  1  0.86951380  0.87897686  0.62192341  1
  O  O376  1  0.13048352  0.12449618  0.39103704  1
  O  O377  1  0.13159726  0.13776226  0.88717328  1
  O  O378  1  0.05821429  0.68205222  0.38874005  1
  O  O379  1  0.06213490  0.64847942  0.91040583  1
  O  O380  1  0.63699622  0.09887182  0.39520423  1
  O  O381  1  0.58808646  0.11788722  0.92628934  1
  O  O382  1  0.58375516  0.56775439  0.46833679  1
  O  O383  1  0.64082921  0.62949077  0.88215706  1
