# generated using pymatgen
data_VZnO4
_symmetry_space_group_name_H-M   'P 1'
_cell_length_a   16.90120818
_cell_length_b   16.91465119
_cell_length_c   16.87480105
_cell_angle_alpha   89.99349755
_cell_angle_beta   89.81955421
_cell_angle_gamma   90.12470188
_symmetry_Int_Tables_number   1
_chemical_formula_structural   VZnO4
_chemical_formula_sum   'V64 Zn64 O256'
_cell_volume   4824.09968123
_cell_formula_units_Z   64
loop_
 _symmetry_equiv_pos_site_id
 _symmetry_equiv_pos_as_xyz
  1  'x, y, z'
loop_
 _atom_site_type_symbol
 _atom_site_label
 _atom_site_symmetry_multiplicity
 _atom_site_fract_x
 _atom_site_fract_y
 _atom_site_fract_z
 _atom_site_occupancy
  V  V0  1  0.76201109  -0.00046973  0.26061852  1
  V  V1  1  0.62968123  0.11785416  -0.00291004  1
  V  V2  1  0.37875733  0.25144711  0.15560124  1
  V  V3  1  0.86344054  0.50263154  0.87957981  1
  V  V4  1  0.62740237  0.74479700  0.87769353  1
  V  V5  1  0.13522691  0.87565463  0.24262165  1
  V  V6  1  0.26813145  0.63019033  0.87901040  1
  V  V7  1  0.74581540  0.35030525  0.12189385  1
  V  V8  1  0.01790518  0.25105881  0.74169616  1
  V  V9  1  0.23738530  0.50401515  0.24354124  1
  V  V10  1  0.13138637  0.01279851  0.11858334  1
  V  V11  1  -0.00431617  0.74993541  0.23051258  1
  V  V12  1  0.50606412  0.78359196  0.75492182  1
  V  V13  1  0.87015065  0.36189024  0.00159216  1
  V  V14  1  -0.01236915  0.24746333  0.24946339  1
  V  V15  1  0.25866512  0.88427150  0.63214122  1
  V  V16  1  0.87746960  0.50299137  0.37327629  1
  V  V17  1  0.13141529  0.74761223  0.88544274  1
  V  V18  1  0.00194863  0.50325386  0.50479512  1
  V  V19  1  0.50516178  0.48992551  -0.01181976  1
  V  V20  1  0.38553775  -0.00028183  0.37576856  1
  V  V21  1  0.49281241  0.11388485  0.12046569  1
  V  V22  1  0.12487951  0.62869347  0.51090711  1
  V  V23  1  0.88460574  0.62179943  0.22948162  1
  V  V24  1  0.38065772  0.01519522  0.88231307  1
  V  V25  1  0.62934343  0.61953909  0.02394888  1
  V  V26  1  0.12073730  0.74910476  0.37157028  1
  V  V27  1  0.86230558  0.25346475  0.63391392  1
  V  V28  1  0.75166907  0.41408499  0.63572957  1
  V  V29  1  0.62762783  0.39436960  0.75567972  1
  V  V30  1  0.63813843  0.25192054  0.87875206  1
  V  V31  1  0.24985696  0.25818406  0.50549654  1
  V  V32  1  -0.01610003  0.87774238  0.37970410  1
  V  V33  1  0.12487502  0.48525302  0.63594996  1
  V  V34  1  0.77167017  0.86360641  0.11815964  1
  V  V35  1  0.61060211  0.87067106  0.23931215  1
  V  V36  1  0.87094590  0.37589675  0.50589555  1
  V  V37  1  0.26916894  0.49942328  0.74907991  1
  V  V38  1  -0.00749388  0.13310198  0.11294659  1
  V  V39  1  0.49702670  0.24916357  0.74315829  1
  V  V40  1  0.59348150  0.75161263  0.37494792  1
  V  V41  1  0.86316555  0.11698361  0.75444680  1
  V  V42  1  0.35752405  0.76719659  0.12857555  1
  V  V43  1  0.23750242  0.62966071  0.37248803  1
  V  V44  1  0.37338302  0.73762686  0.63763319  1
  V  V45  1  0.13752496  0.36474776  0.25711747  1
  V  V46  1  0.00659873  0.88631448  0.88374969  1
  V  V47  1  -0.00041168  0.10734583  0.61621653  1
  V  V48  1  0.12441539  0.24512896  0.90162442  1
  V  V49  1  0.00570093  0.74899075  0.74585678  1
  V  V50  1  0.88143780  0.62381488  0.74983846  1
  V  V51  1  0.38898585  0.63084174  0.23831057  1
  V  V52  1  0.74483107  0.49918604  0.23491999  1
  V  V53  1  0.86229310  -0.00272371  0.88951697  1
  V  V54  1  0.74297112  0.63050270  0.37777047  1
  V  V55  1  0.00918280  0.38220315  0.87769175  1
  V  V56  1  0.38581902  0.50921708  0.38159333  1
  V  V57  1  0.25399245  0.37051139  0.10648221  1
  V  V58  1  0.00241817  0.37405959  0.37388168  1
  V  V59  1  0.61554735  0.35728137  0.25452593  1
  V  V60  1  0.24755431  0.12935480  0.90538678  1
  V  V61  1  0.60751931  0.13407988  0.49030846  1
  V  V62  1  0.49274547  -0.00449142  0.53854609  1
  V  V63  1  0.24914742  0.03021500  0.26226812  1
  Zn  Zn64  1  0.18641548  0.19615746  0.17585858  1
  Zn  Zn65  1  0.18923281  0.16336639  0.67155768  1
  Zn  Zn66  1  0.18820246  0.69365565  0.17759149  1
  Zn  Zn67  1  0.19348448  0.69117924  0.69964230  1
  Zn  Zn68  1  0.67555082  0.17361130  0.18884938  1
  Zn  Zn69  1  0.67558419  0.18275932  0.68989841  1
  Zn  Zn70  1  0.68916647  0.69460258  0.19233401  1
  Zn  Zn71  1  0.67929115  0.66381874  0.74399437  1
  Zn  Zn72  1  0.38979097  0.30080683  0.35490316  1
  Zn  Zn73  1  0.30392627  0.29987751  0.80066523  1
  Zn  Zn74  1  0.32284222  0.81613704  0.31377469  1
  Zn  Zn75  1  0.30647948  0.82604612  0.80317368  1
  Zn  Zn76  1  0.80826707  0.31315633  0.31261608  1
  Zn  Zn77  1  0.81456965  0.31702928  0.81144977  1
  Zn  Zn78  1  0.80583787  0.81178664  0.30565972  1
  Zn  Zn79  1  0.83709684  0.78472478  0.87370372  1
  Zn  Zn80  1  0.18744756  0.44827584  0.43290153  1
  Zn  Zn81  1  0.21486936  0.41866602  0.89900735  1
  Zn  Zn82  1  0.22151861  0.91759981  0.42389146  1
  Zn  Zn83  1  0.17644184  0.95074747  0.92335500  1
  Zn  Zn84  1  0.70244366  0.42774711  0.42801814  1
  Zn  Zn85  1  0.68636704  0.43721923  0.94193836  1
  Zn  Zn86  1  0.66086281  0.94438678  0.42873690  1
  Zn  Zn87  1  0.69063721  0.94176520  0.94888848  1
  Zn  Zn88  1  0.32209152  0.05734058  0.06915708  1
  Zn  Zn89  1  0.33132981  0.06734584  0.57591030  1
  Zn  Zn90  1  0.30694251  0.56671895  0.06377923  1
  Zn  Zn91  1  0.30779433  0.56584586  0.56940718  1
  Zn  Zn92  1  0.80555918  0.06006182  0.07654701  1
  Zn  Zn93  1  0.84458517  0.07723155  0.53253253  1
  Zn  Zn94  1  0.81422356  0.55702736  0.04819684  1
  Zn  Zn95  1  0.82444454  0.59887932  0.55696696  1
  Zn  Zn96  1  0.43120937  0.43795661  0.19479957  1
  Zn  Zn97  1  0.42566190  0.39879760  0.68428466  1
  Zn  Zn98  1  0.42988705  0.94278567  0.18915759  1
  Zn  Zn99  1  0.42043610  0.93521329  0.70910248  1
  Zn  Zn100  1  0.93043706  0.42662447  0.18456763  1
  Zn  Zn101  1  0.94278865  0.43951210  0.69545375  1
  Zn  Zn102  1  0.93312425  0.94261573  0.18104596  1
  Zn  Zn103  1  0.94473015  0.93705639  0.70728153  1
  Zn  Zn104  1  0.02904779  0.03990456  0.27705331  1
  Zn  Zn105  1  0.05176348  0.07912256  0.82126140  1
  Zn  Zn106  1  0.05217738  0.54495625  0.17240883  1
  Zn  Zn107  1  0.07098690  0.57080867  0.81667548  1
  Zn  Zn108  1  0.56500581  0.05381838  0.29934673  1
  Zn  Zn109  1  0.56090507  0.07890227  0.79813444  1
  Zn  Zn110  1  0.56589541  0.56481835  0.30158185  1
  Zn  Zn111  1  0.55875076  0.55351495  0.83102652  1
  Zn  Zn112  1  0.47323258  0.15570736  0.40956789  1
  Zn  Zn113  1  0.45961025  0.17494314  0.91247936  1
  Zn  Zn114  1  0.41095742  0.69634097  0.43282587  1
  Zn  Zn115  1  0.45322295  0.68035739  0.93633657  1
  Zn  Zn116  1  0.93831550  0.19636553  0.44110339  1
  Zn  Zn117  1  0.93383242  0.18565251  0.93388144  1
  Zn  Zn118  1  0.93737909  0.69041087  0.43111084  1
  Zn  Zn119  1  0.95860674  0.68197591  0.94484592  1
  Zn  Zn120  1  0.05109825  0.35049884  0.08024645  1
  Zn  Zn121  1  0.06016962  0.31325965  0.56169297  1
  Zn  Zn122  1  0.06649266  0.82363143  0.05740034  1
  Zn  Zn123  1  0.05488191  0.80954905  0.55941354  1
  Zn  Zn124  1  0.56279758  0.30535229  0.06363457  1
  Zn  Zn125  1  0.50706923  0.29624048  0.53503702  1
  Zn  Zn126  1  0.57072798  0.81084204  0.05736063  1
  Zn  Zn127  1  0.52113205  0.78508084  0.54453230  1
  O  O128  1  0.11746891  0.11844393  0.12800201  1
  O  O129  1  0.09734571  0.12833703  0.60931283  1
  O  O130  1  0.13004089  0.61086658  0.11236002  1
  O  O131  1  0.13188031  0.62758401  0.61118987  1
  O  O132  1  0.60470601  0.13368557  0.10727088  1
  O  O133  1  0.68802619  0.11128004  0.57256922  1
  O  O134  1  0.62331147  0.62864020  0.12401638  1
  O  O135  1  0.59615827  0.60784232  0.67360598  1
  O  O136  1  0.37827821  0.41021047  0.36673602  1
  O  O137  1  0.37104409  0.35406137  0.91106490  1
  O  O138  1  0.33451830  0.89578675  0.39096560  1
  O  O139  1  0.30941564  0.84363357  0.95819966  1
  O  O140  1  0.87575376  0.38120187  0.38585501  1
  O  O141  1  0.88797441  0.38452175  0.87691680  1
  O  O142  1  0.88595186  0.85861304  0.37143931  1
  O  O143  1  0.88825950  0.89192280  0.87247111  1
  O  O144  1  0.24034918  0.01545743  0.36442371  1
  O  O145  1  0.24851898  0.02675203  0.87929093  1
  O  O146  1  0.25109857  0.51497713  0.36181343  1
  O  O147  1  0.25748357  0.51812673  0.86411727  1
  O  O148  1  0.74677025  -0.01655339  0.36310049  1
  O  O149  1  0.76334051  -0.01008012  0.87386099  1
  O  O150  1  0.76266846  0.50101500  0.35799554  1
  O  O151  1  0.76463023  0.49840086  0.87764198  1
  O  O152  1  0.25906087  0.48568119  0.13890640  1
  O  O153  1  0.23622937  0.50246472  0.63763754  1
  O  O154  1  0.23803571  1.01253796  0.14101437  1
  O  O155  1  0.26300173  0.98303852  0.60880643  1
  O  O156  1  0.75945259  0.49225662  0.13479669  1
  O  O157  1  0.76466333  0.51170691  0.62530559  1
  O  O158  1  0.75623671  0.97960288  0.14051203  1
  O  O159  1  0.73324858  0.93106092  0.53097329  1
  O  O160  1  0.01259162  0.36473515  0.25623992  1
  O  O161  1  -0.00000044  0.35863316  0.76478378  1
  O  O162  1  0.00494289  0.85893394  0.25505192  1
  O  O163  1  -0.00406265  0.85841992  0.76621539  1
  O  O164  1  0.51832784  0.38900379  0.24930432  1
  O  O165  1  0.52730903  0.38985604  0.74277945  1
  O  O166  1  0.50984597  0.87510350  0.23541234  1
  O  O167  1  0.51317817  0.88251965  0.75582511  1
  O  O168  1  0.50823793  0.11889739  0.22257926  1
  O  O169  1  0.47485921  0.15218311  0.75115152  1
  O  O170  1  0.48726733  0.62444652  0.23702336  1
  O  O171  1  0.53207512  0.59120455  0.71115804  1
  O  O172  1  1.00581313  0.14782307  0.26222673  1
  O  O173  1  0.99260775  0.13685982  0.73654596  1
  O  O174  1  0.99303241  0.62860660  0.23526663  1
  O  O175  1  0.99907993  0.63883322  0.76132110  1
  O  O176  1  0.38858466  0.30363037  -0.03812101  1
  O  O177  1  0.34954441  0.26298638  0.53440140  1
  O  O178  1  0.41249635  0.75039976  0.02889926  1
  O  O179  1  0.40668012  0.74525327  0.53077567  1
  O  O180  1  0.86488447  0.26414707  -0.02145035  1
  O  O181  1  0.88189543  0.26684569  0.52073421  1
  O  O182  1  0.87086917  0.74353908  -0.02632993  1
  O  O183  1  0.86780744  0.69742702  0.51553439  1
  O  O184  1  0.14420804  0.25775530  0.49241976  1
  O  O185  1  0.12110526  0.25319230  0.99797615  1
  O  O186  1  0.11261491  0.73214118  0.48651247  1
  O  O187  1  0.13522344  0.76559561  0.98562588  1
  O  O188  1  0.60772067  0.23352368  0.50657881  1
  O  O189  1  0.62669656  0.25206224  0.98405575  1
  O  O190  1  0.60281906  0.74133908  0.47708935  1
  O  O191  1  0.61542871  0.72827650  0.98672593  1
  O  O192  1  0.47676003  0.26078803  0.12525909  1
  O  O193  1  0.51815958  0.25802087  0.64335962  1
  O  O194  1  0.47030072  0.75175805  0.09184786  1
  O  O195  1  0.49697075  0.75095396  0.65253912  1
  O  O196  1  1.01109460  0.24364255  0.14064842  1
  O  O197  1  0.99279715  0.25365044  0.63472595  1
  O  O198  1  1.00760947  0.75526502  0.13235888  1
  O  O199  1  1.00310660  0.75938472  0.64483227  1
  O  O200  1  -0.00582865  0.26492553  0.37002689  1
  O  O201  1  0.01656093  0.24385984  0.86282045  1
  O  O202  1  0.00790431  0.74952349  0.36066438  1
  O  O203  1  0.01803821  0.75980997  0.87698697  1
  O  O204  1  0.45961016  0.26449948  0.43305417  1
  O  O205  1  0.51752073  0.25776276  0.85905348  1
  O  O206  1  0.49385821  0.73981683  0.36484384  1
  O  O207  1  0.50821441  0.74878717  0.86006590  1
  O  O208  1  0.25043190  0.15479148  0.50184571  1
  O  O209  1  0.25198971  0.13169591  1.00353372  1
  O  O210  1  0.23394874  0.62101888  0.48337735  1
  O  O211  1  0.25627312  0.61998851  0.98036519  1
  O  O212  1  0.73688001  0.11727631  0.50522190  1
  O  O213  1  0.72950746  0.12356371  1.01617046  1
  O  O214  1  0.74057522  0.60237312  0.47409334  1
  O  O215  1  0.72935435  0.61622681  1.00343111  1
  O  O216  1  0.24592320  0.38730728  0.00856215  1
  O  O217  1  0.24493622  0.36369864  0.49373029  1
  O  O218  1  0.25771072  0.88119991  -0.00453532  1
  O  O219  1  0.21607455  0.85429821  0.52204449  1
  O  O220  1  0.75649924  0.37474192  0.01333572  1
  O  O221  1  0.76410353  0.38895137  0.51804583  1
  O  O222  1  0.74481071  0.87415823  0.01871932  1
  O  O223  1  0.80678935  0.90962233  0.51674174  1
  O  O224  1  0.13450995  0.49285459  0.24314689  1
  O  O225  1  0.11809396  0.50324409  0.73605170  1
  O  O226  1  0.13759990  0.98944691  0.24969309  1
  O  O227  1  0.13047768  1.01659005  0.74241405  1
  O  O228  1  0.64342817  0.49504955  0.24849750  1
  O  O229  1  0.63965375  0.49251516  0.77434409  1
  O  O230  1  0.63277843  0.97398939  0.25682353  1
  O  O231  1  0.62035171  1.08517381  0.70646697  1
  O  O232  1  0.35154972  -0.00545288  0.25986587  1
  O  O233  1  0.36381140  -0.06598618  0.81551772  1
  O  O234  1  0.36478242  0.52018748  0.25559483  1
  O  O235  1  0.36607566  0.48972250  0.72716876  1
  O  O236  1  0.86575267  -0.00158881  0.25560409  1
  O  O237  1  0.87089645  0.01391814  0.74843060  1
  O  O238  1  0.87517189  0.50431445  0.25276304  1
  O  O239  1  0.89410420  0.50916734  0.77099024  1
  O  O240  1  0.11465138  0.38643937  0.36529226  1
  O  O241  1  0.11646775  0.35734279  0.88172872  1
  O  O242  1  0.12399006  0.86222686  0.36119974  1
  O  O243  1  0.11605468  0.87259029  0.87054216  1
  O  O244  1  0.64851889  0.36526918  0.35216148  1
  O  O245  1  0.63860331  0.36676543  0.86398268  1
  O  O246  1  0.61600761  0.85626759  0.36809193  1
  O  O247  1  0.59985208  0.86691768  0.90748419  1
  O  O248  1  0.38047411  0.14602570  0.12040996  1
  O  O249  1  0.30043246  0.14258347  0.65452827  1
  O  O250  1  0.36250372  0.63591721  0.13855844  1
  O  O251  1  0.36700457  0.63705443  0.63790150  1
  O  O252  1  0.89406493  0.12198053  0.12625515  1
  O  O253  1  0.87926574  0.14010660  0.63641909  1
  O  O254  1  0.87327005  0.61383196  0.13168535  1
  O  O255  1  0.89038248  0.61536968  0.65087845  1
  O  O256  1  0.26602582  0.26113365  0.12179420  1
  O  O257  1  0.22904019  0.26527910  0.60906156  1
  O  O258  1  0.25871706  0.75043253  0.11019387  1
  O  O259  1  0.26783239  0.75412247  0.63599991  1
  O  O260  1  0.75033893  0.25291297  0.13280948  1
  O  O261  1  0.76321883  0.25132921  0.63468188  1
  O  O262  1  0.75949490  0.76174101  0.13625467  1
  O  O263  1  0.73776655  0.72004823  0.62616938  1
  O  O264  1  0.27403136  0.25796275  0.40301414  1
  O  O265  1  0.23422348  0.24035232  0.87045227  1
  O  O266  1  0.23784346  0.73791367  0.36379922  1
  O  O267  1  0.24092631  0.74355194  0.85847189  1
  O  O268  1  0.77776933  0.21489111  0.37696288  1
  O  O269  1  0.73926066  0.24972869  0.86471833  1
  O  O270  1  0.76182263  0.72934236  0.37416301  1
  O  O271  1  0.72195937  0.77806106  0.86608037  1
  O  O272  1  0.00026668  0.13529980  0.01337311  1
  O  O273  1  -0.04099110  0.11174660  0.51307920  1
  O  O274  1  0.02030506  0.62103884  0.03288942  1
  O  O275  1  0.01677795  0.61010339  0.48705563  1
  O  O276  1  0.50501447  0.14014426  0.00964580  1
  O  O277  1  0.50682143  0.11823369  0.52264762  1
  O  O278  1  0.51958523  0.60864387  -0.00716920  1
  O  O279  1  0.52855332  0.58972438  0.54059273  1
  O  O280  1  0.54787154  0.42518071  0.47976551  1
  O  O281  1  0.51917777  0.39121710  1.00212700  1
  O  O282  1  0.50276727  0.89604417  0.53069452  1
  O  O283  1  0.53901765  0.87395389  0.95895539  1
  O  O284  1  0.99425507  0.38253939  0.49399007  1
  O  O285  1  0.98702603  0.35965337  0.98320671  1
  O  O286  1  1.00215697  0.86551482  0.47879566  1
  O  O287  1  1.00058997  0.87919380  0.98437523  1
  O  O288  1  0.48459927  0.53178888  0.37369734  1
  O  O289  1  0.48102926  0.49740793  0.88848957  1
  O  O290  1  0.48162620  0.98130415  0.35738070  1
  O  O291  1  0.47929626  1.03461307  0.86508812  1
  O  O292  1  0.98877474  0.48663124  0.38266544  1
  O  O293  1  1.01977716  0.48090803  0.87741278  1
  O  O294  1  0.99843466  0.97749816  0.36368266  1
  O  O295  1  0.99940953  0.99072299  0.86694437  1
  O  O296  1  0.01486228  0.02155037  0.15034142  1
  O  O297  1  -0.00527107  0.00834553  0.63245376  1
  O  O298  1  0.01309353  0.45766689  0.11539221  1
  O  O299  1  0.01010210  0.49404211  0.61394231  1
  O  O300  1  0.47243579  0.01504341  0.11052763  1
  O  O301  1  0.46599220  0.01195196  0.63628898  1
  O  O302  1  0.45904537  0.50584358  0.09816860  1
  O  O303  1  0.48995531  0.53923550  0.57516437  1
  O  O304  1  0.23984945  0.38957366  0.26317155  1
  O  O305  1  0.24631042  0.39851165  0.77926805  1
  O  O306  1  0.23328876  0.86473331  0.24571092  1
  O  O307  1  0.23149479  0.87830546  0.72989799  1
  O  O308  1  0.75510537  0.38137831  0.23521750  1
  O  O309  1  0.75652963  0.38612114  0.73886478  1
  O  O310  1  0.74600706  0.87820495  0.23915862  1
  O  O311  1  0.75970313  0.88759080  0.68787728  1
  O  O312  1  0.24423612  0.12833967  0.25293874  1
  O  O313  1  0.19477350  0.05521766  0.73469309  1
  O  O314  1  0.23885086  0.61513550  0.25170898  1
  O  O315  1  0.24755582  0.60942365  0.76026918  1
  O  O316  1  0.73465630  0.09817696  0.24529777  1
  O  O317  1  0.76726074  0.13459110  0.75279804  1
  O  O318  1  0.76297334  0.61125877  0.25084839  1
  O  O319  1  0.78110086  0.62925785  0.76349381  1
  O  O320  1  0.38244754  0.10244533  0.36918036  1
  O  O321  1  0.35431184  0.12795179  0.87531557  1
  O  O322  1  0.35532002  0.63164246  0.35696706  1
  O  O323  1  0.36685805  0.64335193  0.87128472  1
  O  O324  1  0.83360923  0.16173858  0.38330847  1
  O  O325  1  0.88721371  0.11070066  0.86170292  1
  O  O326  1  0.87101314  0.61238233  0.36116386  1
  O  O327  1  0.89506513  0.60143874  0.88768352  1
  O  O328  1  0.14983289  0.36604746  0.14061097  1
  O  O329  1  0.12105226  0.38618405  0.62732811  1
  O  O330  1  0.11481481  0.89135665  0.13870700  1
  O  O331  1  0.15403703  0.87273347  0.57774902  1
  O  O332  1  0.64183998  0.36753111  0.13471495  1
  O  O333  1  0.65019998  0.39638788  0.63987730  1
  O  O334  1  0.63143898  0.86202686  0.13592498  1
  O  O335  1  0.71514965  0.77583859  0.58474525  1
  O  O336  1  0.12941789  0.26340337  0.25698537  1
  O  O337  1  0.11779886  0.23755308  0.73652610  1
  O  O338  1  0.11493584  0.75462862  0.24829627  1
  O  O339  1  0.11324535  0.74624065  0.76177642  1
  O  O340  1  0.61746579  0.25772125  0.24385889  1
  O  O341  1  0.62027768  0.26193615  0.75727392  1
  O  O342  1  0.62678758  0.76004573  0.26265150  1
  O  O343  1  0.61310772  0.75932300  0.75863403  1
  O  O344  1  0.37766256  0.25004335  0.25496210  1
  O  O345  1  0.39820265  0.29828028  0.74343182  1
  O  O346  1  0.36862337  0.74278936  0.23965934  1
  O  O347  1  0.39216877  0.76362334  0.74889245  1
  O  O348  1  0.88910775  0.26040421  0.24717896  1
  O  O349  1  0.88514190  0.24639220  0.74338273  1
  O  O350  1  0.88831388  0.73157909  0.24811668  1
  O  O351  1  0.89383657  0.73486392  0.77568605  1
  O  O352  1  0.36469056  0.52623409  0.48039512  1
  O  O353  1  0.40037355  0.49640879  1.03647200  1
  O  O354  1  0.39310282  1.01176815  0.49221990  1
  O  O355  1  0.37047850  0.99554282  0.98084946  1
  O  O356  1  0.88533146  0.49657518  0.49392254  1
  O  O357  1  0.87667643  0.47976578  0.98834698  1
  O  O358  1  0.86325011  0.96156131  0.54214461  1
  O  O359  1  0.87013641  1.01280149  0.98749020  1
  O  O360  1  0.13074818  -0.00461387  0.02079403  1
  O  O361  1  0.13394444  0.00704459  0.49559825  1
  O  O362  1  0.09848088  0.62888220  0.03545755  1
  O  O363  1  0.12280665  0.50720588  0.51095480  1
  O  O364  1  0.61583187  0.01909060  -0.01413533  1
  O  O365  1  0.59587239  0.00996286  0.49787738  1
  O  O366  1  0.61762816  0.50840431  -0.00015321  1
  O  O367  1  0.60603482  0.47058761  0.48978826  1
  O  O368  1  0.35994174  0.36474103  0.13778716  1
  O  O369  1  0.43734365  0.38008515  0.57427950  1
  O  O370  1  0.36235261  0.86640766  0.13566973  1
  O  O371  1  0.36417245  0.86513510  0.63275050  1
  O  O372  1  0.86657874  0.36450112  0.10873485  1
  O  O373  1  0.86987731  0.37267823  0.62698740  1
  O  O374  1  0.87448596  0.87053304  0.12061315  1
  O  O375  1  0.82611194  0.85745250  0.68348758  1
  O  O376  1  0.10555347  0.05975436  0.45433116  1
  O  O377  1  0.13304465  0.13539992  0.88231965  1
  O  O378  1  0.13217123  0.63096485  0.37329182  1
  O  O379  1  0.13085314  0.64203025  0.88348158  1
  O  O380  1  0.58958854  0.12733341  0.38488963  1
  O  O381  1  0.62054086  0.14053837  0.88439836  1
  O  O382  1  0.63731716  0.63894196  0.35609323  1
  O  O383  1  0.63022245  0.64095369  0.85728845  1
