# generated using pymatgen
data_VZnO4
_symmetry_space_group_name_H-M   'P 1'
_cell_length_a   16.91410128
_cell_length_b   16.96898877
_cell_length_c   16.87902411
_cell_angle_alpha   89.36454592
_cell_angle_beta   90.36502195
_cell_angle_gamma   89.86469257
_symmetry_Int_Tables_number   1
_chemical_formula_structural   VZnO4
_chemical_formula_sum   'V64 Zn64 O256'
_cell_volume   4844.12580645
_cell_formula_units_Z   64
loop_
 _symmetry_equiv_pos_site_id
 _symmetry_equiv_pos_as_xyz
  1  'x, y, z'
loop_
 _atom_site_type_symbol
 _atom_site_label
 _atom_site_symmetry_multiplicity
 _atom_site_fract_x
 _atom_site_fract_y
 _atom_site_fract_z
 _atom_site_occupancy
  V  V0  1  0.36302761  0.48611143  0.88517321  1
  V  V1  1  0.02101522  0.11353744  0.11549956  1
  V  V2  1  0.63983588  0.85888127  0.75638662  1
  V  V3  1  0.72620922  0.51967061  0.74031487  1
  V  V4  1  0.73342830  0.25521185  -0.00579622  1
  V  V5  1  0.46708456  0.36622056  0.37922964  1
  V  V6  1  0.24211318  0.49147494  0.25728500  1
  V  V7  1  0.37927814  0.00006613  0.86409290  1
  V  V8  1  0.11814180  0.12660812  0.51099636  1
  V  V9  1  0.63628443  0.13014795  0.46509090  1
  V  V10  1  0.88009466  0.75841406  0.12442000  1
  V  V11  1  0.25682842  0.24335525  0.51776841  1
  V  V12  1  0.00651099  0.00489232  0.50160217  1
  V  V13  1  0.25651541  0.00495839  0.23910053  1
  V  V14  1  0.75505954  0.62346605  0.39382468  1
  V  V15  1  0.76686910  0.37015837  0.14576902  1
  V  V16  1  0.25453522  0.75828567  0.52517769  1
  V  V17  1  0.76009936  0.76667162  0.51971211  1
  V  V18  1  0.90675350  0.78561291  0.63192040  1
  V  V19  1  0.38502370  0.89146792  0.50161494  1
  V  V20  1  0.74256955  0.09734056  0.88614180  1
  V  V21  1  0.74928016  0.26251885  0.46946701  1
  V  V22  1  0.36645712  0.87267717  0.02033882  1
  V  V23  1  0.25349494  0.13866405  0.85486130  1
  V  V24  1  0.61059513  0.36171286  0.75019171  1
  V  V25  1  0.53451821  0.11897280  0.61760897  1
  V  V26  1  0.01489620  0.32920157  0.86458097  1
  V  V27  1  0.51096934  0.37051013  0.90372627  1
  V  V28  1  0.12657126  0.61091461  0.51253614  1
  V  V29  1  0.72999082  0.74181220  0.01509069  1
  V  V30  1  0.10343539  0.48662300  0.10269007  1
  V  V31  1  0.50878539  0.76756562  0.26429235  1
  V  V32  1  0.74584764  -0.00819481  0.25729404  1
  V  V33  1  0.00714070  0.74735308  0.25083095  1
  V  V34  1  0.61062560  0.72818460  0.89006426  1
  V  V35  1  0.88148165  0.62498949  0.25678566  1
  V  V36  1  0.40541809  0.13874403  0.73612602  1
  V  V37  1  0.90659591  0.50540684  0.39113110  1
  V  V38  1  0.39010771  0.00925388  0.37615480  1
  V  V39  1  0.49955996  0.87093631  0.87131638  1
  V  V40  1  0.24997422  0.64857136  0.87395377  1
  V  V41  1  0.87547668  0.12308234  0.23329692  1
  V  V42  1  0.89365264  0.37606730  0.51037831  1
  V  V43  1  0.37776919  0.63165785  0.74802911  1
  V  V44  1  0.23530369  0.12826788  0.36869570  1
  V  V45  1  0.90024882  0.62181666  0.73719998  1
  V  V46  1  0.46593089  0.24887350  0.24202512  1
  V  V47  1  0.50472433  0.60820885  0.62381482  1
  V  V48  1  -0.00544372  -0.01367479  -0.00413556  1
  V  V49  1  0.14701204  0.75108769  0.37752209  1
  V  V50  1  0.86189370  0.13180924  0.74993286  1
  V  V51  1  0.51198225  0.00282553  0.01912182  1
  V  V52  1  0.86227385  0.50196124  0.87871833  1
  V  V53  1  0.88618339  0.00756539  0.37051733  1
  V  V54  1  0.63440939  0.77128740  0.38536053  1
  V  V55  1  0.10324689  0.36729902  0.26114315  1
  V  V56  1  0.13715256  0.88753389  0.24366411  1
  V  V57  1  0.87828227  0.24073156  0.10497867  1
  V  V58  1  0.73120362  0.87627802  0.13376776  1
  V  V59  1  0.11947167  0.64357959  -0.00600478  1
  V  V60  1  0.74294918  0.36591936  0.63344213  1
  V  V61  1  0.24937496  0.91607453  0.63637817  1
  V  V62  1  -0.00034224  0.87315396  0.37998153  1
  V  V63  1  0.53360356  0.60383160  0.17304478  1
  Zn  Zn64  1  0.19290331  0.19071849  0.18300067  1
  Zn  Zn65  1  0.20703849  0.12225419  0.68311589  1
  Zn  Zn66  1  0.20098174  0.64474845  0.16351606  1
  Zn  Zn67  1  0.17545229  0.68810776  0.69854543  1
  Zn  Zn68  1  0.56218884  0.17727302  0.08457950  1
  Zn  Zn69  1  0.69336574  0.18682558  0.69920650  1
  Zn  Zn70  1  0.69572227  0.69142231  0.20869771  1
  Zn  Zn71  1  0.66289574  0.70337343  0.68020527  1
  Zn  Zn72  1  0.29625277  0.31323174  0.30627722  1
  Zn  Zn73  1  0.34045436  0.31235468  0.80299258  1
  Zn  Zn74  1  0.30535509  0.78277472  0.24603968  1
  Zn  Zn75  1  0.31897122  0.81615930  0.80292308  1
  Zn  Zn76  1  0.90603706  0.32121045  0.30256084  1
  Zn  Zn77  1  0.82394066  0.31532107  0.81767995  1
  Zn  Zn78  1  0.81656168  0.81245790  0.31957216  1
  Zn  Zn79  1  0.79900823  0.74519974  0.81244672  1
  Zn  Zn80  1  0.19603187  0.42568584  0.44203491  1
  Zn  Zn81  1  0.14319591  0.48055832  0.88694178  1
  Zn  Zn82  1  0.19469388  0.94018374  0.43406257  1
  Zn  Zn83  1  0.19452597  0.92747052  0.91483939  1
  Zn  Zn84  1  0.69442135  0.45570365  0.46152874  1
  Zn  Zn85  1  0.70687414  0.42522287  0.92377326  1
  Zn  Zn86  1  0.70062210  0.94228930  0.44465113  1
  Zn  Zn87  1  0.68490893  0.92099111  0.94680359  1
  Zn  Zn88  1  0.28330501  0.02825048  0.02644821  1
  Zn  Zn89  1  0.32470522  0.07873801  0.55569346  1
  Zn  Zn90  1  0.28041001  0.53280684  0.04226630  1
  Zn  Zn91  1  0.27124639  0.57798051  0.59940538  1
  Zn  Zn92  1  0.72035768  0.08289971  0.08964913  1
  Zn  Zn93  1  0.81615344  0.08105406  0.54756873  1
  Zn  Zn94  1  0.75330441  0.53414119  0.04549115  1
  Zn  Zn95  1  0.81496449  0.55859328  0.56874049  1
  Zn  Zn96  1  0.44534319  0.46114145  0.23887640  1
  Zn  Zn97  1  0.50702290  0.50301451  0.76295906  1
  Zn  Zn98  1  0.43870110  0.94265212  0.19684025  1
  Zn  Zn99  1  0.44958759  0.94506184  0.67397030  1
  Zn  Zn100  1  0.91541885  0.45383276  0.17141443  1
  Zn  Zn101  1  0.92149200  0.43076697  0.70551070  1
  Zn  Zn102  1  0.94748174  0.93708942  0.18633757  1
  Zn  Zn103  1  0.95603697  0.97559016  0.70392968  1
  Zn  Zn104  1  0.05214487  0.18254101  0.29784919  1
  Zn  Zn105  1  0.04875991  0.11857805  0.81980018  1
  Zn  Zn106  1  0.08879141  0.56881537  0.31071887  1
  Zn  Zn107  1  0.05510568  0.67124721  0.83350292  1
  Zn  Zn108  1  0.60296206  0.10932004  0.25651038  1
  Zn  Zn109  1  0.57471204  0.04568977  0.80700285  1
  Zn  Zn110  1  0.56127599  0.55623154  0.36744963  1
  Zn  Zn111  1  0.56200786  0.53671208  0.96516154  1
  Zn  Zn112  1  0.44096383  0.18243901  0.43618633  1
  Zn  Zn113  1  0.44592619  0.17731103  0.93835410  1
  Zn  Zn114  1  0.41679898  0.72936045  0.40887444  1
  Zn  Zn115  1  0.42107000  0.69212055  0.94845426  1
  Zn  Zn116  1  0.92564521  0.18693668  0.43841214  1
  Zn  Zn117  1  0.93184184  0.16663705  0.93561157  1
  Zn  Zn118  1  0.94432408  0.69073509  0.45907653  1
  Zn  Zn119  1  0.90684426  0.64712655  0.95525035  1
  Zn  Zn120  1  0.01664853  0.32928909  0.06853840  1
  Zn  Zn121  1  0.05896999  0.30309698  0.43816258  1
  Zn  Zn122  1  0.07445308  0.80904262  0.06424740  1
  Zn  Zn123  1  0.08086502  0.83224780  0.56725218  1
  Zn  Zn124  1  0.57813413  0.34702241  0.09505999  1
  Zn  Zn125  1  0.56379409  0.30521442  0.55590150  1
  Zn  Zn126  1  0.54558139  0.80972028  0.07809611  1
  Zn  Zn127  1  0.56194230  0.80233406  0.56128194  1
  O  O128  1  0.11950330  0.12185693  0.12182129  1
  O  O129  1  0.11675384  0.11690502  0.61033085  1
  O  O130  1  0.10560249  0.62400881  0.09451857  1
  O  O131  1  0.15799521  0.61021418  0.61627943  1
  O  O132  1  0.63741485  0.12505223  0.15005405  1
  O  O133  1  0.63689692  0.12151061  0.62409095  1
  O  O134  1  0.63174297  0.61659771  0.15294660  1
  O  O135  1  0.60378864  0.62693563  0.62109230  1
  O  O136  1  0.36635926  0.36533335  0.38391962  1
  O  O137  1  0.39322411  0.38267394  0.87653791  1
  O  O138  1  0.37284750  0.89742510  0.39556066  1
  O  O139  1  0.38763777  0.88120555  0.87921662  1
  O  O140  1  0.88847737  0.39887759  0.39079726  1
  O  O141  1  0.83025016  0.40486180  0.89389888  1
  O  O142  1  0.89599430  0.87999560  0.37215642  1
  O  O143  1  0.89750909  0.84223541  0.86955430  1
  O  O144  1  0.25118767  0.01279418  0.36382765  1
  O  O145  1  0.27768474  -0.00518692  0.85941300  1
  O  O146  1  0.24883318  0.48184029  0.35813321  1
  O  O147  1  0.26200866  0.47852205  0.87573791  1
  O  O148  1  0.77889227  -0.01801824  0.36486695  1
  O  O149  1  0.75011777  -0.00172955  0.89491192  1
  O  O150  1  0.77057889  0.52114252  0.39390241  1
  O  O151  1  0.74102020  0.51291370  0.84483046  1
  O  O152  1  0.21243754  0.51658823  0.12989564  1
  O  O153  1  0.25683838  0.46139712  0.62326874  1
  O  O154  1  0.26459040  1.01887340  0.14006462  1
  O  O155  1  0.25275646  1.01927302  0.63094844  1
  O  O156  1  0.80469932  0.46773778  0.12339002  1
  O  O157  1  0.75160637  0.48648899  0.63383036  1
  O  O158  1  0.75052804  0.98245874  0.13950786  1
  O  O159  1  0.74193447  0.98365856  0.61997154  1
  O  O160  1  0.00031569  0.37249864  0.24573181  1
  O  O161  1  -0.05630913  0.35566803  0.79153444  1
  O  O162  1  0.01429278  0.86981974  0.26173084  1
  O  O163  1  0.02406036  0.89113742  0.76343799  1
  O  O164  1  0.49107263  0.35557595  0.26298195  1
  O  O165  1  0.51142869  0.38019467  0.74944367  1
  O  O166  1  0.50493615  0.86563018  0.25240836  1
  O  O167  1  0.50170868  0.86752310  0.77037664  1
  O  O168  1  0.49662515  0.15119405  0.24824641  1
  O  O169  1  0.51314784  0.11564390  0.73710034  1
  O  O170  1  0.51858542  0.61912075  0.27444709  1
  O  O171  1  0.48974263  0.62043490  0.73429826  1
  O  O172  1  0.99139581  0.11357531  0.22545637  1
  O  O173  1  0.95896658  0.07441830  0.76167496  1
  O  O174  1  1.00017841  0.64346505  0.26636095  1
  O  O175  1  0.99747809  0.61134440  0.75216005  1
  O  O176  1  0.36888471  0.22994330  0.02139785  1
  O  O177  1  0.35600370  0.22164672  0.50593465  1
  O  O178  1  0.36438931  0.77460110  0.00213837  1
  O  O179  1  0.35523621  0.77466139  0.49152622  1
  O  O180  1  0.86484467  0.23394094  0.00318361  1
  O  O181  1  0.86368100  0.27037574  0.49154594  1
  O  O182  1  0.86821161  0.73705298  0.02404594  1
  O  O183  1  0.87692981  0.75880182  0.52715889  1
  O  O184  1  0.12816913  0.23031048  0.49604912  1
  O  O185  1  0.15812038  0.26983581  0.98424902  1
  O  O186  1  0.14766274  0.77057818  0.48996543  1
  O  O187  1  0.13388538  0.74289626  0.99554617  1
  O  O188  1  0.64518156  0.24475415  0.49328762  1
  O  O189  1  0.63378651  0.25099796  1.01883690  1
  O  O190  1  0.64625542  0.75457319  0.49674701  1
  O  O191  1  0.62483004  0.75315230  1.01076380  1
  O  O192  1  0.37273144  0.36367303  0.09515615  1
  O  O193  1  0.51267946  0.22227688  0.61424700  1
  O  O194  1  0.51367074  0.73428356  0.16389731  1
  O  O195  1  0.47528554  0.71769685  0.58140895  1
  O  O196  1  0.99112487  0.22038551  0.10766147  1
  O  O197  1  1.01005193  0.25617680  0.64441598  1
  O  O198  1  0.99482531  0.75431058  0.14312159  1
  O  O199  1  1.00495678  0.76989420  0.62373895  1
  O  O200  1  -0.01348097  0.25037818  0.36492881  1
  O  O201  1  0.01694479  0.22103788  0.86750575  1
  O  O202  1  0.00597087  0.76443582  0.37733589  1
  O  O203  1  -0.04064064  0.80876622  0.88955151  1
  O  O204  1  0.48322099  0.25547453  0.35759899  1
  O  O205  1  0.49348260  0.27110181  0.89882553  1
  O  O206  1  0.52828637  0.74994695  0.38250731  1
  O  O207  1  0.50405865  0.76159723  0.90047659  1
  O  O208  1  0.23147412  0.12148952  0.48872573  1
  O  O209  1  0.24588637  0.11072057  0.95442560  1
  O  O210  1  0.24623840  0.65462262  0.50469360  1
  O  O211  1  0.23386267  0.62436071  0.98501887  1
  O  O212  1  0.75680476  0.15307663  0.48265178  1
  O  O213  1  0.74544798  0.13468309  0.99152084  1
  O  O214  1  0.76984489  0.64269921  0.49767116  1
  O  O215  1  0.73879152  0.64740751  1.04159755  1
  O  O216  1  0.20422695  0.32400886  -0.02732165  1
  O  O217  1  0.24038035  0.34317507  0.50470798  1
  O  O218  1  0.26521081  0.90946308  0.00282003  1
  O  O219  1  0.25756857  0.88180060  0.51667162  1
  O  O220  1  0.74960375  0.35536447  0.01892432  1
  O  O221  1  0.75115384  0.37151843  0.51074184  1
  O  O222  1  0.74648181  0.85808754  0.02622480  1
  O  O223  1  0.76041049  0.86697414  0.50826665  1
  O  O224  1  0.11446165  0.47506478  0.23739855  1
  O  O225  1  0.08670082  0.45567975  0.68666841  1
  O  O226  1  0.14059092  0.98918356  0.24493192  1
  O  O227  1  0.09651730  0.91102252  0.78557637  1
  O  O228  1  0.65183489  0.46323814  0.28388167  1
  O  O229  1  0.62725955  0.48702385  0.74089010  1
  O  O230  1  0.64895021  0.99932755  0.27145522  1
  O  O231  1  0.63001291  0.95905237  0.75314838  1
  O  O232  1  0.36270937  -0.00558273  0.26398499  1
  O  O233  1  0.40517563  0.00147362  0.76461923  1
  O  O234  1  0.33867017  0.49815559  0.22493143  1
  O  O235  1  0.38469920  0.52238218  0.78154007  1
  O  O236  1  0.88237792  0.00080362  0.25683369  1
  O  O237  1  0.77366137  -0.03282610  0.68357575  1
  O  O238  1  0.89017340  0.52074317  0.27112898  1
  O  O239  1  0.85831045  0.51630584  0.75650129  1
  O  O240  1  0.11512536  0.37294806  0.36562428  1
  O  O241  1  0.09960098  0.38278111  0.84628035  1
  O  O242  1  0.12317829  0.86886460  0.36608888  1
  O  O243  1  0.12507948  0.86461347  0.84439166  1
  O  O244  1  0.66245112  0.40266361  0.32322369  1
  O  O245  1  0.61456469  0.37687175  0.86368196  1
  O  O246  1  0.63505432  0.87019399  0.38552988  1
  O  O247  1  0.61393220  0.85867319  0.87693047  1
  O  O248  1  0.32833740  0.19169532  0.07663645  1
  O  O249  1  0.39708946  0.12056259  0.63517621  1
  O  O250  1  0.45183308  0.61758482  0.08888507  1
  O  O251  1  0.36547522  0.61865245  0.64608235  1
  O  O252  1  0.87133583  0.12430114  0.12755510  1
  O  O253  1  0.85451096  0.10260123  0.64976161  1
  O  O254  1  0.87666235  0.64196059  0.15649974  1
  O  O255  1  0.88827712  0.61325370  0.63570044  1
  O  O256  1  0.26053251  0.22928304  0.09440217  1
  O  O257  1  0.24182608  0.22010862  0.61528090  1
  O  O258  1  0.26566300  0.73092808  0.15743565  1
  O  O259  1  0.24870723  0.75987969  0.62479976  1
  O  O260  1  0.77266535  0.25485383  0.11920346  1
  O  O261  1  0.75388251  0.26579231  0.62975859  1
  O  O262  1  0.76221088  0.76199888  0.13784728  1
  O  O263  1  0.75369323  0.75206059  0.61910896  1
  O  O264  1  0.25297112  0.22957059  0.37797089  1
  O  O265  1  0.26843797  0.23784301  0.85637256  1
  O  O266  1  0.24367656  0.75616634  0.36044014  1
  O  O267  1  0.24751491  0.74761916  0.87174893  1
  O  O268  1  0.74980520  0.27571466  0.37440847  1
  O  O269  1  0.74693863  0.25951188  0.89288983  1
  O  O270  1  0.75229759  0.75130654  0.39243164  1
  O  O271  1  0.72912988  0.74105393  0.90819573  1
  O  O272  1  -0.00064263  0.10587444  0.00887686  1
  O  O273  1  0.00802736  0.11742891  0.48911472  1
  O  O274  1  0.02108323  0.64989564  -0.05477430  1
  O  O275  1  0.02897039  0.63526617  0.51613332  1
  O  O276  1  0.50858559  0.10977640  0.00608099  1
  O  O277  1  0.53224441  0.13044580  0.49714850  1
  O  O278  1  0.49206307  0.62434832  0.01758620  1
  O  O279  1  0.47388587  0.65970443  0.52263479  1
  O  O280  1  0.51046993  0.36038601  0.47165127  1
  O  O281  1  0.52232313  0.38681904  1.00223933  1
  O  O282  1  0.48365709  0.87144116  0.51377214  1
  O  O283  1  0.48659463  0.88159547  1.00557232  1
  O  O284  1  0.99140106  0.36135274  0.51372670  1
  O  O285  1  0.98843251  0.34935262  0.95902875  1
  O  O286  1  1.01494944  0.88951068  0.48549269  1
  O  O287  1  1.02042907  0.88717561  1.00560208  1
  O  O288  1  0.48546919  0.47045322  0.35079968  1
  O  O289  1  0.49615797  0.48628720  0.88324666  1
  O  O290  1  0.48529682  1.01374786  0.36532214  1
  O  O291  1  0.50516876  0.98073248  0.88651370  1
  O  O292  1  1.00448646  0.51501202  0.38195384  1
  O  O293  1  0.96007047  0.49870290  0.87291726  1
  O  O294  1  0.99417000  0.98807642  0.37696608  1
  O  O295  1  1.04546984  1.01370810  0.89372137  1
  O  O296  1  0.00031067  0.00405866  0.11065874  1
  O  O297  1  0.00022145  -0.00327432  0.59945535  1
  O  O298  1  0.00503809  0.50471899  0.12138490  1
  O  O299  1  0.01666186  0.47740102  0.65033311  1
  O  O300  1  0.49713709  -0.00098210  0.11858037  1
  O  O301  1  0.51377741  0.01655662  0.61515623  1
  O  O302  1  0.52148080  0.50343901  0.16332889  1
  O  O303  1  0.49005141  0.51215659  0.61534295  1
  O  O304  1  0.22244403  0.37958699  0.24370443  1
  O  O305  1  0.27128493  0.37502766  0.72204083  1
  O  O306  1  0.24566238  0.88760831  0.25344728  1
  O  O307  1  0.26521852  0.88703966  0.73348707  1
  O  O308  1  0.80751858  0.36268379  0.23853344  1
  O  O309  1  0.74446305  0.37791633  0.74121093  1
  O  O310  1  0.76071915  0.88057169  0.24352597  1
  O  O311  1  0.73826832  0.83745533  0.77055646  1
  O  O312  1  0.24491103  0.11595585  0.25781152  1
  O  O313  1  0.29814659  0.11943668  0.75340752  1
  O  O314  1  0.19680417  0.59139248  0.26465009  1
  O  O315  1  0.26083573  0.62764139  0.76581834  1
  O  O316  1  0.77072199  0.09696816  0.24623051  1
  O  O317  1  0.75403034  0.11456308  0.76717709  1
  O  O318  1  0.77753386  0.64243237  0.27913395  1
  O  O319  1  0.73271787  0.61963606  0.72769785  1
  O  O320  1  0.36010198  0.11229480  0.38355743  1
  O  O321  1  0.38639796  0.11253151  0.86535739  1
  O  O322  1  0.37099050  0.60041034  0.39551279  1
  O  O323  1  0.35619430  0.62249648  0.88330033  1
  O  O324  1  0.88625620  0.11106480  0.35601585  1
  O  O325  1  0.85358642  0.12161657  0.86609314  1
  O  O326  1  0.88458105  0.62231946  0.38343299  1
  O  O327  1  0.86320272  0.64711434  0.84176804  1
  O  O328  1  0.10693761  0.38266213  0.11246655  1
  O  O329  1  0.11604109  0.39114220  0.66580694  1
  O  O330  1  0.12755867  0.86441507  0.14744878  1
  O  O331  1  0.14929657  0.89658681  0.62664288  1
  O  O332  1  0.66704369  0.37723652  0.15748013  1
  O  O333  1  0.63453831  0.36916230  0.63247532  1
  O  O334  1  0.63372006  0.86582356  0.13867444  1
  O  O335  1  0.61475999  0.82276446  0.66056066  1
  O  O336  1  0.12094311  0.26120318  0.23870845  1
  O  O337  1  0.05949991  0.24407744  0.69643838  1
  O  O338  1  0.11453553  0.75573050  0.26720561  1
  O  O339  1  0.10568061  0.74167779  0.76346967  1
  O  O340  1  0.51045542  0.26490041  0.14123761  1
  O  O341  1  0.62479167  0.26316666  0.75141762  1
  O  O342  1  0.62725432  0.75474394  0.27662837  1
  O  O343  1  0.62130370  0.73888087  0.78749642  1
  O  O344  1  0.36472362  0.25105338  0.23434127  1
  O  O345  1  0.40587544  0.23743791  0.74788003  1
  O  O346  1  0.40580079  0.74757539  0.29237247  1
  O  O347  1  0.38388152  0.73110950  0.76503778  1
  O  O348  1  0.87820585  0.22457031  0.23794691  1
  O  O349  1  0.86918036  0.23054789  0.74815679  1
  O  O350  1  0.89433555  0.75018377  0.25573580  1
  O  O351  1  0.88094351  0.73578713  0.72441395  1
  O  O352  1  0.37767941  0.55150168  0.45009393  1
  O  O353  1  0.37230428  0.50326043  0.98728804  1
  O  O354  1  0.37869940  1.00119245  0.49172250  1
  O  O355  1  0.39204557  0.99577190  0.98465186  1
  O  O356  1  0.88770333  0.49200241  0.49936117  1
  O  O357  1  0.84728231  0.54927668  0.97229183  1
  O  O358  1  0.88914663  1.01482758  0.48142944  1
  O  O359  1  0.90228034  0.98296874  0.96887562  1
  O  O360  1  0.11061355  0.00626559  -0.05320424  1
  O  O361  1  0.11327055  0.01286151  0.48535544  1
  O  O362  1  0.11729633  0.50179946  0.00010404  1
  O  O363  1  0.14036469  0.51446418  0.49185185  1
  O  O364  1  0.61195301  -0.01484730  0.01033427  1
  O  O365  1  0.66101725  0.03392710  0.48969403  1
  O  O366  1  0.65721842  0.49087130  0.00338030  1
  O  O367  1  0.60068752  0.50975179  0.46319441  1
  O  O368  1  0.30326299  0.37856830  0.08159540  1
  O  O369  1  0.30738867  0.41814387  0.66750609  1
  O  O370  1  0.37443661  0.87942820  0.12074119  1
  O  O371  1  0.36440637  0.89690934  0.61314083  1
  O  O372  1  0.90313519  0.34243373  0.11595297  1
  O  O373  1  0.86641462  0.38093226  0.61428395  1
  O  O374  1  0.87910637  0.85955763  0.13093891  1
  O  O375  1  0.89757668  0.88247946  0.65535002  1
  O  O376  1  0.13162445  0.12782149  0.36997172  1
  O  O377  1  0.16077445  0.12328441  0.80228085  1
  O  O378  1  0.12624468  0.64973597  0.39748767  1
  O  O379  1  0.14689219  0.60330547  0.87305534  1
  O  O380  1  0.63126454  0.13652619  0.36651455  1
  O  O381  1  0.64249513  0.11274797  0.86898230  1
  O  O382  1  0.65427186  0.63295798  0.38051207  1
  O  O383  1  0.59838909  0.63211290  0.90191919  1
