# generated using pymatgen
data_VZnO4
_symmetry_space_group_name_H-M   'P 1'
_cell_length_a   17.03963241
_cell_length_b   17.06735578
_cell_length_c   17.02889663
_cell_angle_alpha   89.71014279
_cell_angle_beta   90.29951960
_cell_angle_gamma   90.44658683
_symmetry_Int_Tables_number   1
_chemical_formula_structural   VZnO4
_chemical_formula_sum   'V64 Zn64 O256'
_cell_volume   4952.08826701
_cell_formula_units_Z   64
loop_
 _symmetry_equiv_pos_site_id
 _symmetry_equiv_pos_as_xyz
  1  'x, y, z'
loop_
 _atom_site_type_symbol
 _atom_site_label
 _atom_site_symmetry_multiplicity
 _atom_site_fract_x
 _atom_site_fract_y
 _atom_site_fract_z
 _atom_site_occupancy
  V  V0  1  -0.01790096  0.37906648  0.38238356  1
  V  V1  1  0.12630110  0.14097810  0.49978763  1
  V  V2  1  0.50502437  0.62978644  0.61878153  1
  V  V3  1  0.04494844  0.86812364  0.36064507  1
  V  V4  1  0.36096052  0.86677031  0.00846347  1
  V  V5  1  0.37147190  0.24459444  0.09886017  1
  V  V6  1  0.03474418  -0.00664889  -0.00478321  1
  V  V7  1  0.23526127  0.88644385  0.63135480  1
  V  V8  1  0.64254635  0.24635057  0.88255951  1
  V  V9  1  0.24478418  0.13847728  0.88587015  1
  V  V10  1  0.24184943  0.13850920  0.37685641  1
  V  V11  1  0.50229167  0.72120654  0.25390795  1
  V  V12  1  0.75042957  0.88453961  0.62731456  1
  V  V13  1  0.37426876  0.88383806  0.50968043  1
  V  V14  1  0.87221629  0.75866390  0.10067787  1
  V  V15  1  0.37643253  0.13319420  0.75433129  1
  V  V16  1  0.00329695  -0.00374407  0.49988156  1
  V  V17  1  0.37872646  -0.00178450  0.37847507  1
  V  V18  1  0.12650254  0.50143965  0.61453915  1
  V  V19  1  -0.05918002  0.19629742  0.80223097  1
  V  V20  1  0.87267309  0.25124855  0.12635422  1
  V  V21  1  0.00033304  0.64397662  0.62241319  1
  V  V22  1  0.87246865  0.50637721  0.86960430  1
  V  V23  1  0.73657538  0.23447544  0.50278991  1
  V  V24  1  0.25213439  0.49242953  0.75713906  1
  V  V25  1  0.48887815  0.86928922  0.88142727  1
  V  V26  1  0.25370357  0.36656243  0.61320400  1
  V  V27  1  0.62318815  0.62616297  0.00543169  1
  V  V28  1  0.86677607  0.65405695  0.27046255  1
  V  V29  1  0.50943489  0.37674416  0.89138134  1
  V  V30  1  0.74464407  0.51081895  0.73459246  1
  V  V31  1  0.50656884  0.75221308  0.76109172  1
  V  V32  1  0.72571393  0.88665201  0.11810526  1
  V  V33  1  0.36928737  0.75831374  0.63881735  1
  V  V34  1  0.50367552  0.00937571  0.51276273  1
  V  V35  1  -0.01282785  0.38073654  0.87789978  1
  V  V36  1  0.66449083  0.12068697  -0.00980978  1
  V  V37  1  -0.01093019  0.62153439  0.12714094  1
  V  V38  1  0.24267657  0.70860194  0.04459651  1
  V  V39  1  0.62322270  0.36350718  0.73302504  1
  V  V40  1  0.75130545  0.10582388  0.36963927  1
  V  V41  1  0.37630890  0.24818078  0.61126339  1
  V  V42  1  0.24253405  0.00896471  0.75146936  1
  V  V43  1  -0.02232967  0.50031394  0.50587486  1
  V  V44  1  0.75617655  0.49052197  0.28236501  1
  V  V45  1  0.51010028  0.12878018  0.63040357  1
  V  V46  1  0.36536266  0.62396354  0.75444997  1
  V  V47  1  0.25054821  0.74260026  0.48958173  1
  V  V48  1  -0.00048712  0.23897338  0.26180918  1
  V  V49  1  0.61442504  0.24376067  0.35478976  1
  V  V50  1  0.75312163  0.38290712  0.61231630  1
  V  V51  1  0.88219469  0.25249181  0.61268417  1
  V  V52  1  0.60352198  0.89995777  0.25429436  1
  V  V53  1  0.11125950  0.36856739  0.75287645  1
  V  V54  1  0.11752732  0.40806656  0.25066783  1
  V  V55  1  0.87713937  0.63901411  0.73697463  1
  V  V56  1  0.23317933  0.62736264  0.86926143  1
  V  V57  1  0.00340124  0.12627543  0.63101837  1
  V  V58  1  0.25107749  0.88328092  0.14712130  1
  V  V59  1  0.38091017  0.13694493  0.25310024  1
  V  V60  1  0.23953587  -0.00118555  0.26152806  1
  V  V61  1  0.35250692  0.39554499  -0.02439520  1
  V  V62  1  0.10378547  0.59469127  -0.01159524  1
  V  V63  1  0.00556640  0.11136819  0.13728517  1
  Zn  Zn64  1  0.16873082  0.22554416  0.09147685  1
  Zn  Zn65  1  0.18688646  0.19097999  0.69144083  1
  Zn  Zn66  1  0.17050154  0.60199999  0.20119563  1
  Zn  Zn67  1  0.19944305  0.67606671  0.66064610  1
  Zn  Zn68  1  0.68646443  0.18141936  0.18367013  1
  Zn  Zn69  1  0.69071012  0.19217935  0.68538802  1
  Zn  Zn70  1  0.70612172  0.74439674  0.23253462  1
  Zn  Zn71  1  0.71608683  0.66640200  0.61585577  1
  Zn  Zn72  1  0.26809061  0.28699635  0.24898919  1
  Zn  Zn73  1  0.31734488  0.30859314  0.80872931  1
  Zn  Zn74  1  0.33711669  0.80906755  0.31342072  1
  Zn  Zn75  1  0.27195212  0.82838381  0.83175554  1
  Zn  Zn76  1  0.81527367  0.29908396  0.31885121  1
  Zn  Zn77  1  0.81055903  0.32151283  0.79850669  1
  Zn  Zn78  1  0.83783785  0.85203354  0.24581389  1
  Zn  Zn79  1  0.85051691  0.84546716  0.79971203  1
  Zn  Zn80  1  0.17690662  0.42333549  0.43528650  1
  Zn  Zn81  1  0.14447689  0.38484135  0.97202649  1
  Zn  Zn82  1  0.18880131  0.95078333  0.45337900  1
  Zn  Zn83  1  0.21617526  0.97726258  0.95184089  1
  Zn  Zn84  1  0.71459151  0.40507098  0.41047590  1
  Zn  Zn85  1  0.68636045  0.44611661  0.91292701  1
  Zn  Zn86  1  0.66845499  0.91881420  0.44330606  1
  Zn  Zn87  1  0.69491130  0.91441451  0.91901666  1
  Zn  Zn88  1  0.34287437  0.06149421  0.05987086  1
  Zn  Zn89  1  0.30652910  0.06728548  0.56357759  1
  Zn  Zn90  1  0.32316798  0.56944151  0.03868137  1
  Zn  Zn91  1  0.31401349  0.56353099  0.56996134  1
  Zn  Zn92  1  0.81932562  0.06103334  0.19239847  1
  Zn  Zn93  1  0.82716927  0.06931164  0.55431320  1
  Zn  Zn94  1  0.82533373  0.55975160  0.07415561  1
  Zn  Zn95  1  0.81298378  0.58386521  0.45315347  1
  Zn  Zn96  1  0.49676182  0.36941143  0.10590336  1
  Zn  Zn97  1  0.46868966  0.41780189  0.61800661  1
  Zn  Zn98  1  0.43226873  0.94650644  0.18078233  1
  Zn  Zn99  1  0.42990154  0.94506738  0.70075005  1
  Zn  Zn100  1  0.91652120  0.44645725  0.18827857  1
  Zn  Zn101  1  0.93094852  0.44301779  0.68355996  1
  Zn  Zn102  1  1.00124511  0.90473840  0.15865692  1
  Zn  Zn103  1  0.96014835  0.91090485  0.65030087  1
  Zn  Zn104  1  0.05962880  0.05302713  0.32303094  1
  Zn  Zn105  1  0.07054159  0.06244248  0.81769717  1
  Zn  Zn106  1  0.02452458  0.54005235  0.30240919  1
  Zn  Zn107  1  0.05883714  0.55560470  0.79869372  1
  Zn  Zn108  1  0.56380111  0.06893051  0.32123716  1
  Zn  Zn109  1  0.53966388  0.03055861  0.92083516  1
  Zn  Zn110  1  0.56849352  0.53436412  0.19999370  1
  Zn  Zn111  1  0.52722513  0.52336565  0.75615041  1
  Zn  Zn112  1  0.43343608  0.18616543  0.44031518  1
  Zn  Zn113  1  0.45948375  0.19113211  0.92532950  1
  Zn  Zn114  1  0.43937364  0.70708364  0.44622321  1
  Zn  Zn115  1  0.42300747  0.68423757  0.93520717  1
  Zn  Zn116  1  0.93365561  0.18637618  0.43636114  1
  Zn  Zn117  1  0.87991182  0.13161739  0.98332124  1
  Zn  Zn118  1  0.97944228  0.68295328  0.42425910  1
  Zn  Zn119  1  0.92345333  0.67809026  0.93393519  1
  Zn  Zn120  1  0.01903517  0.33544649  0.08643165  1
  Zn  Zn121  1  0.06362834  0.31826014  0.56042448  1
  Zn  Zn122  1  0.07589739  0.79724352  0.05844202  1
  Zn  Zn123  1  0.06740734  0.80998560  0.53588071  1
  Zn  Zn124  1  0.52957357  0.08792888  0.09752180  1
  Zn  Zn125  1  0.56778868  0.33120626  0.49721100  1
  Zn  Zn126  1  0.54306515  0.81396300  0.08495284  1
  Zn  Zn127  1  0.55713848  0.82465077  0.57977820  1
  O  O128  1  0.10248468  0.13691191  0.12073696  1
  O  O129  1  0.11187832  0.14153489  0.61471956  1
  O  O130  1  0.09032123  0.60190678  0.11451503  1
  O  O131  1  0.11516275  0.60767903  0.63184257  1
  O  O132  1  0.63834159  0.11986236  0.09702314  1
  O  O133  1  0.60798079  0.12979006  0.63894244  1
  O  O134  1  0.59280170  0.58611273  0.09875342  1
  O  O135  1  0.60312734  0.64557187  0.62321203  1
  O  O136  1  0.46357958  0.40062786  0.31957437  1
  O  O137  1  0.39714661  0.35401347  0.88642201  1
  O  O138  1  0.37374226  0.89339614  0.39169421  1
  O  O139  1  0.35693318  0.83861162  0.90777398  1
  O  O140  1  0.88299766  0.37569573  0.38651013  1
  O  O141  1  0.87968232  0.39233475  0.85645212  1
  O  O142  1  0.86861107  0.94257300  0.31668855  1
  O  O143  1  0.95405388  0.83574863  0.88328001  1
  O  O144  1  0.25985553  0.00361573  0.37505910  1
  O  O145  1  0.25854278  0.01756740  0.85337133  1
  O  O146  1  0.28339673  0.48830670  0.41634532  1
  O  O147  1  0.24285182  0.50783950  0.85429682  1
  O  O148  1  0.73668924  0.01082020  0.39559648  1
  O  O149  1  0.82907925  -0.02081215  0.89402940  1
  O  O150  1  0.75591100  0.50836070  0.38696581  1
  O  O151  1  0.76137663  0.49987987  0.84338912  1
  O  O152  1  0.27455473  0.49798993  0.13267428  1
  O  O153  1  0.24143072  0.49050431  0.62867861  1
  O  O154  1  0.25154106  0.98862072  0.14954942  1
  O  O155  1  0.24658465  0.99145231  0.62791396  1
  O  O156  1  0.76936994  0.46283061  0.11910639  1
  O  O157  1  0.75689135  0.48329025  0.62149796  1
  O  O158  1  0.77227479  0.97377857  0.14059810  1
  O  O159  1  0.77021824  0.98622459  0.61574030  1
  O  O160  1  -0.01207590  0.42046459  0.27931216  1
  O  O161  1  0.01080200  0.38051624  0.73963399  1
  O  O162  1  0.02765372  0.86161297  0.26303289  1
  O  O163  1  0.10753800  0.83101104  0.79155970  1
  O  O164  1  0.54193271  0.42797406  0.18577766  1
  O  O165  1  0.52600166  0.38437717  0.71803722  1
  O  O166  1  0.50154273  0.88485197  0.24073917  1
  O  O167  1  0.48131275  0.86233789  0.76706543  1
  O  O168  1  0.47889086  0.11920467  0.25570677  1
  O  O169  1  0.47932403  0.12278624  0.73328045  1
  O  O170  1  0.51951625  0.62317413  0.25131738  1
  O  O171  1  0.48303708  0.63973916  0.74885525  1
  O  O172  1  1.01263674  0.13691586  0.26557382  1
  O  O173  1  1.00821733  0.13564385  0.74297123  1
  O  O174  1  0.98016639  0.62024454  0.23307352  1
  O  O175  1  0.99199652  0.62263685  0.73148575  1
  O  O176  1  0.37879372  0.21559981  0.00498256  1
  O  O177  1  0.36863949  0.24705876  0.51177338  1
  O  O178  1  0.34612465  0.68422372  0.01819098  1
  O  O179  1  0.37073090  0.76773678  0.51804024  1
  O  O180  1  0.88401174  0.23577983  0.02770238  1
  O  O181  1  0.86567848  0.24888765  0.51111667  1
  O  O182  1  0.86577455  0.74894691  0.00117406  1
  O  O183  1  0.82242721  0.77232139  0.43948927  1
  O  O184  1  0.11830949  0.23994455  0.49599682  1
  O  O185  1  0.11015246  0.29744099  1.03235324  1
  O  O186  1  0.15127968  0.75193677  0.49578968  1
  O  O187  1  0.14061040  0.71751086  1.01191085  1
  O  O188  1  0.63776960  0.24282067  0.51323872  1
  O  O189  1  0.64599432  0.23514081  0.98447721  1
  O  O190  1  0.62741420  0.81390330  0.49643715  1
  O  O191  1  0.61077875  0.72329413  1.04213462  1
  O  O192  1  0.46513308  0.25907524  0.13412027  1
  O  O193  1  0.48152055  0.23488028  0.62069511  1
  O  O194  1  0.48056792  0.74346097  0.14634579  1
  O  O195  1  0.48823175  0.75340620  0.64182844  1
  O  O196  1  0.99171862  0.23065183  0.14815673  1
  O  O197  1  0.98777227  0.24948446  0.61748764  1
  O  O198  1  0.98673292  0.73004723  0.10498516  1
  O  O199  1  1.01889036  0.74052958  0.61715888  1
  O  O200  1  -0.00882699  0.26858987  0.37294625  1
  O  O201  1  -0.01543434  0.27095660  0.85521297  1
  O  O202  1  0.00461146  0.79186951  0.42018453  1
  O  O203  1  -0.00961600  0.77114293  0.88663756  1
  O  O204  1  0.51721459  0.23191627  0.38118154  1
  O  O205  1  0.52612395  0.26905364  0.87374053  1
  O  O206  1  0.48441725  0.74386422  0.35576638  1
  O  O207  1  0.48103488  0.75368559  0.86633725  1
  O  O208  1  0.23637082  0.12638955  0.49040603  1
  O  O209  1  0.26631716  0.10852280  0.98274485  1
  O  O210  1  0.26173780  0.64444918  0.51120966  1
  O  O211  1  0.22394919  0.60782255  0.98711215  1
  O  O212  1  0.74894317  0.13281677  0.50348988  1
  O  O213  1  0.76275756  0.12112990  0.99275994  1
  O  O214  1  0.75308078  0.64862868  0.51583517  1
  O  O215  1  0.72148750  0.61888123  1.04591079  1
  O  O216  1  0.25615780  0.38264347  -0.03721061  1
  O  O217  1  0.23966336  0.37093065  0.51589467  1
  O  O218  1  0.26577567  0.81422995  0.03882043  1
  O  O219  1  0.25886813  0.87748563  0.51698395  1
  O  O220  1  0.74216806  0.39646382  0.00469745  1
  O  O221  1  0.75071195  0.35858896  0.51008986  1
  O  O222  1  0.73394572  0.88035363  0.01961145  1
  O  O223  1  0.74480115  0.88306265  0.52307164  1
  O  O224  1  0.12918946  0.51586632  0.26435907  1
  O  O225  1  0.13445349  0.48902187  0.73664261  1
  O  O226  1  0.14239598  0.99669156  0.26700402  1
  O  O227  1  0.14243393  1.01300749  0.74452770  1
  O  O228  1  0.67150510  0.52819304  0.24825598  1
  O  O229  1  0.64258085  0.49996222  0.74003406  1
  O  O230  1  0.60958039  1.00141518  0.24312191  1
  O  O231  1  0.72448294  1.05502493  0.78232262  1
  O  O232  1  0.36922548  0.00661002  0.27151775  1
  O  O233  1  0.35764117  0.02544421  0.73355084  1
  O  O234  1  0.39235305  0.40222028  0.30936443  1
  O  O235  1  0.35397522  0.51342663  0.74067142  1
  O  O236  1  0.89209443  0.00602751  0.28317113  1
  O  O237  1  0.93052450  -0.09253875  0.75252061  1
  O  O238  1  0.84526427  0.52746813  0.24096056  1
  O  O239  1  0.86446779  0.51252672  0.74280245  1
  O  O240  1  0.10092781  0.38994838  0.36441619  1
  O  O241  1  0.10048829  0.38362153  0.85968605  1
  O  O242  1  0.14166313  0.87255647  0.38184275  1
  O  O243  1  0.17979245  0.87403027  0.89950992  1
  O  O244  1  0.62174070  0.34465641  0.39118798  1
  O  O245  1  0.62187961  0.37350940  0.85376861  1
  O  O246  1  0.61353358  0.88850677  0.35307790  1
  O  O247  1  0.58629554  0.87395043  0.89511114  1
  O  O248  1  0.35924736  0.13980304  0.14764966  1
  O  O249  1  0.36201450  0.14146490  0.62849522  1
  O  O250  1  0.41070330  0.58430933  0.13004345  1
  O  O251  1  0.37212874  0.63959724  0.63765471  1
  O  O252  1  0.89177814  0.13219809  0.14460256  1
  O  O253  1  0.89256299  0.13924187  0.62225445  1
  O  O254  1  0.86399687  0.65694691  0.13966436  1
  O  O255  1  0.89498315  0.63957018  0.62817639  1
  O  O256  1  0.26804741  0.26055582  0.13443662  1
  O  O257  1  0.25286185  0.26357925  0.62863868  1
  O  O258  1  0.23529346  0.67966663  0.14020306  1
  O  O259  1  0.25449799  0.76574171  0.62249847  1
  O  O260  1  0.77439674  0.24612025  0.14781018  1
  O  O261  1  0.76285137  0.24784249  0.61630916  1
  O  O262  1  0.76868786  0.77899662  0.12970501  1
  O  O263  1  0.73350736  0.78217896  0.63737264  1
  O  O264  1  0.24269110  0.23407523  0.35887292  1
  O  O265  1  0.25764911  0.23756025  0.87608807  1
  O  O266  1  0.27588754  0.75377601  0.39321385  1
  O  O267  1  0.23216226  0.72544324  0.86190316  1
  O  O268  1  0.74073001  0.24253205  0.39122012  1
  O  O269  1  0.74046880  0.26614856  0.86494873  1
  O  O270  1  0.79058436  0.81571359  0.39068009  1
  O  O271  1  0.75803943  0.84380152  0.85771262  1
  O  O272  1  -0.02079752  0.07857832  0.03123544  1
  O  O273  1  0.01071362  0.12255243  0.50401677  1
  O  O274  1  0.00377907  0.62137264  -0.00763610  1
  O  O275  1  0.00122995  0.61289028  0.51528821  1
  O  O276  1  0.52731832  0.12094653  -0.01607449  1
  O  O277  1  0.49186273  0.11703678  0.51845812  1
  O  O278  1  0.52431416  0.63063153  -0.02840141  1
  O  O279  1  0.47855337  0.63466773  0.52166923  1
  O  O280  1  0.48862710  0.39790688  0.51340245  1
  O  O281  1  0.52034466  0.38773214  0.99018700  1
  O  O282  1  0.48027873  0.89650675  0.52414550  1
  O  O283  1  0.46775299  0.85366315  1.00225057  1
  O  O284  1  1.00158922  0.38997994  0.49428753  1
  O  O285  1  0.98779263  0.38018850  0.97437930  1
  O  O286  1  1.00165652  0.90082553  0.54569439  1
  O  O287  1  1.01987091  0.89793619  1.03954473  1
  O  O288  1  0.39875745  0.55589786  0.32929023  1
  O  O289  1  0.50179733  0.46974002  0.85106543  1
  O  O290  1  0.48184137  1.01737274  0.39610722  1
  O  O291  1  0.46077056  0.96706570  0.87772355  1
  O  O292  1  0.99296418  0.50325564  0.40390584  1
  O  O293  1  0.98284577  0.49106543  0.85897709  1
  O  O294  1  1.01393120  0.96888875  0.39232648  1
  O  O295  1  1.02049538  0.99665084  0.89591794  1
  O  O296  1  0.00839778  0.01683246  0.17389250  1
  O  O297  1  -0.00252452  0.02623724  0.62598647  1
  O  O298  1  -0.06060658  0.53197475  0.10647339  1
  O  O299  1  0.01262436  0.49545284  0.61534335  1
  O  O300  1  0.44473760  0.01916060  0.09748890  1
  O  O301  1  0.49075885  0.01555041  0.62225081  1
  O  O302  1  0.44489856  0.51900592  0.12684321  1
  O  O303  1  0.49304837  0.52873567  0.64361052  1
  O  O304  1  0.21517445  0.38310835  0.25026672  1
  O  O305  1  0.24519353  0.38460991  0.74838116  1
  O  O306  1  0.26316728  0.88229550  0.25235618  1
  O  O307  1  0.25624994  0.89568488  0.74084456  1
  O  O308  1  0.75203497  0.38851383  0.28330001  1
  O  O309  1  0.74255026  0.38700344  0.73191629  1
  O  O310  1  0.72180825  0.86185069  0.24096577  1
  O  O311  1  0.76402453  0.90164431  0.73013061  1
  O  O312  1  0.25636045  0.10776879  0.26751796  1
  O  O313  1  0.25522136  0.12525808  0.75482178  1
  O  O314  1  0.27753690  0.53110402  0.20010740  1
  O  O315  1  0.24510158  0.61446024  0.74802470  1
  O  O316  1  0.74603659  0.11217849  0.26330507  1
  O  O317  1  0.75923803  0.10659899  0.74206016  1
  O  O318  1  0.76614990  0.65980528  0.27342107  1
  O  O319  1  0.76287892  0.61509577  0.71485280  1
  O  O320  1  0.35946829  0.11859328  0.37651474  1
  O  O321  1  0.37644701  0.13541713  0.85644450  1
  O  O322  1  0.36595502  0.61276789  0.35901468  1
  O  O323  1  0.35438552  0.62616722  0.85901042  1
  O  O324  1  0.85125512  0.12772702  0.38396100  1
  O  O325  1  0.89752199  0.13650465  0.86800026  1
  O  O326  1  0.88967815  0.63214061  0.37374350  1
  O  O327  1  0.88342306  0.61487462  0.84811818  1
  O  O328  1  0.08091415  0.40925084  0.15643928  1
  O  O329  1  0.13402017  0.38298804  0.63236394  1
  O  O330  1  0.15604940  0.85250822  0.13173692  1
  O  O331  1  0.13954580  0.86976609  0.62518962  1
  O  O332  1  0.71931447  0.41716291  0.07710787  1
  O  O333  1  0.64708238  0.36537024  0.62676772  1
  O  O334  1  0.62037421  0.88717574  0.12799861  1
  O  O335  1  0.64667807  0.89446463  0.63775610  1
  O  O336  1  0.08568469  0.28943897  0.25226331  1
  O  O337  1  0.12753526  0.27150801  0.74566700  1
  O  O338  1  0.13856975  0.67923233  0.30678610  1
  O  O339  1  0.10989717  0.87957533  0.84678678  1
  O  O340  1  0.62273040  0.24469574  0.25573755  1
  O  O341  1  0.63060716  0.26300152  0.74984624  1
  O  O342  1  0.59775688  0.76593554  0.24319092  1
  O  O343  1  0.60122218  0.75245935  0.76113427  1
  O  O344  1  0.36995392  0.23480434  0.26898407  1
  O  O345  1  0.36950556  0.23922415  0.73503960  1
  O  O346  1  0.39332726  0.74282311  0.24403773  1
  O  O347  1  0.36269188  0.74372322  0.74265451  1
  O  O348  1  0.89521856  0.26129739  0.25186487  1
  O  O349  1  0.87154463  0.24101531  0.73926098  1
  O  O350  1  0.89146324  0.75072759  0.26874917  1
  O  O351  1  0.86771718  0.73492020  0.75566762  1
  O  O352  1  0.33704401  0.49235169  0.46929857  1
  O  O353  1  0.37280294  0.49300466  0.97750215  1
  O  O354  1  0.37184583  1.00037985  0.49578884  1
  O  O355  1  0.32217451  0.95983553  0.99977566  1
  O  O356  1  0.88076115  0.50363957  0.51453742  1
  O  O357  1  0.85615656  0.52057079  0.96582348  1
  O  O358  1  0.90415842  1.01280439  0.49653031  1
  O  O359  1  0.86210781  0.98749477  0.95870692  1
  O  O360  1  0.13039321  0.01091024  0.01378924  1
  O  O361  1  0.11294437  0.01976037  0.50483756  1
  O  O362  1  0.11141163  0.49713923  -0.00431301  1
  O  O363  1  0.13024832  0.49808157  0.51500254  1
  O  O364  1  0.64990700  0.01910159  -0.04530969  1
  O  O365  1  0.59957372  -0.00336753  0.50045729  1
  O  O366  1  0.62992874  0.53037122  -0.03356698  1
  O  O367  1  0.60744030  0.54707439  0.45815381  1
  O  O368  1  0.37786286  0.35997937  0.07113161  1
  O  O369  1  0.36092255  0.36361145  0.62727085  1
  O  O370  1  0.35851296  0.87153471  0.12420683  1
  O  O371  1  0.36522984  0.87290452  0.62757243  1
  O  O372  1  0.90760781  0.35417669  0.12432004  1
  O  O373  1  0.86411172  0.35956930  0.63229436  1
  O  O374  1  0.89799086  0.85371003  0.14348504  1
  O  O375  1  0.85167260  0.85922540  0.61770502  1
  O  O376  1  0.13416318  0.12116600  0.38662088  1
  O  O377  1  0.14495189  0.12768867  0.87722888  1
  O  O378  1  0.09598634  0.64560686  0.35882862  1
  O  O379  1  0.11846610  0.60917001  0.88115245  1
  O  O380  1  0.63971596  0.13702099  0.37564866  1
  O  O381  1  0.63607370  0.14520823  0.87155131  1
  O  O382  1  0.59144491  0.59615480  0.40798139  1
  O  O383  1  0.66546819  0.66476592  0.91798079  1
