# generated using pymatgen
data_VZnO4
_symmetry_space_group_name_H-M   'P 1'
_cell_length_a   16.96026176
_cell_length_b   16.95369790
_cell_length_c   16.96759841
_cell_angle_alpha   89.86548036
_cell_angle_beta   89.91554535
_cell_angle_gamma   89.84931259
_symmetry_Int_Tables_number   1
_chemical_formula_structural   VZnO4
_chemical_formula_sum   'V64 Zn64 O256'
_cell_volume   4878.81332020
_cell_formula_units_Z   64
loop_
 _symmetry_equiv_pos_site_id
 _symmetry_equiv_pos_as_xyz
  1  'x, y, z'
loop_
 _atom_site_type_symbol
 _atom_site_label
 _atom_site_symmetry_multiplicity
 _atom_site_fract_x
 _atom_site_fract_y
 _atom_site_fract_z
 _atom_site_occupancy
  V  V0  1  0.11791650  0.12156037  0.50048904  1
  V  V1  1  0.24713895  -0.00376511  0.24964977  1
  V  V2  1  0.26244007  0.75979424  0.48990819  1
  V  V3  1  0.37506705  0.37736042  -0.01081176  1
  V  V4  1  0.24223524  0.62820199  0.37337712  1
  V  V5  1  0.10606485  0.01423419  0.12912228  1
  V  V6  1  0.24389501  0.38300954  0.12580971  1
  V  V7  1  0.49354279  -0.01451674  0.49246261  1
  V  V8  1  0.75119487  0.37506317  0.13717335  1
  V  V9  1  0.12152411  0.75418883  0.86241877  1
  V  V10  1  0.23403884  0.87828303  0.11975409  1
  V  V11  1  0.11848299  -0.00395031  0.61980219  1
  V  V12  1  0.74445080  0.13847785  0.37867830  1
  V  V13  1  0.61551201  0.14745523  0.49405438  1
  V  V14  1  0.49095363  0.13114150  0.62066605  1
  V  V15  1  0.74763977  0.87522712  0.09912469  1
  V  V16  1  0.00985686  -0.00108141  -0.02723744  1
  V  V17  1  0.24771840  0.24777625  0.50252072  1
  V  V18  1  0.74172008  0.47836621  0.75642053  1
  V  V19  1  0.50681432  0.11865829  0.12009585  1
  V  V20  1  0.49140749  0.61840205  0.12316772  1
  V  V21  1  0.88203909  0.74080367  0.10101094  1
  V  V22  1  0.62406315  0.50309834  0.13232184  1
  V  V23  1  0.14162734  0.37258930  0.75446574  1
  V  V24  1  -0.00070706  0.34654769  0.88589952  1
  V  V25  1  0.90250639  0.75266601  0.60587853  1
  V  V26  1  0.12871343  0.62905475  0.51386917  1
  V  V27  1  0.23753023  0.24174624  -0.00555188  1
  V  V28  1  0.36976832  0.49887730  0.37537606  1
  V  V29  1  0.23485777  0.50298557  0.24724759  1
  V  V30  1  0.36726526  0.24539992  0.13273079  1
  V  V31  1  0.62010457  0.61744630  0.49752514  1
  V  V32  1  0.49140992  0.24914688  0.25421154  1
  V  V33  1  0.00120595  0.51012103  0.01393830  1
  V  V34  1  0.25356344  0.61223369  0.86812927  1
  V  V35  1  0.87379963  0.36617741  0.01085245  1
  V  V36  1  -0.01165495  0.24500477  0.24998452  1
  V  V37  1  0.86211289  0.50261518  0.38399293  1
  V  V38  1  0.49588146  0.49633823  -0.01390297  1
  V  V39  1  0.48367253  0.37788674  0.38391362  1
  V  V40  1  0.37811089  0.62609201  0.24823785  1
  V  V41  1  0.26014104  0.87341124  0.63498200  1
  V  V42  1  0.88849035  0.00317337  0.38223185  1
  V  V43  1  0.72714131  0.24419921  0.01739505  1
  V  V44  1  0.25134261  0.13112423  0.36960963  1
  V  V45  1  0.24391639  0.74239482  -0.00173728  1
  V  V46  1  0.61323568  0.37792847  0.25356553  1
  V  V47  1  0.51087759  0.87354057  0.85279414  1
  V  V48  1  0.61665429  -0.00717343  0.62607203  1
  V  V49  1  0.74723955  0.10796381  0.85421035  1
  V  V50  1  0.11613576  0.36782166  0.25433432  1
  V  V51  1  0.86415485  0.12843391  0.24063895  1
  V  V52  1  0.24995380  0.00580695  0.75332619  1
  V  V53  1  0.37863362  -0.00720997  0.88216005  1
  V  V54  1  0.63326131  0.63811383  -0.00629279  1
  V  V55  1  0.36508462  0.25167974  0.62265286  1
  V  V56  1  0.86970311  0.51553105  0.87851812  1
  V  V57  1  0.37144935  -0.01317740  0.37620621  1
  V  V58  1  0.74244416  0.86092705  0.61604358  1
  V  V59  1  0.38276458  0.76113911  0.12134597  1
  V  V60  1  0.37485946  0.13077722  0.75528033  1
  V  V61  1  0.39389735  0.61180905  0.75507945  1
  V  V62  1  0.30876787  0.42276645  0.55321919  1
  V  V63  1  0.38921253  0.74886613  0.63629072  1
  Zn  Zn64  1  0.18256212  0.19008955  0.18655505  1
  Zn  Zn65  1  0.17568466  0.18820798  0.68698978  1
  Zn  Zn66  1  0.19289340  0.69782573  0.19464874  1
  Zn  Zn67  1  0.19611221  0.68768878  0.69437166  1
  Zn  Zn68  1  0.67829723  0.18940058  0.19342128  1
  Zn  Zn69  1  0.71054121  0.13403832  0.66302343  1
  Zn  Zn70  1  0.72972178  0.71686438  0.21959409  1
  Zn  Zn71  1  0.77066998  0.68928660  0.72441042  1
  Zn  Zn72  1  0.30274180  0.31666059  0.31396131  1
  Zn  Zn73  1  0.30297645  0.31155181  0.81209342  1
  Zn  Zn74  1  0.31615113  0.81490354  0.30192458  1
  Zn  Zn75  1  0.31970848  0.80966624  0.81597414  1
  Zn  Zn76  1  0.80510614  0.31129473  0.31804068  1
  Zn  Zn77  1  0.80592473  0.29897145  0.83238748  1
  Zn  Zn78  1  0.82821340  0.82289048  0.32630309  1
  Zn  Zn79  1  0.84271690  0.84949038  0.74769671  1
  Zn  Zn80  1  0.11538317  0.44235974  0.56807126  1
  Zn  Zn81  1  0.18178091  0.42427652  0.93986497  1
  Zn  Zn82  1  0.19100667  0.93634853  0.44169528  1
  Zn  Zn83  1  0.19070435  0.93952979  0.94559987  1
  Zn  Zn84  1  0.67543220  0.43991926  0.42107596  1
  Zn  Zn85  1  0.68908806  0.44252166  0.94640040  1
  Zn  Zn86  1  0.67759332  0.94280812  0.42625951  1
  Zn  Zn87  1  0.71219610  0.91529935  0.89913307  1
  Zn  Zn88  1  0.31096460  0.06254911  0.06696995  1
  Zn  Zn89  1  0.31043769  0.06176954  0.55912984  1
  Zn  Zn90  1  0.31097391  0.56003892  0.05869442  1
  Zn  Zn91  1  0.30887410  0.58288619  0.57085937  1
  Zn  Zn92  1  0.81542723  0.04346274  0.01408925  1
  Zn  Zn93  1  0.77541486  0.02167394  0.51594669  1
  Zn  Zn94  1  0.81372222  0.56557865  0.06597950  1
  Zn  Zn95  1  0.80743105  0.56296011  0.58020020  1
  Zn  Zn96  1  0.42858120  0.43814400  0.18604616  1
  Zn  Zn97  1  0.45035753  0.44019295  0.68555206  1
  Zn  Zn98  1  0.43850436  0.94095809  0.19788697  1
  Zn  Zn99  1  0.43529098  0.94085835  0.68640888  1
  Zn  Zn100  1  0.94012331  0.44807686  0.19433830  1
  Zn  Zn101  1  0.97752839  0.45169739  0.74261032  1
  Zn  Zn102  1  0.89925205  0.96238493  0.16916259  1
  Zn  Zn103  1  0.92715843  0.93657152  0.56272041  1
  Zn  Zn104  1  0.06570521  0.06769218  0.30869367  1
  Zn  Zn105  1  0.08317321  -0.07249146  0.80330260  1
  Zn  Zn106  1  0.08165092  0.47098139  0.40763673  1
  Zn  Zn107  1  0.08552038  0.53851685  0.86550121  1
  Zn  Zn108  1  0.54315779  0.08411108  0.32556828  1
  Zn  Zn109  1  0.56054521  0.06565643  0.81575379  1
  Zn  Zn110  1  0.57823302  0.68105212  0.29750058  1
  Zn  Zn111  1  0.58060290  0.56098888  0.80910900  1
  Zn  Zn112  1  0.42568294  0.18598544  0.43608503  1
  Zn  Zn113  1  0.41050258  0.17168724  0.95585302  1
  Zn  Zn114  1  0.43177104  0.69209766  0.43315712  1
  Zn  Zn115  1  0.43808291  0.69262356  0.93536169  1
  Zn  Zn116  1  0.94445282  0.17722120  0.42151832  1
  Zn  Zn117  1  0.90798788  0.17826824  0.94661125  1
  Zn  Zn118  1  0.92692640  0.67735394  0.46581832  1
  Zn  Zn119  1  0.94091442  0.69196996  0.93521599  1
  Zn  Zn120  1  0.05901447  0.30929653  0.07157092  1
  Zn  Zn121  1  0.07345519  0.30439039  0.43397157  1
  Zn  Zn122  1  0.05275006  0.82154027  0.04483410  1
  Zn  Zn123  1  0.08312870  0.80933188  0.55985411  1
  Zn  Zn124  1  0.55307397  0.31602613  0.06874984  1
  Zn  Zn125  1  0.55313226  0.32407156  0.57735245  1
  Zn  Zn126  1  0.59673685  0.78765706  0.11559462  1
  Zn  Zn127  1  0.56328595  0.80944172  0.55507530  1
  O  O128  1  0.12037709  0.11310498  0.13009199  1
  O  O129  1  0.12806265  0.10926607  0.61551583  1
  O  O130  1  0.09206840  0.63651064  0.16077247  1
  O  O131  1  0.14708598  0.62690325  0.61350378  1
  O  O132  1  0.60604740  0.12294892  0.13818710  1
  O  O133  1  0.60459756  0.12164332  0.60834854  1
  O  O134  1  0.60631121  0.60842168  0.11049262  1
  O  O135  1  0.60715971  0.61810272  0.60000126  1
  O  O136  1  0.37415844  0.38278455  0.37267310  1
  O  O137  1  0.37284300  0.36634440  0.89139600  1
  O  O138  1  0.37219605  0.88724645  0.37179947  1
  O  O139  1  0.38045826  0.88990917  0.87309519  1
  O  O140  1  0.86133918  0.39740007  0.37736771  1
  O  O141  1  0.87391802  0.36837568  0.90556988  1
  O  O142  1  0.87803052  0.90376846  0.37463063  1
  O  O143  1  0.93012768  0.89190776  0.80821250  1
  O  O144  1  0.25504578  0.00036885  0.36989048  1
  O  O145  1  0.25641894  -0.00700146  0.85896037  1
  O  O146  1  0.25835330  0.51294187  0.36183248  1
  O  O147  1  0.24303771  0.51552476  0.88896179  1
  O  O148  1  0.75651349  0.02119535  0.39181144  1
  O  O149  1  0.77128436  0.01596986  0.90326373  1
  O  O150  1  0.75768122  0.50418260  0.36630405  1
  O  O151  1  0.76459993  0.49191867  0.87723457  1
  O  O152  1  0.25365185  0.49352702  0.13352599  1
  O  O153  1  0.25363580  0.48432958  0.60912907  1
  O  O154  1  0.24499620  0.99164141  0.12943066  1
  O  O155  1  0.25854964  0.98860872  0.63295186  1
  O  O156  1  0.73008583  0.49135740  0.12847320  1
  O  O157  1  0.76175417  0.49663160  0.65325439  1
  O  O158  1  0.81089857  0.96530091  0.09514350  1
  O  O159  1  0.71667394  1.02281520  0.61469190  1
  O  O160  1  0.01176282  0.37522220  0.24989863  1
  O  O161  1  -0.02761263  0.34417669  0.78833288  1
  O  O162  1  0.07577706  0.81410874  0.24952956  1
  O  O163  1  -0.01029438  0.87691792  0.75900584  1
  O  O164  1  0.49747128  0.36823879  0.25258545  1
  O  O165  1  0.51724116  0.29510817  0.81537679  1
  O  O166  1  0.51842019  0.87848666  0.26212116  1
  O  O167  1  0.49409222  0.87175987  0.75383050  1
  O  O168  1  0.49346505  0.14448193  0.24538028  1
  O  O169  1  0.48126438  0.12077077  0.73640462  1
  O  O170  1  0.48628252  0.62473883  0.23615645  1
  O  O171  1  0.49266007  0.62244653  0.76371115  1
  O  O172  1  0.98464868  0.13807317  0.25489466  1
  O  O173  1  0.92981879  0.07450453  0.74585872  1
  O  O174  1  1.03547484  0.64130927  0.20824996  1
  O  O175  1  0.99919499  0.59559137  0.66255242  1
  O  O176  1  0.36663289  0.26248589  0.01448138  1
  O  O177  1  0.35979036  0.24579375  0.50922287  1
  O  O178  1  0.36039337  0.74719242  0.01722806  1
  O  O179  1  0.36638654  0.73617041  0.51745353  1
  O  O180  1  0.85954023  0.26516280  0.02033741  1
  O  O181  1  0.90498000  0.26387541  0.50696824  1
  O  O182  1  0.86994055  0.75035614  0.00151502  1
  O  O183  1  0.89046285  0.77754939  0.50320953  1
  O  O184  1  0.13684877  0.23171567  0.50126060  1
  O  O185  1  0.13939840  0.25583911  1.01290715  1
  O  O186  1  0.15581590  0.74307912  0.50186836  1
  O  O187  1  0.14116277  0.75522347  0.99947638  1
  O  O188  1  0.60704390  0.24530978  0.50578010  1
  O  O189  1  0.62815062  0.24411605  1.02549128  1
  O  O190  1  0.62142146  0.72161060  0.49360677  1
  O  O191  1  0.61744800  0.73520574  1.01578086  1
  O  O192  1  0.48273865  0.24871256  0.13567695  1
  O  O193  1  0.47832949  0.24002435  0.61926153  1
  O  O194  1  0.48439273  0.73861538  0.11623807  1
  O  O195  1  0.48695186  0.75670456  0.61964046  1
  O  O196  1  0.99649574  0.25665377  0.14975216  1
  O  O197  1  0.96653250  0.28156646  0.54357372  1
  O  O198  1  0.98424484  0.75903152  0.10730316  1
  O  O199  1  1.00134800  0.76744423  0.62154023  1
  O  O200  1  0.00371629  0.25335319  0.36162093  1
  O  O201  1  -0.00903563  0.25022145  0.91385672  1
  O  O202  1  -0.01731987  0.71190422  0.35691115  1
  O  O203  1  0.02302291  0.74471393  0.87891287  1
  O  O204  1  0.47847286  0.26002168  0.36013182  1
  O  O205  1  0.51838562  0.24899616  0.87206279  1
  O  O206  1  0.51683696  0.73272106  0.37626845  1
  O  O207  1  0.49256866  0.78111980  0.89121823  1
  O  O208  1  0.24573544  0.13001321  0.49104515  1
  O  O209  1  0.25605301  0.14298060  1.00740707  1
  O  O210  1  0.25136073  0.63645177  0.48876469  1
  O  O211  1  0.25427175  0.63740115  0.99416381  1
  O  O212  1  0.72181542  0.13301642  0.49657459  1
  O  O213  1  0.75352363  0.14726808  1.00689125  1
  O  O214  1  0.72476579  0.61610375  0.50827044  1
  O  O215  1  0.72948440  0.61375614  1.00647235  1
  O  O216  1  0.25827674  0.37170113  0.00844018  1
  O  O217  1  0.24416808  0.36220835  0.50115937  1
  O  O218  1  0.25494694  0.86999604  0.01638695  1
  O  O219  1  0.25855222  0.86391297  0.50334610  1
  O  O220  1  0.75372364  0.37271760  0.02480342  1
  O  O221  1  0.74397975  0.38832925  0.48435330  1
  O  O222  1  0.73175029  0.86969826  0.00079103  1
  O  O223  1  0.74031338  0.89742553  0.51389891  1
  O  O224  1  0.13454485  0.49129845  0.25287371  1
  O  O225  1  0.08745190  0.47336557  0.77134998  1
  O  O226  1  0.13505035  1.00175985  0.23961973  1
  O  O227  1  0.14236099  0.99793631  0.73268249  1
  O  O228  1  0.60709170  0.48486402  0.23556359  1
  O  O229  1  0.64053477  0.47284832  0.77283244  1
  O  O230  1  0.57830183  0.92086380  0.29310847  1
  O  O231  1  0.60134721  1.00782030  0.72270458  1
  O  O232  1  0.35968635  -0.00050503  0.26352931  1
  O  O233  1  0.36575900  0.01056029  0.75511840  1
  O  O234  1  0.36439225  0.50939271  0.25460007  1
  O  O235  1  0.38711482  0.51095857  0.74043679  1
  O  O236  1  0.87360586  0.02465872  0.26534841  1
  O  O237  1  0.89128566  0.01965015  0.71829426  1
  O  O238  1  0.87839539  0.50751939  0.27867213  1
  O  O239  1  0.87891128  0.49956095  0.77631450  1
  O  O240  1  0.13222209  0.37817980  0.35635395  1
  O  O241  1  0.10328063  0.36327211  0.87700104  1
  O  O242  1  0.08958593  0.88417469  0.40490245  1
  O  O243  1  0.13541006  0.86166276  0.88029087  1
  O  O244  1  0.60140198  0.38451194  0.36001465  1
  O  O245  1  0.65228788  0.34089934  0.90093269  1
  O  O246  1  0.62273046  0.87829923  0.34619384  1
  O  O247  1  0.60927322  0.89508860  0.86266976  1
  O  O248  1  0.37281982  0.14286391  0.12741733  1
  O  O249  1  0.37521159  0.12995211  0.63052925  1
  O  O250  1  0.37657509  0.62679320  0.13007740  1
  O  O251  1  0.37581267  0.63641135  0.64325353  1
  O  O252  1  0.85809707  0.12519313  0.14498195  1
  O  O253  1  0.86593624  0.14448876  0.59970733  1
  O  O254  1  0.86795548  0.64309234  0.12844732  1
  O  O255  1  0.87820755  0.64882980  0.58116723  1
  O  O256  1  0.25677581  0.25870757  0.12531349  1
  O  O257  1  0.25579890  0.24092814  0.61530661  1
  O  O258  1  0.25026194  0.76222182  0.11930312  1
  O  O259  1  0.26034051  0.76414954  0.62270164  1
  O  O260  1  0.74064510  0.26651952  0.12877785  1
  O  O261  1  0.81843300  0.19150613  0.63235847  1
  O  O262  1  0.77011080  0.76900655  0.12205418  1
  O  O263  1  0.73166469  0.76166534  0.62793213  1
  O  O264  1  0.25351798  0.23675518  0.38092026  1
  O  O265  1  0.25147295  0.25392892  0.89580234  1
  O  O266  1  0.26883630  0.74649104  0.38456517  1
  O  O267  1  0.25070557  0.74875344  0.88940543  1
  O  O268  1  0.75200084  0.23873806  0.38679027  1
  O  O269  1  0.71131864  0.28539949  0.90838511  1
  O  O270  1  0.78022838  0.72914475  0.31823813  1
  O  O271  1  0.77572408  0.81020528  0.85207129  1
  O  O272  1  0.12428350  0.13589694  -0.11881064  1
  O  O273  1  0.01966374  0.12701069  0.49377989  1
  O  O274  1  -0.00734118  0.60845269  -0.00078721  1
  O  O275  1  0.03109205  0.64421013  0.49911010  1
  O  O276  1  0.49432834  0.13421340  0.02001942  1
  O  O277  1  0.49954384  0.12360169  0.50112618  1
  O  O278  1  0.49086020  0.60899732  0.00546099  1
  O  O279  1  0.51551147  0.61399648  0.49058278  1
  O  O280  1  0.49751089  0.36634648  0.47990728  1
  O  O281  1  0.48410052  0.38306522  1.00677984  1
  O  O282  1  0.50143939  0.88708146  0.49412965  1
  O  O283  1  0.52706276  0.90620522  1.00244822  1
  O  O284  1  1.04467597  0.39666953  0.49132307  1
  O  O285  1  0.98313915  0.37548756  1.01080521  1
  O  O286  1  1.03800451  0.86520631  0.45960078  1
  O  O287  1  0.98560117  0.90430662  0.99543139  1
  O  O288  1  0.47676707  0.48552433  0.37211547  1
  O  O289  1  0.50359530  0.49566333  0.88949342  1
  O  O290  1  0.48194599  1.00770699  0.38086765  1
  O  O291  1  0.48473515  0.99460961  0.86738156  1
  O  O292  1  0.96675018  0.50145180  0.39296322  1
  O  O293  1  0.97795552  0.48108475  0.89527418  1
  O  O294  1  0.98757018  1.01673441  0.37286422  1
  O  O295  1  1.03176006  1.00164532  0.87626273  1
  O  O296  1  0.00769540  -0.00252159  0.13869968  1
  O  O297  1  0.02090335  -0.02172624  0.61731537  1
  O  O298  1  -0.00202720  0.49728769  0.11436410  1
  O  O299  1  0.00206527  0.52550164  0.63941173  1
  O  O300  1  0.48143744  0.02232589  0.13595898  1
  O  O301  1  0.49480265  0.00710295  0.60658108  1
  O  O302  1  0.49944441  0.50419346  0.11983271  1
  O  O303  1  0.54390015  0.40945170  0.64532453  1
  O  O304  1  0.24254304  0.38382664  0.24293362  1
  O  O305  1  0.23893152  0.39505572  0.76952197  1
  O  O306  1  0.25125369  0.88294838  0.23284752  1
  O  O307  1  0.25892434  0.88356179  0.73971077  1
  O  O308  1  0.72528405  0.36742954  0.24803074  1
  O  O309  1  0.77212089  0.37918744  0.76336529  1
  O  O310  1  0.81799522  0.86968234  0.21395330  1
  O  O311  1  0.74525673  0.89760664  0.71262014  1
  O  O312  1  0.23982146  0.11835026  0.26452429  1
  O  O313  1  0.25825061  0.11126221  0.74205965  1
  O  O314  1  0.25464918  0.62154048  0.25306906  1
  O  O315  1  0.26210882  0.62232120  0.76426826  1
  O  O316  1  0.75189341  0.13775748  0.26630771  1
  O  O317  1  0.75799906  0.09193828  0.75689455  1
  O  O318  1  0.66999633  0.62518832  0.25479781  1
  O  O319  1  0.73557402  0.59251260  0.75592728  1
  O  O320  1  0.35551371  0.11257513  0.37805412  1
  O  O321  1  0.37938670  0.12021172  0.85942803  1
  O  O322  1  0.37063907  0.61883114  0.36499081  1
  O  O323  1  0.36685488  0.62933733  0.86584533  1
  O  O324  1  0.85762758  0.12347590  0.37646413  1
  O  O325  1  0.82119072  0.18812540  0.86532374  1
  O  O326  1  0.86324195  0.60730438  0.39087673  1
  O  O327  1  0.87378634  0.61458415  0.88431265  1
  O  O328  1  0.13752263  0.37337087  0.13652051  1
  O  O329  1  0.11973444  0.37905835  0.65525636  1
  O  O330  1  0.13249313  0.88565624  0.11769361  1
  O  O331  1  0.14936586  0.88722357  0.61593002  1
  O  O332  1  0.62470496  0.38485125  0.13302912  1
  O  O333  1  0.67481780  0.30625086  0.64494166  1
  O  O334  1  0.65502906  0.88939146  0.13593260  1
  O  O335  1  0.62298967  0.88783875  0.61408934  1
  O  O336  1  0.11727391  0.26177192  0.24984863  1
  O  O337  1  0.14220224  0.26769747  0.75688944  1
  O  O338  1  0.12757736  0.76792602  0.27620253  1
  O  O339  1  0.13505609  0.75591030  0.76260923  1
  O  O340  1  0.60024927  0.26477913  0.24480904  1
  O  O341  1  0.67849382  0.25310536  0.69735102  1
  O  O342  1  0.62078417  0.75449151  0.22137866  1
  O  O343  1  0.73312832  0.74908882  0.83601419  1
  O  O344  1  0.37637145  0.26057774  0.23893778  1
  O  O345  1  0.35891990  0.23681602  0.74109868  1
  O  O346  1  0.36463688  0.73723517  0.23214888  1
  O  O347  1  0.37649059  0.74297746  0.74116933  1
  O  O348  1  0.87981800  0.24572814  0.25972816  1
  O  O349  1  0.84700008  0.35678852  0.62720408  1
  O  O350  1  0.94280752  0.74150220  0.30190998  1
  O  O351  1  0.86773534  0.74271252  0.71111373  1
  O  O352  1  0.35988042  0.49291820  0.49362917  1
  O  O353  1  0.38160514  0.48699273  1.00130854  1
  O  O354  1  0.38095794  1.00055030  0.48808975  1
  O  O355  1  0.36508189  1.01180959  0.97945511  1
  O  O356  1  0.85191251  0.49704996  0.48798512  1
  O  O357  1  0.87630561  0.48914537  1.00350066  1
  O  O358  1  0.88643059  1.01347559  0.49257361  1
  O  O359  1  0.93002966  1.07087681  0.98538820  1
  O  O360  1  0.11256191  0.00480543  0.01434944  1
  O  O361  1  0.13937260  0.00955564  0.51300369  1
  O  O362  1  0.10153086  0.49564758  -0.01674504  1
  O  O363  1  0.13760362  0.52448054  0.49143778  1
  O  O364  1  0.56789519  -0.03409131  0.01114369  1
  O  O365  1  0.60072725  0.00963389  0.49721777  1
  O  O366  1  0.60674425  0.49412994  0.01155006  1
  O  O367  1  0.62422803  0.51189888  0.49558498  1
  O  O368  1  0.36165977  0.36828231  0.11999515  1
  O  O369  1  0.37060414  0.36844830  0.62112918  1
  O  O370  1  0.37893728  0.86240418  0.13390974  1
  O  O371  1  0.36834980  0.86453536  0.62634511  1
  O  O372  1  0.85473298  0.38921482  0.13641550  1
  O  O373  1  0.91241291  0.38709739  0.63169621  1
  O  O374  1  0.89127232  0.83656620  0.18095621  1
  O  O375  1  0.86039198  0.86413704  0.61892506  1
  O  O376  1  0.14052773  0.11135415  0.38953953  1
  O  O377  1  0.07957653  0.14530232  0.82533828  1
  O  O378  1  0.14402333  0.63312700  0.37798392  1
  O  O379  1  0.14554433  0.63995972  0.87235625  1
  O  O380  1  0.62759249  0.12936623  0.38283157  1
  O  O381  1  0.64672813  0.12319164  0.86172299  1
  O  O382  1  0.62506982  0.61405898  0.39121729  1
  O  O383  1  0.61337861  0.62645249  0.89548279  1
