# generated using pymatgen
data_VZnO4
_symmetry_space_group_name_H-M   'P 1'
_cell_length_a   16.99200150
_cell_length_b   16.93767117
_cell_length_c   16.98325848
_cell_angle_alpha   90.39845456
_cell_angle_beta   90.11699009
_cell_angle_gamma   90.48398055
_symmetry_Int_Tables_number   1
_chemical_formula_structural   VZnO4
_chemical_formula_sum   'V64 Zn64 O256'
_cell_volume   4887.56223011
_cell_formula_units_Z   64
loop_
 _symmetry_equiv_pos_site_id
 _symmetry_equiv_pos_as_xyz
  1  'x, y, z'
loop_
 _atom_site_type_symbol
 _atom_site_label
 _atom_site_symmetry_multiplicity
 _atom_site_fract_x
 _atom_site_fract_y
 _atom_site_fract_z
 _atom_site_occupancy
  V  V0  1  -0.01116365  0.00538629  0.49536897  1
  V  V1  1  0.12152673  0.75164512  0.36265744  1
  V  V2  1  0.38545256  0.88095152  0.49501614  1
  V  V3  1  0.63933803  0.11682563  0.00851682  1
  V  V4  1  0.87817324  0.37382369  0.48908443  1
  V  V5  1  0.62198481  0.46485725  0.63180054  1
  V  V6  1  0.12708790  0.25065801  0.39205238  1
  V  V7  1  0.74530378  0.62813767  0.85317155  1
  V  V8  1  0.37280332  0.00029982  0.88265834  1
  V  V9  1  0.47302683  0.25261944  0.26641911  1
  V  V10  1  0.87129839  0.74700032  0.11296274  1
  V  V11  1  0.74676458  0.87800200  0.10543426  1
  V  V12  1  0.76276350  0.25909847  0.00534361  1
  V  V13  1  0.25254910  0.01797346  0.24374260  1
  V  V14  1  0.11138967  0.38976120  0.24877770  1
  V  V15  1  0.48404397  0.15218665  0.10780479  1
  V  V16  1  0.37865140  0.62077185  0.75089517  1
  V  V17  1  -0.00468276  0.88007624  0.37939186  1
  V  V18  1  0.64363029  0.87316743  0.76533912  1
  V  V19  1  0.38321107  0.12995528  0.76158838  1
  V  V20  1  0.13880414  0.50732540  0.63870066  1
  V  V21  1  0.75505239  0.11396689  0.86267143  1
  V  V22  1  0.24832931  0.75560574  0.50445926  1
  V  V23  1  0.25248285  0.38312526  0.10716684  1
  V  V24  1  0.87070558  0.60759023  0.26894905  1
  V  V25  1  0.87594379  0.11736390  0.25324666  1
  V  V26  1  0.16291273  0.36584002  0.75264830  1
  V  V27  1  0.26090179  0.50526879  0.24780621  1
  V  V28  1  0.36804615  0.86647450  0.01116062  1
  V  V29  1  0.14170238  0.00745816  0.61285347  1
  V  V30  1  0.22015728  0.64306665  0.86133966  1
  V  V31  1  0.49923141  0.12274749  0.62926024  1
  V  V32  1  -0.01108496  0.24914737  0.74471725  1
  V  V33  1  0.88497878  0.63015632  0.71336113  1
  V  V34  1  -0.00841516  0.12645103  0.62447442  1
  V  V35  1  0.22835113  0.87393305  0.13561234  1
  V  V36  1  0.73900817  0.00076779  0.26229286  1
  V  V37  1  0.62352589  0.26693905  0.87998015  1
  V  V38  1  0.12262159  0.23397367  0.88309181  1
  V  V39  1  0.37938764  0.74506251  0.14370215  1
  V  V40  1  0.49854005  0.86416386  0.87314588  1
  V  V41  1  0.38308381  0.75202671  0.63307139  1
  V  V42  1  0.60823354  -0.01112414  0.63320125  1
  V  V43  1  -0.01904504  0.74733324  0.25790255  1
  V  V44  1  0.10069367  0.61759400  0.49563773  1
  V  V45  1  0.64343810  0.37504392  0.24429884  1
  V  V46  1  0.73391045  0.60986422  0.38174649  1
  V  V47  1  0.89093844  -0.00803232  0.87813634  1
  V  V48  1  -0.00710278  0.38282797  0.87606409  1
  V  V49  1  0.88782335  0.25446209  0.11782072  1
  V  V50  1  0.26651547  0.62572329  0.37156117  1
  V  V51  1  0.11102251  0.51209161  0.10921491  1
  V  V52  1  0.25049049  0.23583000  -0.00088298  1
  V  V53  1  0.50093749  0.51399122  0.01504636  1
  V  V54  1  0.24571448  0.00006578  0.76902624  1
  V  V55  1  0.50104229  -0.00063359  0.01286224  1
  V  V56  1  0.61900251  0.77760248  0.40088104  1
  V  V57  1  0.00633342  0.24393014  0.24775451  1
  V  V58  1  0.78410707  0.89254316  0.58993146  1
  V  V59  1  0.50251526  0.53333263  0.50889374  1
  V  V60  1  0.12142085  0.86520835  0.74517610  1
  V  V61  1  0.00434186  0.84278724  0.88275201  1
  V  V62  1  0.64796406  0.24280013  0.37122899  1
  V  V63  1  0.76025442  0.47762747  0.74124720  1
  Zn  Zn64  1  0.18415470  0.19519289  0.17579197  1
  Zn  Zn65  1  0.18480961  0.17466722  0.70183103  1
  Zn  Zn66  1  0.19888332  0.69254137  0.18904458  1
  Zn  Zn67  1  0.18431063  0.68342494  0.67943516  1
  Zn  Zn68  1  0.69399296  0.19111471  0.18634881  1
  Zn  Zn69  1  0.65582872  0.18210340  0.70623120  1
  Zn  Zn70  1  0.74388003  0.74380442  0.24506566  1
  Zn  Zn71  1  0.70402307  0.72391786  0.68650264  1
  Zn  Zn72  1  0.28121458  0.29873589  0.28739104  1
  Zn  Zn73  1  0.32299426  0.29779406  0.84753473  1
  Zn  Zn74  1  0.30903009  0.82178024  0.31098108  1
  Zn  Zn75  1  0.30692745  0.81172109  0.81302212  1
  Zn  Zn76  1  0.81542955  0.30638135  0.30489304  1
  Zn  Zn77  1  0.81089181  0.30428455  0.81670312  1
  Zn  Zn78  1  0.78394098  0.85193034  0.38000643  1
  Zn  Zn79  1  0.83556673  0.81135779  0.79162370  1
  Zn  Zn80  1  0.18178467  0.44311238  0.42672129  1
  Zn  Zn81  1  0.16829940  0.44168963  0.93052054  1
  Zn  Zn82  1  0.19193794  0.93984030  0.42334197  1
  Zn  Zn83  1  0.19112409  0.84045080  0.93524766  1
  Zn  Zn84  1  0.66766072  0.42925687  0.43944033  1
  Zn  Zn85  1  0.71789268  0.44868434  0.93818671  1
  Zn  Zn86  1  0.67768326  0.96381972  0.44395907  1
  Zn  Zn87  1  0.68713628  0.93775413  0.93733588  1
  Zn  Zn88  1  0.30622804  0.05520973  0.06561184  1
  Zn  Zn89  1  0.32885250  0.05155012  0.57900726  1
  Zn  Zn90  1  0.31083382  0.56415609  0.05973531  1
  Zn  Zn91  1  0.30869384  0.56791452  0.55888401  1
  Zn  Zn92  1  0.83416606  0.05563940  0.07116315  1
  Zn  Zn93  1  0.80735431  0.04924386  0.69492592  1
  Zn  Zn94  1  0.79026467  0.58349117  0.06327384  1
  Zn  Zn95  1  0.73576739  0.60114136  0.58541236  1
  Zn  Zn96  1  0.43690296  0.42286694  0.19153357  1
  Zn  Zn97  1  0.41747454  0.47281368  0.65365241  1
  Zn  Zn98  1  0.42391396  0.95456484  0.19226245  1
  Zn  Zn99  1  0.42680364  0.92811328  0.68964299  1
  Zn  Zn100  1  0.93255493  0.44072072  0.17448839  1
  Zn  Zn101  1  0.97720579  0.46737016  0.71739973  1
  Zn  Zn102  1  0.89204266  0.90632283  0.22346181  1
  Zn  Zn103  1  0.94982770  0.94395205  0.69355400  1
  Zn  Zn104  1  0.08623424  0.06191247  0.32080202  1
  Zn  Zn105  1  0.05952442  0.06093864  0.80718623  1
  Zn  Zn106  1  0.05832459  0.56640436  0.31140177  1
  Zn  Zn107  1  0.01647016  0.59875369  0.82774662  1
  Zn  Zn108  1  0.57252641  0.08043699  0.26857615  1
  Zn  Zn109  1  0.56562965  0.05448361  0.82291454  1
  Zn  Zn110  1  0.57368884  0.54280059  0.33514609  1
  Zn  Zn111  1  0.58947289  0.60604173  0.73659161  1
  Zn  Zn112  1  0.52786736  0.14408937  0.43125755  1
  Zn  Zn113  1  0.44054824  0.19276233  0.94115844  1
  Zn  Zn114  1  0.44391360  0.70546164  0.43298072  1
  Zn  Zn115  1  0.42055388  0.68998693  0.92892143  1
  Zn  Zn116  1  0.95607128  0.18532020  0.42757221  1
  Zn  Zn117  1  0.93857356  0.18336788  0.92755670  1
  Zn  Zn118  1  0.88715584  0.60287768  0.49489556  1
  Zn  Zn119  1  0.87991470  0.69084964  0.91283429  1
  Zn  Zn120  1  0.06302501  0.32091656  0.05885980  1
  Zn  Zn121  1  0.07017369  0.33065284  0.58164499  1
  Zn  Zn122  1  0.05904830  0.78289653  0.07086638  1
  Zn  Zn123  1  0.08496152  0.82800595  0.55176475  1
  Zn  Zn124  1  0.58069030  0.31610070  0.05624017  1
  Zn  Zn125  1  0.56734380  0.28597692  0.56227490  1
  Zn  Zn126  1  0.55475266  0.82322279  0.08145286  1
  Zn  Zn127  1  0.56019011  0.81140672  0.57472911  1
  O  O128  1  0.10637651  0.10101437  0.14705191  1
  O  O129  1  0.12115336  0.11048314  0.62979805  1
  O  O130  1  0.13181326  0.62904859  0.11420959  1
  O  O131  1  0.12320649  0.61218588  0.61078033  1
  O  O132  1  0.61716581  0.13535679  0.10887557  1
  O  O133  1  0.61137261  0.09934657  0.64501941  1
  O  O134  1  0.65881313  0.69622285  0.03196829  1
  O  O135  1  0.64455783  0.64096616  0.64022184  1
  O  O136  1  0.32279343  0.35952720  0.44501720  1
  O  O137  1  0.41566552  0.38435915  0.84342333  1
  O  O138  1  0.37018118  0.86091627  0.39583829  1
  O  O139  1  0.37723355  0.87948751  0.89258917  1
  O  O140  1  0.87876521  0.37148285  0.38365435  1
  O  O141  1  0.89402455  0.36696696  0.86749175  1
  O  O142  1  0.89822699  0.86924764  0.38895723  1
  O  O143  1  0.89963930  0.87858074  0.86875467  1
  O  O144  1  0.19266381  0.00725756  0.33168960  1
  O  O145  1  0.25827654  -0.00216866  0.87166175  1
  O  O146  1  0.24808459  0.51508327  0.35938064  1
  O  O147  1  0.24271517  0.53644747  0.90077545  1
  O  O148  1  0.73725476  0.01452145  0.36214744  1
  O  O149  1  0.74919077  0.01255396  0.87536674  1
  O  O150  1  0.72879317  0.51033809  0.38141501  1
  O  O151  1  0.75157695  0.50904784  0.84635849  1
  O  O152  1  0.24014787  0.50200767  0.13037096  1
  O  O153  1  0.23019350  0.49064098  0.60158944  1
  O  O154  1  0.24657124  0.98695214  0.13451044  1
  O  O155  1  0.24258710  1.00408885  0.64055300  1
  O  O156  1  0.71946627  0.50099644  0.03899507  1
  O  O157  1  0.73007938  0.48976300  0.62730551  1
  O  O158  1  0.76876489  0.97925056  0.13399249  1
  O  O159  1  0.73766334  0.97836926  0.63326915  1
  O  O160  1  0.01053861  0.37400402  0.23511520  1
  O  O161  1  0.01110102  0.35424908  0.74839957  1
  O  O162  1  -0.00737313  0.86250175  0.26754952  1
  O  O163  1  0.01736405  0.88143594  0.75989252  1
  O  O164  1  0.50403023  0.35002254  0.24290126  1
  O  O165  1  0.46533851  0.38609292  0.78941883  1
  O  O166  1  0.49557479  0.92452423  0.28611720  1
  O  O167  1  0.48638335  0.87574911  0.77439491  1
  O  O168  1  0.50246603  0.15648049  0.21586376  1
  O  O169  1  0.48718861  0.11200757  0.75846299  1
  O  O170  1  0.54625798  0.64016056  0.23566647  1
  O  O171  1  0.47839242  0.62753695  0.75377564  1
  O  O172  1  1.00018281  0.14222752  0.24989749  1
  O  O173  1  1.00961231  0.13661140  0.73684087  1
  O  O174  1  0.98389151  0.63806573  0.26091995  1
  O  O175  1  0.98493850  0.58836689  0.70949575  1
  O  O176  1  0.34900499  0.25840469  -0.03154767  1
  O  O177  1  0.35179752  0.29490158  0.46776571  1
  O  O178  1  0.37210912  0.76564852  0.00606779  1
  O  O179  1  0.36130354  0.75311833  0.50894611  1
  O  O180  1  0.87219658  0.23391836  0.00926045  1
  O  O181  1  0.88259669  0.26910504  0.48183557  1
  O  O182  1  0.88390440  0.73852476  0.01577098  1
  O  O183  1  0.92903693  0.75279144  0.55401718  1
  O  O184  1  0.11470552  0.28263264  0.48641066  1
  O  O185  1  0.13091201  0.25508934  0.98970424  1
  O  O186  1  0.13178290  0.73830411  0.49207209  1
  O  O187  1  0.10658164  0.67465853  1.04964047  1
  O  O188  1  0.60889781  0.23902703  0.47217717  1
  O  O189  1  0.64873991  0.23972008  0.99803180  1
  O  O190  1  0.62867768  0.76375705  0.49985378  1
  O  O191  1  0.61720847  0.74356223  0.99502572  1
  O  O192  1  0.49034751  0.25018187  0.08656449  1
  O  O193  1  0.52490793  0.21959544  0.64655359  1
  O  O194  1  0.47987671  0.75385592  0.12562616  1
  O  O195  1  0.48127233  0.74649619  0.62804521  1
  O  O196  1  0.99581156  0.25280171  0.12713427  1
  O  O197  1  1.00840442  0.23790591  0.63321079  1
  O  O198  1  0.98009755  0.75346392  0.14898093  1
  O  O199  1  0.98753880  0.75752930  0.59801636  1
  O  O200  1  0.01253038  0.26214289  0.35176812  1
  O  O201  1  0.00764162  0.25272726  0.86393419  1
  O  O202  1  0.01046120  0.75931653  0.37036539  1
  O  O203  1  -0.01152720  0.74677559  0.86665119  1
  O  O204  1  0.48260135  0.23367542  0.36339297  1
  O  O205  1  0.52412518  0.25533994  0.89850089  1
  O  O206  1  0.52498404  0.74994862  0.36956280  1
  O  O207  1  0.49375263  0.76604285  0.88862514  1
  O  O208  1  0.27087251  0.16629644  0.53826013  1
  O  O209  1  0.24579988  0.13838070  1.01576489  1
  O  O210  1  0.24795751  0.63420780  0.48139452  1
  O  O211  1  0.24640842  0.59305948  0.96397364  1
  O  O212  1  0.74757737  0.17769954  0.55735708  1
  O  O213  1  0.74233316  0.11670419  1.00348568  1
  O  O214  1  0.77153788  0.63190401  0.47929892  1
  O  O215  1  0.78064839  0.62094783  0.95340903  1
  O  O216  1  0.24277424  0.38796914  0.00545243  1
  O  O217  1  0.26192971  0.38796592  0.49146551  1
  O  O218  1  0.26018306  0.88079264  0.01527287  1
  O  O219  1  0.24433550  0.85656743  0.48792848  1
  O  O220  1  0.77116595  0.35494154  -0.00861195  1
  O  O221  1  0.77368107  0.37917274  0.48126729  1
  O  O222  1  0.74923061  0.87432890  0.00581377  1
  O  O223  1  0.76540569  0.89392474  0.48737339  1
  O  O224  1  0.13064052  0.49936835  0.23971389  1
  O  O225  1  0.14652808  0.47612478  0.73906767  1
  O  O226  1  0.10575351  1.04218404  0.19475957  1
  O  O227  1  0.13855532  1.00005662  0.75087236  1
  O  O228  1  0.61111344  0.47247331  0.25850009  1
  O  O229  1  0.63508837  0.49342909  0.73442049  1
  O  O230  1  0.64245479  0.99899179  0.23648151  1
  O  O231  1  0.62172794  0.98490436  0.75138278  1
  O  O232  1  0.34928166  0.00398858  0.26292412  1
  O  O233  1  0.36186943  -0.00600165  0.76476553  1
  O  O234  1  0.35846775  0.49347535  0.24470280  1
  O  O235  1  0.36178003  0.52038778  0.73760918  1
  O  O236  1  0.89114199  0.01802502  0.24763215  1
  O  O237  1  0.87637545  -0.00450324  0.76710786  1
  O  O238  1  0.87498909  0.51272622  0.23845292  1
  O  O239  1  0.86112425  0.48897469  0.72243544  1
  O  O240  1  0.13091094  0.37120659  0.35004800  1
  O  O241  1  0.11903920  0.36416061  0.86127293  1
  O  O242  1  0.12081335  0.85542381  0.37748339  1
  O  O243  1  0.11355033  0.86601153  0.86052065  1
  O  O244  1  0.62803813  0.35197861  0.36518748  1
  O  O245  1  0.64437944  0.36436314  0.89985439  1
  O  O246  1  0.62336456  0.87777610  0.38683181  1
  O  O247  1  0.60788785  0.88192887  0.87316882  1
  O  O248  1  0.38669066  0.13202447  0.10366595  1
  O  O249  1  0.38829628  0.11740718  0.65097667  1
  O  O250  1  0.35322315  0.64853413  0.12126489  1
  O  O251  1  0.35476258  0.64368124  0.63789359  1
  O  O252  1  0.87927026  0.13883449  0.13958512  1
  O  O253  1  0.89392443  0.11184098  0.63382697  1
  O  O254  1  0.85332086  0.64222521  0.14024042  1
  O  O255  1  0.85673146  0.61455659  0.61154684  1
  O  O256  1  0.23656736  0.27068303  0.10578408  1
  O  O257  1  0.25417839  0.21534865  0.59156767  1
  O  O258  1  0.25913158  0.77126615  0.13175590  1
  O  O259  1  0.24296572  0.74901579  0.60454405  1
  O  O260  1  0.76561790  0.24547149  0.11156053  1
  O  O261  1  0.73961561  0.22241567  0.61569885  1
  O  O262  1  0.76022385  0.76472500  0.13657826  1
  O  O263  1  0.75689373  0.80294044  0.62702197  1
  O  O264  1  0.22655451  0.25099670  0.36876346  1
  O  O265  1  0.23020950  0.24088768  0.88817763  1
  O  O266  1  0.23729059  0.73845139  0.37213337  1
  O  O267  1  0.23908863  0.74757474  0.88447620  1
  O  O268  1  0.74742029  0.23855274  0.37102723  1
  O  O269  1  0.75422601  0.23137246  0.89046098  1
  O  O270  1  0.72036348  0.75696452  0.35495123  1
  O  O271  1  0.78204771  0.72963937  0.85233780  1
  O  O272  1  -0.01512888  0.12066074  0.01722221  1
  O  O273  1  -0.00009704  0.11861853  0.51084642  1
  O  O274  1  -0.04625322  0.56468472  -0.01513992  1
  O  O275  1  0.00235997  0.62239162  0.49603371  1
  O  O276  1  0.51096547  0.11767304  0.00205971  1
  O  O277  1  0.48506313  0.11858600  0.52955333  1
  O  O278  1  0.47824218  0.61501649  -0.00244958  1
  O  O279  1  0.50017036  0.63254524  0.50526326  1
  O  O280  1  0.45083855  0.33986066  0.55880072  1
  O  O281  1  0.51767484  0.41103736  1.02291089  1
  O  O282  1  0.48396181  0.87160558  0.50724805  1
  O  O283  1  0.48932677  0.88307216  1.00180269  1
  O  O284  1  0.98074872  0.37523651  0.49875218  1
  O  O285  1  1.00962697  0.37861889  0.97610909  1
  O  O286  1  1.01521547  0.89397400  0.49016510  1
  O  O287  1  1.02402721  0.84444718  0.98217926  1
  O  O288  1  0.49928223  0.50506183  0.41068511  1
  O  O289  1  0.52956450  0.49756288  0.91924648  1
  O  O290  1  0.48297691  0.96429876  0.35253392  1
  O  O291  1  0.48950726  0.98985288  0.89296603  1
  O  O292  1  1.01791195  0.47629755  0.35980953  1
  O  O293  1  1.00805875  0.47949590  0.84380583  1
  O  O294  1  1.01571613  0.99071333  0.38272498  1
  O  O295  1  0.99121063  1.00512151  0.87728384  1
  O  O296  1  0.03636694  0.00139861  0.04029926  1
  O  O297  1  0.01363252  0.01061169  0.61093853  1
  O  O298  1  0.01389541  0.51084130  0.13069261  1
  O  O299  1  0.05540420  0.44889605  0.61558420  1
  O  O300  1  0.49169332  0.01156975  0.11626424  1
  O  O301  1  0.50188645  0.00068672  0.63985199  1
  O  O302  1  0.47460633  0.50732336  0.11870001  1
  O  O303  1  0.52358405  0.50870944  0.62759720  1
  O  O304  1  0.23525470  0.39048415  0.23419628  1
  O  O305  1  0.25888736  0.36521264  0.77902432  1
  O  O306  1  0.24182593  0.88576544  0.23987079  1
  O  O307  1  0.23485063  0.88788288  0.76000098  1
  O  O308  1  0.74487249  0.37575280  0.25397670  1
  O  O309  1  0.75360446  0.37840138  0.75283646  1
  O  O310  1  0.77840375  0.89745373  0.26762273  1
  O  O311  1  0.74266609  0.87911778  0.77599770  1
  O  O312  1  0.24628077  0.11774628  0.22704429  1
  O  O313  1  0.26587314  0.10889779  0.75410683  1
  O  O314  1  0.24694403  0.61588767  0.25870264  1
  O  O315  1  0.24262527  0.63176100  0.76005206  1
  O  O316  1  0.76497438  0.10971442  0.23865454  1
  O  O317  1  0.74579487  0.12533447  0.75985707  1
  O  O318  1  0.76331892  0.62918565  0.27369322  1
  O  O319  1  0.77422328  0.61594867  0.74381071  1
  O  O320  1  0.48545463  0.04495357  0.34439050  1
  O  O321  1  0.38285232  0.10817662  0.87483178  1
  O  O322  1  0.36367349  0.63703116  0.37371099  1
  O  O323  1  0.35483501  0.64040909  0.85360060  1
  O  O324  1  0.88404756  0.13959355  0.35194250  1
  O  O325  1  0.86126374  0.11420497  0.87403386  1
  O  O326  1  0.87459783  0.60557186  0.37034613  1
  O  O327  1  0.90234407  0.61478678  0.83110878  1
  O  O328  1  0.12798598  0.39608528  0.12681608  1
  O  O329  1  0.16078525  0.33858795  0.65489226  1
  O  O330  1  0.13126306  0.86157811  0.12036253  1
  O  O331  1  0.11918906  0.89715688  0.63746786  1
  O  O332  1  0.63385903  0.36091116  0.14276223  1
  O  O333  1  0.61510924  0.36500274  0.62814312  1
  O  O334  1  0.64677828  0.86775017  0.12597176  1
  O  O335  1  0.61010490  0.88090978  0.65344938  1
  O  O336  1  0.11524659  0.26728995  0.23525228  1
  O  O337  1  0.13105941  0.24993091  0.76930869  1
  O  O338  1  0.11311210  0.73830721  0.25993698  1
  O  O339  1  0.12452597  0.76811796  0.72679936  1
  O  O340  1  0.62876951  0.25416872  0.25873560  1
  O  O341  1  0.63573305  0.25957281  0.77983672  1
  O  O342  1  0.60396184  0.66257335  0.19710881  1
  O  O343  1  0.62611298  0.77350059  0.75706520  1
  O  O344  1  0.37442042  0.25842775  0.24775651  1
  O  O345  1  0.37561534  0.22828385  0.77218229  1
  O  O346  1  0.37155563  0.75629778  0.24325408  1
  O  O347  1  0.36387712  0.75322819  0.73601315  1
  O  O348  1  0.89051792  0.24910289  0.23763148  1
  O  O349  1  0.89070824  0.24641394  0.75040636  1
  O  O350  1  0.87928231  0.74252914  0.26296698  1
  O  O351  1  0.88840163  0.73152705  0.72178461  1
  O  O352  1  0.40177884  0.50424979  0.53861312  1
  O  O353  1  0.39486540  0.50445314  0.99905238  1
  O  O354  1  0.36001853  0.98020608  0.50187430  1
  O  O355  1  0.37902660  0.99144844  0.99856106  1
  O  O356  1  0.88443741  0.47739662  0.49077181  1
  O  O357  1  0.90536584  0.51598815  1.01032266  1
  O  O358  1  0.89486302  1.00318314  0.48991541  1
  O  O359  1  0.87048011  0.99867266  0.97759086  1
  O  O360  1  0.04399262  0.06616088  0.00529787  1
  O  O361  1  0.14373603  -0.00037389  0.51217655  1
  O  O362  1  0.11595321  0.50629942  0.01051238  1
  O  O363  1  0.12227661  0.51917182  0.48684138  1
  O  O364  1  0.61608072  0.01081065  -0.00088002  1
  O  O365  1  0.61665933  -0.01073240  0.53250141  1
  O  O366  1  0.59096790  0.55023027  0.04872859  1
  O  O367  1  0.61170161  0.48992953  0.51888522  1
  O  O368  1  0.35034957  0.38256801  0.12366215  1
  O  O369  1  0.41791032  0.35188948  0.62559804  1
  O  O370  1  0.37445539  0.87330532  0.11914498  1
  O  O371  1  0.36837784  0.86000169  0.61485584  1
  O  O372  1  0.88011331  0.35522086  0.12183210  1
  O  O373  1  0.86333623  0.36532634  0.59054633  1
  O  O374  1  0.86688576  0.85686856  0.12374466  1
  O  O375  1  0.88138635  0.90085477  0.61382676  1
  O  O376  1  0.10516609  0.15126219  0.38903553  1
  O  O377  1  0.11170198  0.13515236  0.87998076  1
  O  O378  1  0.12101281  0.63673672  0.38374202  1
  O  O379  1  0.12029566  0.63518561  0.85919158  1
  O  O380  1  0.61684563  0.13750128  0.35864646  1
  O  O381  1  0.63791853  0.12915280  0.88929705  1
  O  O382  1  0.63425269  0.63215440  0.38068418  1
  O  O383  1  0.64687543  0.63403845  0.84335668  1
