# generated using pymatgen
data_VZnO4
_symmetry_space_group_name_H-M   'P 1'
_cell_length_a   17.18647378
_cell_length_b   17.10485138
_cell_length_c   16.93001139
_cell_angle_alpha   88.21470491
_cell_angle_beta   90.07202907
_cell_angle_gamma   90.42233152
_symmetry_Int_Tables_number   1
_chemical_formula_structural   VZnO4
_chemical_formula_sum   'V64 Zn64 O256'
_cell_volume   4974.39702396
_cell_formula_units_Z   64
loop_
 _symmetry_equiv_pos_site_id
 _symmetry_equiv_pos_as_xyz
  1  'x, y, z'
loop_
 _atom_site_type_symbol
 _atom_site_label
 _atom_site_symmetry_multiplicity
 _atom_site_fract_x
 _atom_site_fract_y
 _atom_site_fract_z
 _atom_site_occupancy
  V  V0  1  0.38565410  0.86806750  0.51078698  1
  V  V1  1  0.85878175  0.50019382  0.87160463  1
  V  V2  1  -0.00729462  0.49427639  0.51133715  1
  V  V3  1  0.85698715  0.25423801  0.63618229  1
  V  V4  1  0.00442309  0.86732347  0.90394781  1
  V  V5  1  0.84952872  0.62789834  0.74872087  1
  V  V6  1  0.63610897  0.11461286  0.53458948  1
  V  V7  1  0.30515259  0.93501560  0.18663421  1
  V  V8  1  0.74324324  0.71883082  0.00332526  1
  V  V9  1  0.47985011  0.65557818  0.11822445  1
  V  V10  1  0.48955131  0.71628077  0.78337873  1
  V  V11  1  0.13725279  0.49647833  0.63051461  1
  V  V12  1  0.27653671  0.81398296  0.04112292  1
  V  V13  1  0.74535184  0.37437137  0.11304218  1
  V  V14  1  0.61672317  0.74982263  0.38372711  1
  V  V15  1  -0.00232456  0.27116615  0.74782965  1
  V  V16  1  0.50679920  0.88288347  0.37102779  1
  V  V17  1  0.19983108  0.80382726  0.51872232  1
  V  V18  1  0.01218291  0.53215691  -0.01321135  1
  V  V19  1  -0.00560126  0.12154367  0.64202284  1
  V  V20  1  0.00120316  0.37910762  0.88882360  1
  V  V21  1  0.11690625  0.63200714  0.50581276  1
  V  V22  1  0.24371770  0.60320712  0.38252952  1
  V  V23  1  0.60514799  0.61322394  0.50385021  1
  V  V24  1  0.48909034  0.36948263  0.87907887  1
  V  V25  1  0.39876225  0.38262913  0.50733509  1
  V  V26  1  0.24431679  0.00629145  0.75529089  1
  V  V27  1  0.84610433  0.38119730  0.51216824  1
  V  V28  1  0.91095983  0.71013513  0.13300342  1
  V  V29  1  0.01100370  0.26235214  0.25698289  1
  V  V30  1  0.10917839  0.13086276  -0.00426452  1
  V  V31  1  0.72360491  0.22871358  -0.01125497  1
  V  V32  1  0.74327431  -0.00041259  0.23523027  1
  V  V33  1  0.87018798  0.76440673  0.62467235  1
  V  V34  1  0.40723945  0.73282596  0.61418787  1
  V  V35  1  0.24776824  0.35593683  0.61828143  1
  V  V36  1  0.51604496  -0.00101901  -0.02573728  1
  V  V37  1  0.89247056  0.00747188  0.87649732  1
  V  V38  1  0.63184223  0.47235067  0.62545545  1
  V  V39  1  0.25344706  0.40628320  0.15957615  1
  V  V40  1  0.24713327  0.26038042  0.01752567  1
  V  V41  1  0.87521691  0.50426107  0.37414944  1
  V  V42  1  0.37485950  0.25007124  0.14633360  1
  V  V43  1  0.60329627  0.50681424  0.10137338  1
  V  V44  1  0.38526076  0.23159468  0.62146242  1
  V  V45  1  -0.04151006  0.01579864  0.43754496  1
  V  V46  1  0.62208633  0.85640051  0.23228803  1
  V  V47  1  0.71194721  0.50542042  0.26023807  1
  V  V48  1  0.60629811  0.24175911  0.34298785  1
  V  V49  1  0.75251585  0.63399890  0.38061043  1
  V  V50  1  0.75699370  0.86077363  0.11074516  1
  V  V51  1  0.10027695  0.00370168  0.12085233  1
  V  V52  1  0.25505336  0.63917651  0.86455945  1
  V  V53  1  0.51692918  -0.01256583  0.54111793  1
  V  V54  1  0.86069528  0.87503759  0.46846616  1
  V  V55  1  0.36788893  0.59913259  0.72758732  1
  V  V56  1  0.01081642  0.76411345  0.75001112  1
  V  V57  1  0.09125946  0.88453732  0.24887357  1
  V  V58  1  0.13303221  0.25495213  0.86922754  1
  V  V59  1  0.36149060  0.48347329  0.88793300  1
  V  V60  1  0.63518582  0.35767409  0.76557117  1
  V  V61  1  0.49036905  0.23320448  0.75839446  1
  V  V62  1  0.10814028  0.75795445  0.36287045  1
  V  V63  1  -0.00556683  0.62380196  0.63606464  1
  Zn  Zn64  1  0.17443984  0.18731850  0.18008532  1
  Zn  Zn65  1  0.16757322  0.19069465  0.67576549  1
  Zn  Zn66  1  0.36363863  0.66820328  0.24212159  1
  Zn  Zn67  1  0.18669302  0.68543573  0.68909174  1
  Zn  Zn68  1  0.70691957  0.19961329  0.17945605  1
  Zn  Zn69  1  0.68458014  0.17756747  0.71852985  1
  Zn  Zn70  1  0.67948276  0.67303912  0.18204455  1
  Zn  Zn71  1  0.68211450  0.70372089  0.66936542  1
  Zn  Zn72  1  0.42080812  0.30930390  0.32465838  1
  Zn  Zn73  1  0.31333785  0.31608400  0.79318256  1
  Zn  Zn74  1  0.30303819  0.82013712  0.34027931  1
  Zn  Zn75  1  0.36023328  0.80911580  0.86934658  1
  Zn  Zn76  1  0.79294570  0.33098191  0.31807825  1
  Zn  Zn77  1  0.82470196  0.30284420  0.83774601  1
  Zn  Zn78  1  0.81120391  0.80066736  0.29086939  1
  Zn  Zn79  1  0.78738062  0.86612545  0.90261245  1
  Zn  Zn80  1  0.28504693  0.42610599  0.35452588  1
  Zn  Zn81  1  0.17960433  0.43778216  0.93208758  1
  Zn  Zn82  1  0.10996817  0.94320069  0.44976660  1
  Zn  Zn83  1  0.16217735  0.94117171  0.93793535  1
  Zn  Zn84  1  0.67598425  0.44785353  0.43414391  1
  Zn  Zn85  1  0.67679663  0.42536279  0.94084187  1
  Zn  Zn86  1  0.69326941  0.93827920  0.43889274  1
  Zn  Zn87  1  0.71084866  1.07817598  0.90083001  1
  Zn  Zn88  1  0.30297102  0.08395992  0.05938953  1
  Zn  Zn89  1  0.32901261  0.04180862  0.57000216  1
  Zn  Zn90  1  0.30262404  0.58194655  0.07214217  1
  Zn  Zn91  1  0.31827798  0.55868218  0.54055541  1
  Zn  Zn92  1  0.79077805  0.02414248  0.03816696  1
  Zn  Zn93  1  0.83625598  0.08543543  0.53453326  1
  Zn  Zn94  1  0.83029756  0.54775693  0.06335849  1
  Zn  Zn95  1  0.80144830  0.56852571  0.56614064  1
  Zn  Zn96  1  0.42904010  0.41382462  0.06470897  1
  Zn  Zn97  1  0.44809261  0.41929678  0.67659056  1
  Zn  Zn98  1  0.50637396  0.97528659  0.19027277  1
  Zn  Zn99  1  0.46315882  0.88953173  0.71049296  1
  Zn  Zn100  1  0.96912719  0.53993413  0.19021179  1
  Zn  Zn101  1  0.91955889  0.44227425  0.69158611  1
  Zn  Zn102  1  0.92186053  0.94022747  0.17429621  1
  Zn  Zn103  1  0.92595274  0.94274445  0.69409035  1
  Zn  Zn104  1  0.05622161  0.06575259  0.31236265  1
  Zn  Zn105  1  0.05563782  0.06468875  0.82019492  1
  Zn  Zn106  1  0.08714943  0.54058301  0.34296859  1
  Zn  Zn107  1  0.07425835  0.56332651  0.80998086  1
  Zn  Zn108  1  0.61275401  0.04135211  0.32780390  1
  Zn  Zn109  1  0.57800429  0.04968808  0.78055017  1
  Zn  Zn110  1  0.55933133  0.59837553  0.29140051  1
  Zn  Zn111  1  0.54483373  0.52562837  0.77301545  1
  Zn  Zn112  1  0.48459173  0.19462287  0.47246810  1
  Zn  Zn113  1  0.41747965  0.18436261  0.94120360  1
  Zn  Zn114  1  0.42142553  0.68525749  0.42003585  1
  Zn  Zn115  1  0.39763533  0.67011456  0.96170360  1
  Zn  Zn116  1  0.89052950  0.21122912  0.42160511  1
  Zn  Zn117  1  0.92353133  0.19379426  0.94313390  1
  Zn  Zn118  1  0.93460969  0.68916591  0.44114417  1
  Zn  Zn119  1  0.90693287  0.70402952  0.92705399  1
  Zn  Zn120  1  0.05525021  0.39749732  0.09232673  1
  Zn  Zn121  1  0.05510753  0.32152163  0.57297815  1
  Zn  Zn122  1  0.08862354  0.79338615  0.07892913  1
  Zn  Zn123  1  0.02223640  0.81976482  0.54366130  1
  Zn  Zn124  1  0.57899802  0.29767904  0.12427269  1
  Zn  Zn125  1  0.57037936  0.29902190  0.57375890  1
  Zn  Zn126  1  0.57802540  0.80091950  0.03191809  1
  Zn  Zn127  1  0.57991939  0.80659748  0.56304982  1
  O  O128  1  0.11880264  0.10955660  0.12159525  1
  O  O129  1  0.08966284  0.14110898  0.61078768  1
  O  O130  1  0.15190719  0.60467740  0.11103394  1
  O  O131  1  0.11213080  0.61659731  0.62258499  1
  O  O132  1  0.65646486  0.22769137  0.07696183  1
  O  O133  1  0.63321315  0.11265348  0.63379992  1
  O  O134  1  0.58878837  0.61341146  0.13213995  1
  O  O135  1  0.62146465  0.62719044  0.60246095  1
  O  O136  1  0.36933996  0.37023145  0.40360539  1
  O  O137  1  0.37626188  0.37825744  0.86397864  1
  O  O138  1  0.40367325  0.87392775  0.40017174  1
  O  O139  1  0.40265135  0.88953583  0.80508016  1
  O  O140  1  0.86238139  0.39790003  0.39879838  1
  O  O141  1  0.89364884  0.39554351  0.86080788  1
  O  O142  1  0.86614615  0.85986215  0.37072732  1
  O  O143  1  0.89943354  0.88546665  0.89351087  1
  O  O144  1  0.22816185  0.00546438  0.43993854  1
  O  O145  1  0.23511414  0.00445460  0.85951635  1
  O  O146  1  0.20845738  0.50681852  0.37440937  1
  O  O147  1  0.26229141  0.48406320  0.86841262  1
  O  O148  1  0.72096964  -0.00376635  0.34112095  1
  O  O149  1  0.78438804  -0.01162980  0.91629483  1
  O  O150  1  0.75817578  0.51012488  0.37128541  1
  O  O151  1  0.76416844  0.48328407  0.88692420  1
  O  O152  1  0.27844885  0.50345072  0.14830562  1
  O  O153  1  0.23249894  0.51196249  0.61412054  1
  O  O154  1  0.25372757  1.00516801  0.13008876  1
  O  O155  1  0.24949823  1.00031451  0.64998114  1
  O  O156  1  0.70140115  0.52815284  0.15779659  1
  O  O157  1  0.72586168  0.50867173  0.62744941  1
  O  O158  1  0.73296484  0.96668630  0.11950610  1
  O  O159  1  0.72142251  0.93478208  0.63991312  1
  O  O160  1  0.01217763  0.35405075  0.29667395  1
  O  O161  1  -0.00024068  0.37134549  0.74525221  1
  O  O162  1  -0.00428945  0.87389494  0.23872573  1
  O  O163  1  0.00046746  0.86176659  0.73155448  1
  O  O164  1  0.47683170  0.40182417  0.27193583  1
  O  O165  1  0.50536182  0.35584407  0.75880656  1
  O  O166  1  0.51315920  0.86778603  0.26649849  1
  O  O167  1  0.52921645  0.80172756  0.74702386  1
  O  O168  1  0.54225555  0.13736921  0.16396437  1
  O  O169  1  0.50501758  0.13527078  0.76561134  1
  O  O170  1  0.47610081  0.63181873  0.23096260  1
  O  O171  1  0.47816374  0.61470711  0.74635767  1
  O  O172  1  1.01974609  0.15675658  0.24616977  1
  O  O173  1  0.99929314  0.13130384  0.74384980  1
  O  O174  1  1.13227889  0.61670659  0.17909419  1
  O  O175  1  1.00139414  0.63036455  0.74201732  1
  O  O176  1  0.34644739  0.24950745  -0.00064871  1
  O  O177  1  0.39534246  0.25013887  0.51654978  1
  O  O178  1  0.35278592  0.77765232  -0.01691635  1
  O  O179  1  0.38428305  0.75568959  0.50785648  1
  O  O180  1  0.87977923  0.19038725  0.08630325  1
  O  O181  1  0.86649493  0.27557993  0.51533926  1
  O  O182  1  0.87200455  0.73065958  0.03867196  1
  O  O183  1  0.90219788  0.77530531  0.51129483  1
  O  O184  1  0.11118756  0.25696560  0.48502809  1
  O  O185  1  0.13114329  0.24768066  0.97884522  1
  O  O186  1  0.10281859  0.74331167  0.49666817  1
  O  O187  1  0.19356945  0.75793447  1.05648776  1
  O  O188  1  0.59936556  0.21212760  0.50824793  1
  O  O189  1  0.66479710  0.22923399  0.91361046  1
  O  O190  1  0.63081830  0.73445207  0.48677596  1
  O  O191  1  0.64563750  0.73130079  0.98146136  1
  O  O192  1  0.47089946  0.27740681  0.12256879  1
  O  O193  1  0.48943335  0.23832645  0.64126008  1
  O  O194  1  0.49932760  0.75132136  0.09878767  1
  O  O195  1  0.50167305  0.72201466  0.60682396  1
  O  O196  1  1.02567601  0.29860805  0.15682452  1
  O  O197  1  0.99062013  0.25467615  0.64018465  1
  O  O198  1  1.00961744  0.72759778  0.13009390  1
  O  O199  1  0.99044656  0.74268727  0.63256798  1
  O  O200  1  -0.00585504  0.23303163  0.35811524  1
  O  O201  1  -0.00755031  0.26827091  0.86364089  1
  O  O202  1  0.01120659  0.73836523  0.36972441  1
  O  O203  1  -0.01186661  0.76413572  0.85833024  1
  O  O204  1  0.50373088  0.24307705  0.36671534  1
  O  O205  1  0.47398100  0.25368176  0.86689118  1
  O  O206  1  0.51664846  0.75925313  0.38487827  1
  O  O207  1  0.45740876  0.73156544  0.87806142  1
  O  O208  1  0.23446011  0.05108899  0.49804518  1
  O  O209  1  0.22078242  0.15099363  1.01173499  1
  O  O210  1  0.21895816  0.62401912  0.49973443  1
  O  O211  1  0.28511085  0.62584903  0.96756147  1
  O  O212  1  0.73267537  0.11736253  0.51058883  1
  O  O213  1  0.74564810  0.12486259  1.00111122  1
  O  O214  1  0.72967372  0.61303197  0.48256393  1
  O  O215  1  0.75616420  0.62008753  1.01568758  1
  O  O216  1  0.23445113  0.35602877  -0.01102146  1
  O  O217  1  0.27600738  0.38498487  0.52224234  1
  O  O218  1  0.24947171  0.89579541  -0.01027862  1
  O  O219  1  0.28512441  0.87608634  0.50927766  1
  O  O220  1  0.73105754  0.34713638  0.01084856  1
  O  O221  1  0.74993144  0.38918812  0.50893038  1
  O  O222  1  0.73749466  0.85582911  0.01074368  1
  O  O223  1  0.76321331  0.86408641  0.48920461  1
  O  O224  1  0.06364537  0.51916105  0.23970094  1
  O  O225  1  0.12077961  0.49817522  0.72863137  1
  O  O226  1  0.10369164  0.99269849  0.23991452  1
  O  O227  1  0.13854494  1.00133095  0.75717255  1
  O  O228  1  0.61767824  0.49949363  0.29419130  1
  O  O229  1  0.63752460  0.46384566  0.74549222  1
  O  O230  1  0.61653073  0.96872249  0.23340372  1
  O  O231  1  0.61201370  0.93972380  0.75682957  1
  O  O232  1  0.51366336  0.09806345  0.22086637  1
  O  O233  1  0.34140839  0.02985299  0.76760547  1
  O  O234  1  0.38003581  0.49001533  0.28473927  1
  O  O235  1  0.37469480  0.50269254  0.71367086  1
  O  O236  1  0.84152016  -0.00618939  0.22946229  1
  O  O237  1  0.87184234  -0.00933065  0.77800429  1
  O  O238  1  0.88976233  0.50513636  0.27744087  1
  O  O239  1  0.86752992  0.51644773  0.75663652  1
  O  O240  1  0.15407522  0.29656036  0.43816854  1
  O  O241  1  0.10761006  0.36415326  0.87020332  1
  O  O242  1  0.10478809  0.87214686  0.36013850  1
  O  O243  1  0.10210473  0.87556175  0.87311243  1
  O  O244  1  0.62984978  0.34787696  0.38979796  1
  O  O245  1  0.60222882  0.37390954  0.86877238  1
  O  O246  1  0.62276963  0.86027901  0.37621831  1
  O  O247  1  0.64690692  0.90336934  0.81922457  1
  O  O248  1  0.36669079  0.15174189  0.12592559  1
  O  O249  1  0.36372130  0.13387698  0.61615127  1
  O  O250  1  0.36947319  0.65587002  0.12948032  1
  O  O251  1  0.36268602  0.63253705  0.61867914  1
  O  O252  1  0.87294740  0.13309895  0.13214040  1
  O  O253  1  0.88719478  0.15306524  0.61647368  1
  O  O254  1  0.89319862  0.60613604  0.14091961  1
  O  O255  1  0.88043669  0.62236990  0.63394618  1
  O  O256  1  0.24584015  0.25708786  0.12531116  1
  O  O257  1  0.25197478  0.25152427  0.62405535  1
  O  O258  1  0.31666218  0.84670822  0.13355770  1
  O  O259  1  0.22845117  0.75403039  0.60173228  1
  O  O260  1  0.77699978  0.29071077  0.16179922  1
  O  O261  1  0.76247351  0.23608916  0.65237309  1
  O  O262  1  0.73775928  0.74783783  0.11664431  1
  O  O263  1  0.77847951  0.73637947  0.60740589  1
  O  O264  1  0.27821662  0.18414918  0.42881649  1
  O  O265  1  0.22999522  0.25812402  0.85377799  1
  O  O266  1  0.21642804  0.77697126  0.41359778  1
  O  O267  1  0.27198315  0.73652722  0.84982165  1
  O  O268  1  0.69463766  0.29294354  0.38725723  1
  O  O269  1  0.82425159  0.24874817  0.93923473  1
  O  O270  1  0.74641964  0.73525446  0.36937009  1
  O  O271  1  0.79270691  0.74807314  0.91357824  1
  O  O272  1  0.01313007  0.15205677  0.00501782  1
  O  O273  1  -0.07089031  0.11419056  0.46613695  1
  O  O274  1  0.00119173  0.62901381  -0.02277850  1
  O  O275  1  -0.00248206  0.62342358  0.51832367  1
  O  O276  1  0.49464232  0.10158403  -0.01924251  1
  O  O277  1  0.50989521  0.08901295  0.51809213  1
  O  O278  1  0.47233315  0.61440489  0.02592878  1
  O  O279  1  0.50955314  0.62253119  0.47868714  1
  O  O280  1  0.49762747  0.36464875  0.51045892  1
  O  O281  1  0.49132967  0.36491622  0.97893337  1
  O  O282  1  0.51418273  0.88116464  0.50134926  1
  O  O283  1  0.54209865  0.89817340  0.97612032  1
  O  O284  1  0.99001685  0.39355025  0.51090206  1
  O  O285  1  1.00096514  0.37000702  0.98760503  1
  O  O286  1  0.97965414  0.91198592  0.48160840  1
  O  O287  1  1.01784973  0.84797293  1.00198639  1
  O  O288  1  0.45306083  0.47134816  0.29848041  1
  O  O289  1  0.47809010  0.47662091  0.85886164  1
  O  O290  1  0.52126724  0.98187920  0.37398064  1
  O  O291  1  0.50909052  1.00357868  0.86833058  1
  O  O292  1  0.98321873  0.51715555  0.40272273  1
  O  O293  1  1.00661026  0.49036887  0.87540237  1
  O  O294  1  0.94476325  1.01463497  0.33980006  1
  O  O295  1  1.00095111  0.98365711  0.87995596  1
  O  O296  1  0.00297768  -0.00128866  0.11568908  1
  O  O297  1  -0.02244557  0.02392747  0.62732701  1
  O  O298  1  -0.00342503  0.49377353  0.08707207  1
  O  O299  1  -0.00502378  0.50708371  0.62354452  1
  O  O300  1  0.53105181  -0.00139075  0.07797850  1
  O  O301  1  0.51588516  -0.02887729  0.64089266  1
  O  O302  1  0.50867520  0.47744973  0.11548281  1
  O  O303  1  0.53271175  0.49553838  0.64899966  1
  O  O304  1  0.24605854  0.38341453  0.25876824  1
  O  O305  1  0.26305164  0.38236408  0.71481071  1
  O  O306  1  0.26090069  0.90417871  0.27524302  1
  O  O307  1  0.25514704  0.90492354  0.75414521  1
  O  O308  1  0.75036973  0.41150898  0.25278671  1
  O  O309  1  0.73006637  0.33770515  0.78421621  1
  O  O310  1  0.73248335  0.86872471  0.23369404  1
  O  O311  1  0.71351789  0.86811404  0.80499507  1
  O  O312  1  0.22016295  0.12764675  0.27551348  1
  O  O313  1  0.22505851  0.10911562  0.73998322  1
  O  O314  1  0.25813413  0.63527309  0.28867749  1
  O  O315  1  0.26546442  0.62318664  0.74576156  1
  O  O316  1  0.72141942  0.09480484  0.21074104  1
  O  O317  1  0.75290174  -0.00762265  0.66726541  1
  O  O318  1  0.73725979  0.61487379  0.27075695  1
  O  O319  1  0.75346800  0.63959886  0.73862594  1
  O  O320  1  0.32996412  0.15076634  0.39312145  1
  O  O321  1  0.34851323  0.09612896  0.95213611  1
  O  O322  1  0.33836686  0.59656829  0.42368445  1
  O  O323  1  0.36475380  0.59021890  0.84628409  1
  O  O324  1  0.82625410  0.22807738  0.33329440  1
  O  O325  1  0.89948888  0.10743675  0.87597939  1
  O  O326  1  0.85879067  0.61839998  0.39143980  1
  O  O327  1  0.86854066  0.61642870  0.85433069  1
  O  O328  1  0.16094330  0.40036317  0.11998385  1
  O  O329  1  0.13991597  0.38566467  0.61166738  1
  O  O330  1  0.12259638  0.89303491  0.14160733  1
  O  O331  1  0.13298242  0.87804752  0.54248072  1
  O  O332  1  0.63955571  0.39853355  0.12874798  1
  O  O333  1  0.63529279  0.36820151  0.63536264  1
  O  O334  1  0.61724960  0.84886389  0.13299377  1
  O  O335  1  0.63807785  0.80488219  0.65675905  1
  O  O336  1  0.11620862  0.25473251  0.25493552  1
  O  O337  1  0.10365846  0.24673209  0.75807048  1
  O  O338  1  0.12658894  0.77272621  0.26249874  1
  O  O339  1  0.10757297  0.74714909  0.74151450  1
  O  O340  1  0.61808576  0.25490882  0.24212371  1
  O  O341  1  0.60348834  0.25470192  0.74684245  1
  O  O342  1  0.62734420  0.75249590  0.26554795  1
  O  O343  1  0.60226957  0.68140800  0.80246443  1
  O  O344  1  0.36738922  0.25143861  0.24686932  1
  O  O345  1  0.38271394  0.24301934  0.73825262  1
  O  O346  1  0.37159757  0.73599171  0.32741567  1
  O  O347  1  0.39398074  0.72608737  0.72657241  1
  O  O348  1  0.91585001  0.25715363  0.22430342  1
  O  O349  1  0.88595925  0.25836831  0.74408042  1
  O  O350  1  0.87364482  0.74403499  0.22072385  1
  O  O351  1  0.88491109  0.73258313  0.73415125  1
  O  O352  1  0.39781319  0.48010470  0.52487898  1
  O  O353  1  0.36957744  0.48683089  0.98790712  1
  O  O354  1  0.40497275  0.97531474  0.52484070  1
  O  O355  1  0.41785950  0.97279484  0.97891243  1
  O  O356  1  0.87658333  0.49483646  0.51061907  1
  O  O357  1  0.89525302  0.51382961  0.96927044  1
  O  O358  1  0.85686440  0.98268947  0.48310381  1
  O  O359  1  0.89156552  1.00430404  0.99928327  1
  O  O360  1  0.12132559  0.01964177  0.00859824  1
  O  O361  1  0.06331835  0.04217701  0.42948694  1
  O  O362  1  0.11097027  0.50982009  -0.01878522  1
  O  O363  1  0.09835497  0.51366010  0.51357048  1
  O  O364  1  0.61722349  0.02673651  -0.04503984  1
  O  O365  1  0.62333061  0.00136431  0.50947152  1
  O  O366  1  0.62581453  0.50452931  0.00469491  1
  O  O367  1  0.61585223  0.50254825  0.51205115  1
  O  O368  1  0.34470637  0.36233814  0.12198120  1
  O  O369  1  0.37565793  0.35040977  0.61896744  1
  O  O370  1  0.39652403  0.97034642  0.20239473  1
  O  O371  1  0.39999634  0.84366389  0.62016246  1
  O  O372  1  0.81933647  0.44033667  0.10393117  1
  O  O373  1  0.86513700  0.36854686  0.62291609  1
  O  O374  1  0.85513842  0.86742673  0.11803453  1
  O  O375  1  0.86971123  0.86388355  0.63165432  1
  O  O376  1  0.17334117  0.11624071  0.33331361  1
  O  O377  1  0.11314698  0.14054290  0.88468422  1
  O  O378  1  0.12963884  0.64199421  0.38441818  1
  O  O379  1  0.15696782  0.62218116  0.85804428  1
  O  O380  1  0.62748107  0.14516964  0.36224751  1
  O  O381  1  0.67956478  0.09441869  0.79604855  1
  O  O382  1  0.62698086  0.63623129  0.37993936  1
  O  O383  1  0.61108275  0.61236131  0.83629835  1
