# generated using pymatgen
data_VZnO4
_symmetry_space_group_name_H-M   'P 1'
_cell_length_a   16.90488767
_cell_length_b   16.95676203
_cell_length_c   16.91738240
_cell_angle_alpha   90.33876432
_cell_angle_beta   89.62531798
_cell_angle_gamma   90.17232480
_symmetry_Int_Tables_number   1
_chemical_formula_structural   VZnO4
_chemical_formula_sum   'V64 Zn64 O256'
_cell_volume   4849.19433484
_cell_formula_units_Z   64
loop_
 _symmetry_equiv_pos_site_id
 _symmetry_equiv_pos_as_xyz
  1  'x, y, z'
loop_
 _atom_site_type_symbol
 _atom_site_label
 _atom_site_symmetry_multiplicity
 _atom_site_fract_x
 _atom_site_fract_y
 _atom_site_fract_z
 _atom_site_occupancy
  V  V0  1  0.62677462  0.38185462  0.75797544  1
  V  V1  1  0.40819070  0.86295699  0.00518085  1
  V  V2  1  0.75857837  0.62456878  0.85483670  1
  V  V3  1  0.50457139  -0.00472733  0.51208266  1
  V  V4  1  0.26442508  -0.00835690  0.26187419  1
  V  V5  1  0.61631823  0.63225209  -0.00744246  1
  V  V6  1  0.48283204  0.74672431  0.73904405  1
  V  V7  1  0.36904726  0.00960639  0.87910647  1
  V  V8  1  0.61978224  0.75847672  0.86079594  1
  V  V9  1  0.77457483  0.75893636  -0.01136399  1
  V  V10  1  0.50125587  0.86786885  0.35510460  1
  V  V11  1  0.25463674  0.27080600  0.50472500  1
  V  V12  1  0.60026841  0.24957865  0.38422522  1
  V  V13  1  0.35983617  0.22433846  0.64625866  1
  V  V14  1  0.85488034  0.86846521  0.50459548  1
  V  V15  1  0.64349399  0.51747314  0.12533555  1
  V  V16  1  0.25325735  0.86615874  0.11764318  1
  V  V17  1  0.25003138  0.12369026  0.38996377  1
  V  V18  1  -0.00634671  0.63939271  0.61197259  1
  V  V19  1  0.63418765  0.34473400  0.21361140  1
  V  V20  1  0.86553872  0.00569733  0.38912465  1
  V  V21  1  0.11263448  0.38976763  0.76719532  1
  V  V22  1  0.13168119  0.00113446  0.61870469  1
  V  V23  1  0.61994186  0.12021964  0.51576863  1
  V  V24  1  0.38736029  0.13359275  0.24942588  1
  V  V25  1  0.11648111  0.87078560  0.25056097  1
  V  V26  1  0.26764957  0.50518268  0.24652628  1
  V  V27  1  0.12979961  0.52823411  0.12354355  1
  V  V28  1  0.00455328  0.11790945  0.61122082  1
  V  V29  1  0.13996932  0.72901610  0.87536714  1
  V  V30  1  0.74790212  0.13838908  0.38700484  1
  V  V31  1  0.50558386  0.02390101  -0.00027274  1
  V  V32  1  0.25134450  0.73742311  0.49904518  1
  V  V33  1  0.64315512  0.23531037  0.86230908  1
  V  V34  1  0.49393196  0.39759983  0.37832851  1
  V  V35  1  0.86884004  0.12547429  0.24402281  1
  V  V36  1  0.00619538  0.88465417  0.39473188  1
  V  V37  1  0.74347212  0.35292616  0.61545767  1
  V  V38  1  -0.00782632  0.24517207  0.24409835  1
  V  V39  1  0.37218102  0.88060326  0.49141136  1
  V  V40  1  0.86698987  0.50050383  0.35656495  1
  V  V41  1  0.88586302  0.78177426  0.14491324  1
  V  V42  1  0.13064670  0.36249416  0.22560390  1
  V  V43  1  0.49626381  0.49297788  0.00016503  1
  V  V44  1  0.85847956  0.00834429  0.86447400  1
  V  V45  1  0.26040935  0.87406249  0.63922750  1
  V  V46  1  0.01086426  0.37666860  0.37953968  1
  V  V47  1  0.00256445  0.00872224  -0.01520622  1
  V  V48  1  0.63216917  0.88097575  0.72349425  1
  V  V49  1  0.10128622  0.88128767  0.76022304  1
  V  V50  1  0.65408311  0.12645187  -0.00551833  1
  V  V51  1  0.63646660  0.00531417  0.13582479  1
  V  V52  1  0.11677719  0.73429742  0.38235084  1
  V  V53  1  0.86820952  0.38137439  0.49568454  1
  V  V54  1  0.75562332  0.63326165  0.36488176  1
  V  V55  1  0.49084827  0.37014451  0.87614530  1
  V  V56  1  0.63472129  0.63990448  0.49465777  1
  V  V57  1  0.89149569  0.25361747  0.62629371  1
  V  V58  1  0.65611283  0.84670003  0.24576865  1
  V  V59  1  0.11901012  0.01578342  0.13288677  1
  V  V60  1  0.63562812  0.49615385  0.60967538  1
  V  V61  1  0.49832153  0.60891651  0.62308623  1
  V  V62  1  0.88372231  0.36648083  -0.00389614  1
  V  V63  1  0.85911867  0.75338199  0.63490540  1
  Zn  Zn64  1  0.17202927  0.16942053  0.24566662  1
  Zn  Zn65  1  0.15932444  0.19926507  0.68188765  1
  Zn  Zn66  1  0.19773793  0.69013044  0.20123509  1
  Zn  Zn67  1  0.16639353  0.71013738  0.67753110  1
  Zn  Zn68  1  0.65078280  0.16104252  0.20655154  1
  Zn  Zn69  1  0.55322773  0.19341537  0.69235300  1
  Zn  Zn70  1  0.72120900  0.66972635  0.16583765  1
  Zn  Zn71  1  0.68610830  0.68435138  0.68308432  1
  Zn  Zn72  1  0.31360761  0.30833719  0.31362370  1
  Zn  Zn73  1  0.30614920  0.44339410  0.83553430  1
  Zn  Zn74  1  0.30727275  0.80614229  0.31992997  1
  Zn  Zn75  1  0.31601262  0.82040882  0.82935242  1
  Zn  Zn76  1  0.80730914  0.30867608  0.31392196  1
  Zn  Zn77  1  0.81560741  0.31947417  0.80370297  1
  Zn  Zn78  1  0.82549775  0.80903943  0.31956593  1
  Zn  Zn79  1  0.81028458  0.82713041  0.80798513  1
  Zn  Zn80  1  0.20031464  0.43917108  0.43270702  1
  Zn  Zn81  1  0.13844972  0.52426909  0.91845239  1
  Zn  Zn82  1  0.18953735  0.93692320  0.44089690  1
  Zn  Zn83  1  0.17824757  0.94714269  0.94314261  1
  Zn  Zn84  1  0.68750153  0.43738165  0.42954765  1
  Zn  Zn85  1  0.68944605  0.44527397  0.93403647  1
  Zn  Zn86  1  0.67858286  0.93433765  0.42921065  1
  Zn  Zn87  1  0.68902330  0.93912389  0.92516367  1
  Zn  Zn88  1  0.31898313  0.04980731  0.07689188  1
  Zn  Zn89  1  0.31568099  0.05603680  0.56795680  1
  Zn  Zn90  1  0.28343457  0.46851151  0.02856836  1
  Zn  Zn91  1  0.24602547  0.53529580  0.56697983  1
  Zn  Zn92  1  0.82276042  0.04055311  0.05732717  1
  Zn  Zn93  1  0.81996345  0.07334754  0.55775768  1
  Zn  Zn94  1  0.80367705  0.55577150  0.01029909  1
  Zn  Zn95  1  0.81455499  0.56375788  0.56060599  1
  Zn  Zn96  1  0.46079442  0.43924376  0.19052399  1
  Zn  Zn97  1  0.44034697  0.42966957  0.68869539  1
  Zn  Zn98  1  0.44539799  0.94431818  0.17505123  1
  Zn  Zn99  1  0.44050764  0.93753653  0.69503387  1
  Zn  Zn100  1  0.93939263  0.43381137  0.18846348  1
  Zn  Zn101  1  0.91178591  0.43467217  0.70333140  1
  Zn  Zn102  1  0.93855349  0.94733305  0.20580582  1
  Zn  Zn103  1  0.92914186  0.93746436  0.68706961  1
  Zn  Zn104  1  0.06008574  0.05985782  0.32078929  1
  Zn  Zn105  1  0.01924725  0.05979663  0.77920807  1
  Zn  Zn106  1  0.06449368  0.54596841  0.30772342  1
  Zn  Zn107  1  0.05655946  0.59539088  0.78128145  1
  Zn  Zn108  1  0.55647945  0.05258785  0.32794855  1
  Zn  Zn109  1  0.56010710  0.05228367  0.81522182  1
  Zn  Zn110  1  0.56200668  0.58026731  0.31238101  1
  Zn  Zn111  1  0.56195487  0.56018144  0.81051255  1
  Zn  Zn112  1  0.42422504  0.17718820  0.44564027  1
  Zn  Zn113  1  0.43288587  0.19158761  0.82961577  1
  Zn  Zn114  1  0.45661718  0.70738795  0.46648182  1
  Zn  Zn115  1  0.45037602  0.69349696  0.93571991  1
  Zn  Zn116  1  0.94684426  0.19922831  0.44542001  1
  Zn  Zn117  1  0.93735128  0.17046121  0.95454671  1
  Zn  Zn118  1  0.93782928  0.68462923  0.44139037  1
  Zn  Zn119  1  0.94347866  0.71159305  0.89247058  1
  Zn  Zn120  1  0.06482730  0.27160980  0.05462582  1
  Zn  Zn121  1  0.07170959  0.34049418  0.55961289  1
  Zn  Zn122  1  0.05535235  0.81506770  0.04850862  1
  Zn  Zn123  1  0.06634687  0.81574331  0.56780827  1
  Zn  Zn124  1  0.58604911  0.31196601  0.04605538  1
  Zn  Zn125  1  0.55328774  0.32309702  0.54219934  1
  Zn  Zn126  1  0.60941219  0.83584108  0.04811596  1
  Zn  Zn127  1  0.55585528  0.80770902  0.56871021  1
  O  O128  1  0.13049903  0.11261278  0.15464289  1
  O  O129  1  0.13807541  0.10446849  0.61706421  1
  O  O130  1  0.13686209  0.62748191  0.12613548  1
  O  O131  1  0.08765002  0.62941435  0.66595103  1
  O  O132  1  0.63744962  0.11486342  0.10290019  1
  O  O133  1  0.61316357  0.13116031  0.61344686  1
  O  O134  1  0.62572085  0.63947730  0.09549352  1
  O  O135  1  0.62241684  0.61151516  0.61402671  1
  O  O136  1  0.40326686  0.37299590  0.34143011  1
  O  O137  1  0.39184678  0.37144614  0.87768520  1
  O  O138  1  0.38352655  0.87057908  0.38540442  1
  O  O139  1  0.37732118  0.88015336  0.90732374  1
  O  O140  1  0.86776401  0.38428002  0.38357392  1
  O  O141  1  0.89843619  0.34369144  0.89536759  1
  O  O142  1  0.88516509  0.88599898  0.38659868  1
  O  O143  1  0.87663045  0.90328156  0.85731437  1
  O  O144  1  0.24780747  0.00170308  0.36656534  1
  O  O145  1  0.26961235  -0.00390023  0.89681762  1
  O  O146  1  0.25783112  0.47486515  0.34348799  1
  O  O147  1  0.24296351  0.47815560  0.92166816  1
  O  O148  1  0.76238279  0.00647897  0.38052192  1
  O  O149  1  0.75672515  0.00595143  0.86475973  1
  O  O150  1  0.76165740  0.50624614  0.37788031  1
  O  O151  1  0.75690537  0.52824141  0.89755950  1
  O  O152  1  0.23468231  0.49230190  0.12969191  1
  O  O153  1  0.25422594  0.56364492  0.69206592  1
  O  O154  1  0.23925129  0.98581679  0.14290893  1
  O  O155  1  0.24183982  0.98350223  0.62390412  1
  O  O156  1  0.74431156  0.54335357  0.11129693  1
  O  O157  1  0.73774219  0.49310125  0.62137526  1
  O  O158  1  0.73403092  0.99219190  0.11282679  1
  O  O159  1  0.75874579  1.03625313  0.66382565  1
  O  O160  1  0.00461887  0.36439410  0.25231394  1
  O  O161  1  0.00789628  0.39711274  0.75771400  1
  O  O162  1  0.01344044  0.87668326  0.26752003  1
  O  O163  1  0.00328366  0.86977635  0.74608448  1
  O  O164  1  0.54441620  0.38435503  0.25373560  1
  O  O165  1  0.51557719  0.37843453  0.76598912  1
  O  O166  1  0.48927659  0.87141559  0.25541702  1
  O  O167  1  0.50942767  0.84873116  0.72868098  1
  O  O168  1  0.48627258  0.11969658  0.27241161  1
  O  O169  1  0.50005513  0.12836393  0.76233370  1
  O  O170  1  0.48292766  0.65479621  0.26100923  1
  O  O171  1  0.50568931  0.62815114  0.73232306  1
  O  O172  1  0.98386917  0.13794703  0.26926359  1
  O  O173  1  1.03322543  0.15124700  0.70889140  1
  O  O174  1  1.00191242  0.58122001  0.21153272  1
  O  O175  1  0.95411540  0.57639224  0.71790956  1
  O  O176  1  0.38224615  0.24655373  0.06505169  1
  O  O177  1  0.35658050  0.22843862  0.52187227  1
  O  O178  1  0.40195110  0.76282975  0.00909874  1
  O  O179  1  0.36059253  0.75983077  0.49588465  1
  O  O180  1  0.87069424  0.26403152  0.01372367  1
  O  O181  1  0.87841049  0.27213658  0.50839035  1
  O  O182  1  0.86966416  0.77145613  -0.03925782  1
  O  O183  1  0.87511602  0.76789098  0.49824123  1
  O  O184  1  0.15213326  0.27160693  0.52022087  1
  O  O185  1  0.15352103  0.19802434  1.01380096  1
  O  O186  1  0.13442852  0.75381192  0.49126993  1
  O  O187  1  0.09714993  0.74961479  0.96603894  1
  O  O188  1  0.61124090  0.22938675  0.49430159  1
  O  O189  1  0.63846851  0.23484568  0.97859276  1
  O  O190  1  0.62661890  0.73810411  0.50573007  1
  O  O191  1  0.60393374  0.74099000  0.97746350  1
  O  O192  1  0.42661790  0.29608966  0.09901514  1
  O  O193  1  0.48514438  0.26141096  0.61894395  1
  O  O194  1  0.41060442  0.62942152  0.12759367  1
  O  O195  1  0.49357392  0.72597983  0.62881042  1
  O  O196  1  0.99571243  0.24152463  0.14470178  1
  O  O197  1  0.99077050  0.27075276  0.61669544  1
  O  O198  1  0.97656961  0.75745278  0.10707798  1
  O  O199  1  0.98752757  0.74509973  0.61766937  1
  O  O200  1  -0.01255874  0.27234150  0.36612339  1
  O  O201  1  0.02298096  0.24091621  0.95172929  1
  O  O202  1  0.01195893  0.76309567  0.38646920  1
  O  O203  1  0.03179335  0.69686094  0.83050337  1
  O  O204  1  0.50054379  0.24677374  0.38317735  1
  O  O205  1  0.51532232  0.26737795  0.87932523  1
  O  O206  1  0.50431634  0.77037886  0.38420475  1
  O  O207  1  0.51135958  0.73608475  0.84939473  1
  O  O208  1  0.24738369  0.10537338  0.48783729  1
  O  O209  1  0.26450005  0.12978376  1.00816414  1
  O  O210  1  0.25225118  0.64047020  0.51483175  1
  O  O211  1  0.30310934  0.62060141  0.94193818  1
  O  O212  1  0.73085070  0.11447952  0.49835797  1
  O  O213  1  0.75194416  0.11858781  0.99699607  1
  O  O214  1  0.73763442  0.62154536  0.49696340  1
  O  O215  1  0.73925298  0.65350003  0.98261280  1
  O  O216  1  0.25096547  0.33839469  0.01611905  1
  O  O217  1  0.27778819  0.36595669  0.49076567  1
  O  O218  1  0.23186974  0.87290280  0.02101369  1
  O  O219  1  0.26443914  0.87249624  0.50073182  1
  O  O220  1  0.77836569  0.37717958  -0.01521840  1
  O  O221  1  0.75744950  0.37716371  0.50523665  1
  O  O222  1  0.72240935  0.84961437  -0.00088913  1
  O  O223  1  0.75657521  0.87521897  0.49009925  1
  O  O224  1  0.13209762  0.47784539  0.23458322  1
  O  O225  1  0.12550416  0.49472817  0.76617141  1
  O  O226  1  0.13400796  0.98416626  0.25250446  1
  O  O227  1  0.11004080  0.98977705  0.73109061  1
  O  O228  1  0.62059522  0.54209751  0.22026613  1
  O  O229  1  0.62658509  0.48439446  0.73944760  1
  O  O230  1  0.63063222  1.03427258  0.23455224  1
  O  O231  1  0.60728722  0.97581499  0.74798494  1
  O  O232  1  0.36454242  -0.01461652  0.25295514  1
  O  O233  1  0.38590498  -0.01739161  0.78172243  1
  O  O234  1  0.36616247  0.49388488  0.22400580  1
  O  O235  1  0.36222267  0.47996409  0.74929216  1
  O  O236  1  0.88282947  0.02003430  0.27772614  1
  O  O237  1  0.90735967  0.01898113  0.76349803  1
  O  O238  1  0.86514570  0.48883639  0.25780806  1
  O  O239  1  0.84604156  0.42867494  0.79123277  1
  O  O240  1  0.11093851  0.38528186  0.37054849  1
  O  O241  1  0.10133329  0.37852837  0.86798071  1
  O  O242  1  0.11421062  0.87605490  0.37508885  1
  O  O243  1  0.12006395  0.89590309  0.85899819  1
  O  O244  1  0.61220023  0.35593435  0.39397571  1
  O  O245  1  0.63965808  0.37157084  0.86230191  1
  O  O246  1  0.61815400  0.87653377  0.34558359  1
  O  O247  1  0.62084326  0.85897210  0.86850892  1
  O  O248  1  0.38502145  0.10353229  0.15141034  1
  O  O249  1  0.37158425  0.12336153  0.63785807  1
  O  O250  1  0.34509921  0.63719437  0.09857416  1
  O  O251  1  0.39295574  0.59444556  0.60621093  1
  O  O252  1  0.86029552  0.10874016  0.14784336  1
  O  O253  1  0.89465609  0.14179099  0.61147131  1
  O  O254  1  0.90779663  0.61197539  0.05018368  1
  O  O255  1  0.87789326  0.64705287  0.60947097  1
  O  O256  1  0.22060277  0.18115629  0.04921828  1
  O  O257  1  0.25596244  0.24627868  0.62704894  1
  O  O258  1  0.25410219  0.76877068  0.14075727  1
  O  O259  1  0.23992809  0.76776997  0.60939006  1
  O  O260  1  0.62058233  0.26752422  0.14355489  1
  O  O261  1  0.75645441  0.25653527  0.61112449  1
  O  O262  1  0.79329661  0.73739561  0.09762067  1
  O  O263  1  0.75974599  0.74760991  0.62269361  1
  O  O264  1  0.25681416  0.23663818  0.39545005  1
  O  O265  1  0.26998358  0.30247967  0.95485107  1
  O  O266  1  0.23521414  0.74733099  0.38957710  1
  O  O267  1  0.23581625  0.76425117  0.88388841  1
  O  O268  1  0.74946665  0.23825308  0.39235133  1
  O  O269  1  0.74206998  0.24957512  0.85592018  1
  O  O270  1  0.76711097  0.73149588  0.38019068  1
  O  O271  1  0.73629545  0.74824213  0.87225326  1
  O  O272  1  -0.01704924  0.10150889  0.03280198  1
  O  O273  1  0.02023173  0.14563854  0.51391329  1
  O  O274  1  -0.03515026  0.62534764  0.00400529  1
  O  O275  1  0.00684077  0.62235732  0.51395915  1
  O  O276  1  0.51660937  0.12126455  0.00088719  1
  O  O277  1  0.50685719  0.10325321  0.49001968  1
  O  O278  1  0.51040666  0.60829811  -0.01645120  1
  O  O279  1  0.51738407  0.62381852  0.50987821  1
  O  O280  1  0.48505018  0.38603649  0.47889345  1
  O  O281  1  0.52206867  0.38340849  0.98760533  1
  O  O282  1  0.48621303  0.87654648  0.50566641  1
  O  O283  1  0.50870814  0.88098814  1.01144982  1
  O  O284  1  0.99189490  0.37988105  0.48505099  1
  O  O285  1  0.98717907  0.37027207  1.01116069  1
  O  O286  1  0.99530169  0.87681962  0.49509226  1
  O  O287  1  1.01457883  0.90868809  1.00365025  1
  O  O288  1  0.50577075  0.49689844  0.36515324  1
  O  O289  1  0.51138677  0.48494254  0.88539203  1
  O  O290  1  0.50739160  0.97176364  0.39177201  1
  O  O291  1  0.49704857  0.99890846  0.89717737  1
  O  O292  1  0.98172253  0.48367233  0.36348315  1
  O  O293  1  1.03301944  0.52970311  0.87447210  1
  O  O294  1  0.99209948  0.99009097  0.38255863  1
  O  O295  1  1.02868433  1.03430490  0.89042083  1
  O  O296  1  0.01975822  -0.00075866  0.14603984  1
  O  O297  1  0.00414946  0.01446067  0.61920867  1
  O  O298  1  0.01139340  0.52417156  0.15336152  1
  O  O299  1  -0.03823378  0.52562086  0.65218572  1
  O  O300  1  0.52372035  0.00000313  0.11057887  1
  O  O301  1  0.49536721  -0.00471525  0.61115927  1
  O  O302  1  0.52153125  0.49739712  0.10459638  1
  O  O303  1  0.51641535  0.50336944  0.63044971  1
  O  O304  1  0.23027838  0.35194358  0.24354139  1
  O  O305  1  0.21854265  0.38990524  0.76902749  1
  O  O306  1  0.24358713  0.88012711  0.25411135  1
  O  O307  1  0.26386452  0.87151286  0.73821978  1
  O  O308  1  0.72507703  0.36049159  0.25596168  1
  O  O309  1  0.73033218  0.36442641  0.72398800  1
  O  O310  1  0.75126070  0.87269933  0.25800236  1
  O  O311  1  0.73070529  0.87562884  0.74413442  1
  O  O312  1  0.26650897  0.10456982  0.25680294  1
  O  O313  1  0.21640619  0.15349337  0.79065876  1
  O  O314  1  0.25124662  0.60453081  0.25279683  1
  O  O315  1  0.26007801  0.63413781  0.71713835  1
  O  O316  1  0.76269066  0.13217092  0.27595796  1
  O  O317  1  0.74839095  0.09035936  0.71289132  1
  O  O318  1  0.75491365  0.62524458  0.26607593  1
  O  O319  1  0.73995820  0.61673059  0.75633779  1
  O  O320  1  0.35818010  0.12085052  0.36750297  1
  O  O321  1  0.37557767  0.11077516  0.88505534  1
  O  O322  1  0.41487720  0.67374256  0.29742650  1
  O  O323  1  0.35357913  0.63090384  0.88806208  1
  O  O324  1  0.86346281  0.11816488  0.40015633  1
  O  O325  1  0.88013048  0.11437376  0.87996758  1
  O  O326  1  0.87013164  0.60817343  0.38204943  1
  O  O327  1  0.85752726  0.64207084  0.86242570  1
  O  O328  1  0.11794098  0.35197918  0.12611337  1
  O  O329  1  0.10793074  0.39175936  0.65749283  1
  O  O330  1  0.12946206  0.87067539  0.14464910  1
  O  O331  1  0.13544054  0.87732683  0.64024356  1
  O  O332  1  0.64891838  0.41080207  0.12523942  1
  O  O333  1  0.62896276  0.37889772  0.61561978  1
  O  O334  1  0.62285038  0.88874221  0.15113672  1
  O  O335  1  0.62942600  0.87376856  0.62259969  1
  O  O336  1  0.10480258  0.25846649  0.25667938  1
  O  O337  1  0.11815095  0.28553512  0.75313076  1
  O  O338  1  0.13385009  0.76420306  0.27229286  1
  O  O339  1  0.13714520  0.77618834  0.76568320  1
  O  O340  1  0.62755421  0.24262650  0.28267405  1
  O  O341  1  0.61940372  0.26160166  0.75909728  1
  O  O342  1  0.65347320  0.74940325  0.22732408  1
  O  O343  1  0.62270444  0.75605015  0.75118026  1
  O  O344  1  0.36883068  0.23177587  0.24631222  1
  O  O345  1  0.36424527  0.23813229  0.74704405  1
  O  O346  1  0.37533704  0.73061488  0.25696546  1
  O  O347  1  0.38576807  0.75221515  0.75866431  1
  O  O348  1  0.87775856  0.23845466  0.25392571  1
  O  O349  1  0.87312387  0.25856215  0.72542764  1
  O  O350  1  0.88545953  0.75242425  0.24129538  1
  O  O351  1  0.87005564  0.75894794  0.73436333  1
  O  O352  1  0.36245757  0.52189330  0.58683375  1
  O  O353  1  0.39717035  0.48795769  1.00770188  1
  O  O354  1  0.38501676  0.98674203  0.49917222  1
  O  O355  1  0.39593393  0.99884251  1.00405660  1
  O  O356  1  0.87602499  0.48461271  0.50150487  1
  O  O357  1  0.88484400  0.47132312  0.97833325  1
  O  O358  1  0.87106018  0.98809216  0.49650836  1
  O  O359  1  0.88851214  0.99574353  0.97582210  1
  O  O360  1  0.12414121  0.01213840  0.02691514  1
  O  O361  1  0.12077277  -0.02109831  0.52034642  1
  O  O362  1  0.11169585  0.50267890  0.02874793  1
  O  O363  1  0.16042713  0.47771599  0.52959946  1
  O  O364  1  0.62437589  0.01204795  -0.00630742  1
  O  O365  1  0.61517066  0.00462959  0.50132473  1
  O  O366  1  0.62852794  0.51827503  0.00243269  1
  O  O367  1  0.62620789  0.50177126  0.50801614  1
  O  O368  1  0.38965461  0.36215376  0.13059216  1
  O  O369  1  0.42441486  0.32336095  0.63125450  1
  O  O370  1  0.36379637  0.88510978  0.10796008  1
  O  O371  1  0.36374523  0.87903735  0.61496596  1
  O  O372  1  0.87645793  0.38572408  0.10121595  1
  O  O373  1  0.85958163  0.37235276  0.61702698  1
  O  O374  1  0.87524518  0.88203259  0.14023416  1
  O  O375  1  0.87259797  0.86945524  0.61224782  1
  O  O376  1  0.14796044  0.12469672  0.35569047  1
  O  O377  1  0.19232998  0.16670469  0.85916989  1
  O  O378  1  0.10712573  0.63609076  0.36693569  1
  O  O379  1  0.16063026  0.62704164  0.86691251  1
  O  O380  1  0.63521330  0.12939492  0.38510773  1
  O  O381  1  0.63409686  0.13027120  0.87670390  1
  O  O382  1  0.63993953  0.62359633  0.38619185  1
  O  O383  1  0.63251945  0.63373560  0.87482236  1
