# generated using pymatgen
data_VZnO4
_symmetry_space_group_name_H-M   'P 1'
_cell_length_a   16.87321841
_cell_length_b   16.84725850
_cell_length_c   16.87242179
_cell_angle_alpha   90.16587120
_cell_angle_beta   90.16294300
_cell_angle_gamma   90.24045388
_symmetry_Int_Tables_number   1
_chemical_formula_structural   VZnO4
_chemical_formula_sum   'V64 Zn64 O256'
_cell_volume   4796.19879507
_cell_formula_units_Z   64
loop_
 _symmetry_equiv_pos_site_id
 _symmetry_equiv_pos_as_xyz
  1  'x, y, z'
loop_
 _atom_site_type_symbol
 _atom_site_label
 _atom_site_symmetry_multiplicity
 _atom_site_fract_x
 _atom_site_fract_y
 _atom_site_fract_z
 _atom_site_occupancy
  V  V0  1  0.63563246  0.62760631  -0.00044288  1
  V  V1  1  0.77235850  0.86785367  0.64739301  1
  V  V2  1  -0.00974548  0.87976347  0.38035822  1
  V  V3  1  0.64889926  0.74843758  0.87770149  1
  V  V4  1  0.11239850  0.25380642  0.88412749  1
  V  V5  1  0.87313286  0.61798584  0.24261367  1
  V  V6  1  0.25594110  0.12694303  0.88825744  1
  V  V7  1  0.60721789  0.87735591  0.25047780  1
  V  V8  1  0.63067421  0.11411915  -0.00385639  1
  V  V9  1  0.11909753  0.87356909  0.23440372  1
  V  V10  1  -0.00586048  0.38227574  0.38237051  1
  V  V11  1  0.62958044  0.38335038  0.73673803  1
  V  V12  1  0.25471575  0.60301782  0.85789359  1
  V  V13  1  0.48822138  0.24911209  0.74043310  1
  V  V14  1  0.37702863  -0.00342943  0.38587584  1
  V  V15  1  0.49636509  0.37815483  0.35355414  1
  V  V16  1  0.15077527  0.50836478  0.11337287  1
  V  V17  1  0.63596275  0.76275478  0.38726260  1
  V  V18  1  0.74233197  0.85827715  0.12257548  1
  V  V19  1  0.24295545  0.34391539  0.61783545  1
  V  V20  1  0.61977822  0.49281767  0.13576365  1
  V  V21  1  0.10932788  0.36293267  0.74820583  1
  V  V22  1  -0.00014739  0.63705917  0.64594989  1
  V  V23  1  0.60498016  0.87800460  0.75809244  1
  V  V24  1  0.49009448  0.63522149  0.12848699  1
  V  V25  1  0.12419587  0.11805739  0.01211616  1
  V  V26  1  0.37354143  0.63610494  0.26032039  1
  V  V27  1  0.62575962  0.25282519  0.87255858  1
  V  V28  1  0.49560623  0.11593702  0.61468384  1
  V  V29  1  0.12647065  0.37152108  0.24231134  1
  V  V30  1  0.13624512  0.86599780  0.73221743  1
  V  V31  1  0.11600296  0.61765464  0.49149786  1
  V  V32  1  0.01125524  0.86484059  0.87194332  1
  V  V33  1  0.84893678  0.61918079  0.77185975  1
  V  V34  1  0.76022309  0.12290831  0.37544623  1
  V  V35  1  0.73887469  0.36937927  0.14278661  1
  V  V36  1  0.38684241  0.74494608  0.61979757  1
  V  V37  1  0.11621325  0.24663639  0.38840929  1
  V  V38  1  0.25870915  0.88504249  0.61315494  1
  V  V39  1  0.89916253  0.48651823  0.88914019  1
  V  V40  1  0.62634584  0.12086929  0.49948237  1
  V  V41  1  -0.00239217  0.10577562  0.12941132  1
  V  V42  1  0.39733801  0.61982881  0.74568678  1
  V  V43  1  0.24860633  0.00423228  0.23431924  1
  V  V44  1  0.24100033  0.12785332  0.38802975  1
  V  V45  1  0.74951522  0.25936533  -0.00242956  1
  V  V46  1  0.25744565  0.50078370  0.27247319  1
  V  V47  1  0.49280260  0.49958813  -0.00773243  1
  V  V48  1  0.87561900  0.00758146  0.87374214  1
  V  V49  1  0.49907274  0.12702602  0.10779326  1
  V  V50  1  0.38026019  0.37713650  0.50270789  1
  V  V51  1  0.25326441  0.74375557  0.49436578  1
  V  V52  1  0.61535276  0.24852012  0.36379313  1
  V  V53  1  0.12459048  0.75125959  0.36665216  1
  V  V54  1  0.88783486  0.87011056  0.01561791  1
  V  V55  1  0.75649785  0.00386452  0.24080982  1
  V  V56  1  0.36899744  0.36547493  0.00935022  1
  V  V57  1  0.36525479  0.11117594  0.74834523  1
  V  V58  1  0.88315993  0.25034565  0.13130980  1
  V  V59  1  0.27428191  0.86450207  0.12358629  1
  V  V60  1  0.12854521  0.50464946  0.63810127  1
  V  V61  1  0.25849345  0.74174846  -0.01907956  1
  V  V62  1  0.48842975  0.37817218  0.87082649  1
  V  V63  1  0.38116060  0.14011866  0.24867144  1
  Zn  Zn64  1  0.18360138  0.18835723  0.19299356  1
  Zn  Zn65  1  0.17749725  0.18043900  0.69808976  1
  Zn  Zn66  1  0.19351338  0.68515434  0.18079789  1
  Zn  Zn67  1  0.19587206  0.69128805  0.68870442  1
  Zn  Zn68  1  0.68090289  0.17932551  0.18592536  1
  Zn  Zn69  1  0.66347311  0.23403876  0.65160257  1
  Zn  Zn70  1  0.67073637  0.68925669  0.19799442  1
  Zn  Zn71  1  0.68540340  0.69303879  0.69867335  1
  Zn  Zn72  1  0.30889109  0.31525472  0.32450882  1
  Zn  Zn73  1  0.29929160  0.30946886  0.80884776  1
  Zn  Zn74  1  0.30919657  0.81700830  0.31094620  1
  Zn  Zn75  1  0.31642296  0.80574003  0.79587638  1
  Zn  Zn76  1  0.80218157  0.30396639  0.31989889  1
  Zn  Zn77  1  0.79840351  0.36287913  0.83635229  1
  Zn  Zn78  1  0.80365263  0.81152355  0.30833556  1
  Zn  Zn79  1  0.82557138  0.81743160  0.81792082  1
  Zn  Zn80  1  0.18393825  0.43525287  0.44056461  1
  Zn  Zn81  1  0.18961230  0.44180726  0.92465025  1
  Zn  Zn82  1  0.18360030  0.93969585  0.43530985  1
  Zn  Zn83  1  0.20785697  0.93658102  0.94136650  1
  Zn  Zn84  1  0.65880049  0.45723934  0.33815903  1
  Zn  Zn85  1  0.68269245  0.44264510  0.94027141  1
  Zn  Zn86  1  0.68181996  0.94649545  0.43884358  1
  Zn  Zn87  1  0.69539057  0.93462027  0.92880691  1
  Zn  Zn88  1  0.31978655  0.19284335  0.07042042  1
  Zn  Zn89  1  0.31147035  0.07407096  0.56281765  1
  Zn  Zn90  1  0.31576637  0.56445167  0.05424360  1
  Zn  Zn91  1  0.30871690  0.56272080  0.56090594  1
  Zn  Zn92  1  0.81533763  0.06184057  0.05270753  1
  Zn  Zn93  1  0.79699639  0.08392278  0.58861402  1
  Zn  Zn94  1  0.80832372  0.54545361  0.05852727  1
  Zn  Zn95  1  0.81257943  0.67110609  0.59620660  1
  Zn  Zn96  1  0.42932636  0.44468190  0.18336710  1
  Zn  Zn97  1  0.41224535  0.41928751  0.69346898  1
  Zn  Zn98  1  0.43667271  0.95565119  0.19044580  1
  Zn  Zn99  1  0.43644440  0.93453723  0.68101335  1
  Zn  Zn100  1  0.91322770  0.40587300  0.22799224  1
  Zn  Zn101  1  0.93840157  0.45868933  0.68628367  1
  Zn  Zn102  1  0.92984114  0.93226077  0.19451362  1
  Zn  Zn103  1  0.94966857  0.93805612  0.70452778  1
  Zn  Zn104  1  0.06602402  0.05532740  0.31076890  1
  Zn  Zn105  1  0.08720713  0.03048749  0.85155514  1
  Zn  Zn106  1  0.06784378  0.55357781  0.30672329  1
  Zn  Zn107  1  0.06555361  0.56485315  0.82113080  1
  Zn  Zn108  1  0.56157225  0.05642041  0.31232668  1
  Zn  Zn109  1  0.58290835  0.07875863  0.79406163  1
  Zn  Zn110  1  0.51867461  0.58427324  0.34474854  1
  Zn  Zn111  1  0.56892861  0.56395784  0.80946896  1
  Zn  Zn112  1  0.42747749  0.19607379  0.43478791  1
  Zn  Zn113  1  0.44282301  0.18724451  0.92934372  1
  Zn  Zn114  1  0.44801541  0.71279385  0.42843936  1
  Zn  Zn115  1  0.42421853  0.68264782  0.94440404  1
  Zn  Zn116  1  0.93918782  0.18634671  0.30500661  1
  Zn  Zn117  1  0.93810607  0.19231681  0.94873195  1
  Zn  Zn118  1  0.95218253  0.68095985  0.42339068  1
  Zn  Zn119  1  0.90894810  0.69965966  0.92414161  1
  Zn  Zn120  1  0.18949259  0.32130373  0.06163156  1
  Zn  Zn121  1  0.04832850  0.31365420  0.56191081  1
  Zn  Zn122  1  0.09361899  0.81843873  0.02549870  1
  Zn  Zn123  1  0.06057815  0.81171275  0.55544858  1
  Zn  Zn124  1  0.55571977  0.30708476  0.06388729  1
  Zn  Zn125  1  0.55805915  0.30873196  0.54794571  1
  Zn  Zn126  1  0.56843210  0.81181828  0.06423049  1
  Zn  Zn127  1  0.58211217  0.81139014  0.57567501  1
  O  O128  1  0.11338953  0.12925261  0.11996563  1
  O  O129  1  0.10636904  0.10920794  0.63275775  1
  O  O130  1  0.12852717  0.60626766  0.13287424  1
  O  O131  1  0.12163121  0.62140576  0.62110142  1
  O  O132  1  0.61637231  0.12706426  0.10339276  1
  O  O133  1  0.61059774  0.13626697  0.61211169  1
  O  O134  1  0.61393379  0.61605407  0.11787221  1
  O  O135  1  0.69807068  0.62463743  0.59683700  1
  O  O136  1  0.39242532  0.38102660  0.38125193  1
  O  O137  1  0.38469150  0.36843776  0.87109999  1
  O  O138  1  0.35904284  0.89602638  0.37377522  1
  O  O139  1  0.34252322  0.88778531  0.87994131  1
  O  O140  1  0.89495274  0.36818610  0.34062403  1
  O  O141  1  0.90362554  0.38389688  0.86865949  1
  O  O142  1  0.89309667  0.85947705  0.35693573  1
  O  O143  1  0.89438661  0.87942560  0.88791664  1
  O  O144  1  0.24848329  0.01464769  0.36683410  1
  O  O145  1  0.24047405  0.02611411  0.87912887  1
  O  O146  1  0.24491249  0.50684835  0.37119635  1
  O  O147  1  0.26171839  0.50246982  0.85939020  1
  O  O148  1  0.75006969  0.01678900  0.37550651  1
  O  O149  1  0.77408355  -0.01107545  0.87072607  1
  O  O150  1  0.74595145  0.51390151  0.37124599  1
  O  O151  1  0.77151352  0.46984660  0.87917494  1
  O  O152  1  0.25299106  0.50363345  0.12980101  1
  O  O153  1  0.22944755  0.50501893  0.62533503  1
  O  O154  1  0.25228682  0.99053542  0.13537907  1
  O  O155  1  0.25630369  0.98458311  0.61233638  1
  O  O156  1  0.73166340  0.48136896  0.11989884  1
  O  O157  1  0.69620081  0.53589740  0.60028120  1
  O  O158  1  0.74973982  1.01007721  0.13906247  1
  O  O159  1  0.74748162  0.97403663  0.60317123  1
  O  O160  1  0.02398971  0.38851853  0.25304963  1
  O  O161  1  0.01132255  0.37557428  0.73426604  1
  O  O162  1  0.01654297  0.87415252  0.24696788  1
  O  O163  1  0.01852108  0.86378791  0.76515630  1
  O  O164  1  0.48961121  0.37538324  0.25481445  1
  O  O165  1  0.49794733  0.36354694  0.74972591  1
  O  O166  1  0.50829007  0.88573121  0.24956641  1
  O  O167  1  0.50489479  0.87114518  0.74955737  1
  O  O168  1  0.48034848  0.12944832  0.26271230  1
  O  O169  1  0.49348684  0.13346018  0.74506040  1
  O  O170  1  0.48959118  0.61657654  0.23417422  1
  O  O171  1  0.49854947  0.63098188  0.74677923  1
  O  O172  1  1.00556201  0.12268303  0.23511642  1
  O  O173  1  1.05587960  0.06445771  0.67537542  1
  O  O174  1  0.97853033  0.60930589  0.24228899  1
  O  O175  1  1.01748569  0.63661191  0.74496156  1
  O  O176  1  0.38052204  0.26004941  -0.00432065  1
  O  O177  1  0.36180811  0.27479862  0.48505067  1
  O  O178  1  0.35703321  0.74550432  0.01267632  1
  O  O179  1  0.36100234  0.73955425  0.49650052  1
  O  O180  1  0.85551009  0.24977802  0.01331124  1
  O  O181  1  0.93581480  0.18937005  0.58356491  1
  O  O182  1  0.85884318  0.77325026  -0.00442401  1
  O  O183  1  0.85603610  0.73473404  0.46239899  1
  O  O184  1  0.11171846  0.24703363  0.48766780  1
  O  O185  1  0.12798140  0.25395313  0.98695713  1
  O  O186  1  0.13197838  0.74092709  0.48736145  1
  O  O187  1  0.16395583  0.73065762  1.02477822  1
  O  O188  1  0.61763609  0.23493782  0.48712877  1
  O  O189  1  0.62819751  0.24718101  0.98846592  1
  O  O190  1  0.64297146  0.77741436  0.48841587  1
  O  O191  1  0.62473244  0.73600934  0.99285321  1
  O  O192  1  0.50490976  0.22942997  0.12823485  1
  O  O193  1  0.49683132  0.24266185  0.63798622  1
  O  O194  1  0.50395804  0.73367238  0.12209137  1
  O  O195  1  0.48426768  0.75494870  0.59421150  1
  O  O196  1  0.97911569  0.26258377  0.12652580  1
  O  O197  1  0.98067757  0.23932039  0.62776083  1
  O  O198  1  1.00783015  0.68925335  0.06783809  1
  O  O199  1  1.00180847  0.73483396  0.61815562  1
  O  O200  1  0.01307503  0.25459864  0.36276681  1
  O  O201  1  0.01252770  0.24510458  0.87974166  1
  O  O202  1  0.01835113  0.75821500  0.36938231  1
  O  O203  1  -0.00238477  0.76559031  0.89453929  1
  O  O204  1  0.50457054  0.26528322  0.37885464  1
  O  O205  1  0.50680000  0.25918898  0.86462758  1
  O  O206  1  0.48537320  0.84723996  0.43694597  1
  O  O207  1  0.48997244  0.78605644  0.91643425  1
  O  O208  1  0.24181866  0.12576780  0.48710740  1
  O  O209  1  0.24343709  0.13718104  0.99359323  1
  O  O210  1  0.23417681  0.63729865  0.50319688  1
  O  O211  1  0.27233110  0.62727873  0.96855720  1
  O  O212  1  0.73650423  0.12282434  0.49524840  1
  O  O213  1  0.73612049  0.13987076  1.00500501  1
  O  O214  1  0.80990271  0.67454354  0.47975135  1
  O  O215  1  0.73332272  0.61840555  1.00919361  1
  O  O216  1  0.26648698  0.37613565  -0.01060676  1
  O  O217  1  0.23854835  0.37195889  0.51697207  1
  O  O218  1  0.24963636  0.86343286  0.01799146  1
  O  O219  1  0.23964110  0.85967078  0.50668067  1
  O  O220  1  0.73526612  0.36122904  0.01564532  1
  O  O221  1  0.80722538  0.40495729  0.49550356  1
  O  O222  1  0.73501138  0.87892581  0.02276756  1
  O  O223  1  0.75008096  0.91733587  0.53937470  1
  O  O224  1  0.14390413  0.49724354  0.24261973  1
  O  O225  1  0.12207800  0.48723203  0.74175317  1
  O  O226  1  0.13830086  0.98406940  0.25059049  1
  O  O227  1  0.13608400  0.96069023  0.77638251  1
  O  O228  1  0.62028291  0.50632562  0.23400390  1
  O  O229  1  0.60998354  0.48242159  0.73826031  1
  O  O230  1  0.63653502  0.98479047  0.26182625  1
  O  O231  1  0.61966083  0.97802563  0.77550769  1
  O  O232  1  0.35934123  0.01328095  0.25896164  1
  O  O233  1  0.37999182  0.01254918  0.74974243  1
  O  O234  1  0.36224892  0.50486339  0.25351199  1
  O  O235  1  0.38849852  0.51943893  0.73045131  1
  O  O236  1  0.85649961  -0.00269861  0.25497438  1
  O  O237  1  0.89615594  0.00979573  0.77201880  1
  O  O238  1  0.86644889  0.51341528  0.24526258  1
  O  O239  1  0.88758637  0.51347449  0.77164322  1
  O  O240  1  0.11678846  0.36401632  0.37346025  1
  O  O241  1  0.12843850  0.36490577  0.85928967  1
  O  O242  1  0.12090450  0.86461894  0.36481898  1
  O  O243  1  0.10868954  0.87336265  0.91670155  1
  O  O244  1  0.61715117  0.35543317  0.37021587  1
  O  O245  1  0.61206515  0.36977418  0.86164994  1
  O  O246  1  0.63000901  0.87088713  0.36672415  1
  O  O247  1  0.62862083  0.85557042  0.87350556  1
  O  O248  1  0.38617822  0.12633873  0.13653251  1
  O  O249  1  0.38309307  0.12661386  0.63841678  1
  O  O250  1  0.38495279  0.62034428  0.13307308  1
  O  O251  1  0.37483403  0.63722374  0.62513753  1
  O  O252  1  0.89186500  0.13440962  0.11301936  1
  O  O253  1  0.90032009  0.13451608  0.62874981  1
  O  O254  1  0.87153827  0.61209068  0.13771796  1
  O  O255  1  0.89075067  0.61498730  0.65311648  1
  O  O256  1  0.24702570  0.25287561  0.12762065  1
  O  O257  1  0.22945750  0.24455732  0.61624103  1
  O  O258  1  0.26533708  0.76538562  0.14227366  1
  O  O259  1  0.26169582  0.75459142  0.60845412  1
  O  O260  1  0.73939836  0.25755213  0.11977227  1
  O  O261  1  0.77786854  0.23009272  0.67814338  1
  O  O262  1  0.73791288  0.75848949  0.13113980  1
  O  O263  1  0.75437782  0.76347507  0.62998125  1
  O  O264  1  0.23228498  0.23809848  0.37116446  1
  O  O265  1  0.23119135  0.23356563  0.86265769  1
  O  O266  1  0.23993993  0.75509419  0.38560911  1
  O  O267  1  0.25457596  0.75873850  0.88073946  1
  O  O268  1  0.73095536  0.23445388  0.37350427  1
  O  O269  1  0.74175580  0.26614188  0.88924972  1
  O  O270  1  0.73073349  0.73973442  0.36204366  1
  O  O271  1  0.74662647  0.74831330  0.87964279  1
  O  O272  1  0.01644795  0.13104481  0.01541230  1
  O  O273  1  -0.04214994  0.04833746  0.49201393  1
  O  O274  1  -0.01733537  0.63740550  0.02200147  1
  O  O275  1  0.01280585  0.62845714  0.50447951  1
  O  O276  1  0.50615283  0.12230743  0.00086788  1
  O  O277  1  0.49228493  0.13296920  0.51256216  1
  O  O278  1  0.49777150  0.61599929  0.00998063  1
  O  O279  1  0.53937847  0.59741072  0.55428132  1
  O  O280  1  0.48243194  0.38284803  0.51443721  1
  O  O281  1  0.49190357  0.37860577  0.98958568  1
  O  O282  1  0.50256992  0.88698238  0.49780058  1
  O  O283  1  0.49372008  0.83861848  0.97309535  1
  O  O284  1  0.98679982  0.36631830  0.48186026  1
  O  O285  1  0.98889566  0.43730317  1.06596684  1
  O  O286  1  0.99788169  0.87037778  0.48165310  1
  O  O287  1  0.98755064  0.86314583  1.03056540  1
  O  O288  1  0.53552861  0.47740962  0.37274734  1
  O  O289  1  0.50770989  0.49040120  0.88249323  1
  O  O290  1  0.47665298  1.00720411  0.37054581  1
  O  O291  1  0.41010269  0.93417924  0.87531743  1
  O  O292  1  1.00812449  0.48325892  0.37628369  1
  O  O293  1  0.99878444  0.51264344  0.89276856  1
  O  O294  1  1.00189523  0.98040884  0.36441237  1
  O  O295  1  0.99514033  0.97733665  0.88973942  1
  O  O296  1  -0.00757609  0.00762871  0.12712006  1
  O  O297  1  0.02134597  0.00700440  0.63296689  1
  O  O298  1  0.01112336  0.48769854  0.11497669  1
  O  O299  1  0.01674228  0.52026049  0.62552084  1
  O  O300  1  0.50613355  0.02976040  0.14204237  1
  O  O301  1  0.49933240  0.01645553  0.62647525  1
  O  O302  1  0.50763307  0.50189571  0.11377504  1
  O  O303  1  0.52846668  0.52681996  0.56841176  1
  O  O304  1  0.24168020  0.39014242  0.26479186  1
  O  O305  1  0.23382473  0.36319072  0.72805774  1
  O  O306  1  0.24652866  0.88554141  0.24004990  1
  O  O307  1  0.24907996  0.86857793  0.72332019  1
  O  O308  1  0.73295101  0.36906097  0.24380609  1
  O  O309  1  0.72827583  0.37218428  0.74898518  1
  O  O310  1  0.74443925  0.88489272  0.23843816  1
  O  O311  1  0.75398229  0.87595741  0.74899403  1
  O  O312  1  0.25085293  0.11377045  0.24940621  1
  O  O313  1  0.26209610  0.12283330  0.75105845  1
  O  O314  1  0.26567849  0.61716633  0.25200765  1
  O  O315  1  0.27185660  0.63367650  0.75402373  1
  O  O316  1  0.73922104  0.11347631  0.26348953  1
  O  O317  1  0.75973013  0.09976115  0.70519414  1
  O  O318  1  0.76829078  0.62633548  0.24366566  1
  O  O319  1  0.74954689  0.61283831  0.75531681  1
  O  O320  1  0.35555156  0.12475120  0.36777907  1
  O  O321  1  0.36290119  0.13080751  0.86570366  1
  O  O322  1  0.40146877  0.62314704  0.36111006  1
  O  O323  1  0.37975400  0.63122399  0.85230818  1
  O  O324  1  0.85867569  0.13949712  0.37655236  1
  O  O325  1  0.88350635  0.10584895  0.90159773  1
  O  O326  1  0.87797221  0.62286645  0.34823206  1
  O  O327  1  0.86405359  0.60749578  0.87887230  1
  O  O328  1  0.13394519  0.39005674  0.13761220  1
  O  O329  1  0.12466959  0.38094938  0.62816074  1
  O  O330  1  0.13168594  0.86465459  0.13477228  1
  O  O331  1  0.13320748  0.87042451  0.62670137  1
  O  O332  1  0.62155804  0.38423126  0.12425894  1
  O  O333  1  0.62578299  0.34716179  0.63588548  1
  O  O334  1  0.62808892  0.87433536  0.13959987  1
  O  O335  1  0.63490757  0.86742607  0.65663402  1
  O  O336  1  0.12892072  0.26927272  0.25263824  1
  O  O337  1  0.11240459  0.25631173  0.75621058  1
  O  O338  1  0.13849914  0.75830813  0.25935652  1
  O  O339  1  0.13980532  0.76707688  0.75794128  1
  O  O340  1  0.61459229  0.23124267  0.26465307  1
  O  O341  1  0.60938825  0.25132709  0.75869532  1
  O  O342  1  0.61611364  0.76775427  0.26259298  1
  O  O343  1  0.62164277  0.75026740  0.77272262  1
  O  O344  1  0.36321907  0.23808977  0.25769148  1
  O  O345  1  0.38599447  0.24159089  0.75593735  1
  O  O346  1  0.37267163  0.73658251  0.25977836  1
  O  O347  1  0.38570768  0.74616840  0.72616813  1
  O  O348  1  0.86243831  0.23868111  0.23459986  1
  O  O349  1  0.78548201  0.16959547  0.73316973  1
  O  O350  1  0.87973407  0.72308404  0.23832624  1
  O  O351  1  0.87019056  0.72082620  0.77210934  1
  O  O352  1  0.35677822  0.47904954  0.50325614  1
  O  O353  1  0.38692919  0.48601581  0.99967593  1
  O  O354  1  0.36758031  1.01132583  0.48590082  1
  O  O355  1  0.42455150  0.97804710  0.93472029  1
  O  O356  1  0.85359300  0.43931988  0.54318035  1
  O  O357  1  0.87543438  0.49253868  0.99121613  1
  O  O358  1  0.89677240  1.01228149  0.50954194  1
  O  O359  1  0.86838233  0.97765902  0.99686546  1
  O  O360  1  0.13448627  0.02043403  0.00305630  1
  O  O361  1  0.12786594  0.00952110  0.50339605  1
  O  O362  1  0.14040482  0.49351117  0.01339831  1
  O  O363  1  0.12658242  0.51531102  0.50561010  1
  O  O364  1  0.63119496  0.01619832  -0.01759210  1
  O  O365  1  0.61097094  0.02062381  0.49427672  1
  O  O366  1  0.61302248  0.51046363  0.00432911  1
  O  O367  1  0.69535191  0.50407223  0.53319426  1
  O  O368  1  0.37792649  0.37256628  0.10809486  1
  O  O369  1  0.35230512  0.36287681  0.61763108  1
  O  O370  1  0.37245945  0.88347782  0.12821598  1
  O  O371  1  0.36628751  0.86456158  0.61855671  1
  O  O372  1  0.85066180  0.36305446  0.13825333  1
  O  O373  1  0.86229355  0.40037068  0.61575996  1
  O  O374  1  0.85578445  0.87516114  0.12314507  1
  O  O375  1  0.87290241  0.87619656  0.64394084  1
  O  O376  1  0.12948509  0.13538385  0.36637312  1
  O  O377  1  0.12721548  0.13375271  0.88978544  1
  O  O378  1  0.11613256  0.63443251  0.38095848  1
  O  O379  1  0.15552208  0.62031135  0.86125579  1
  O  O380  1  0.62038181  0.13033015  0.38564251  1
  O  O381  1  0.61898971  0.14062536  0.88291533  1
  O  O382  1  0.55387110  0.68652413  0.39055974  1
  O  O383  1  0.61930628  0.63409785  0.88897389  1
