# generated using pymatgen
data_VZnO4
_symmetry_space_group_name_H-M   'P 1'
_cell_length_a   17.11016726
_cell_length_b   16.93627337
_cell_length_c   17.02842842
_cell_angle_alpha   89.62914816
_cell_angle_beta   89.31533729
_cell_angle_gamma   90.29461086
_symmetry_Int_Tables_number   1
_chemical_formula_structural   VZnO4
_chemical_formula_sum   'V64 Zn64 O256'
_cell_volume   4934.01717135
_cell_formula_units_Z   64
loop_
 _symmetry_equiv_pos_site_id
 _symmetry_equiv_pos_as_xyz
  1  'x, y, z'
loop_
 _atom_site_type_symbol
 _atom_site_label
 _atom_site_symmetry_multiplicity
 _atom_site_fract_x
 _atom_site_fract_y
 _atom_site_fract_z
 _atom_site_occupancy
  V  V0  1  0.24799022  0.23159348  -0.01890942  1
  V  V1  1  0.01590244  0.48668694  -0.03408261  1
  V  V2  1  0.60252282  0.63373252  0.46517541  1
  V  V3  1  0.12590496  0.87257308  0.25193172  1
  V  V4  1  0.47041219  0.00103128  0.49740950  1
  V  V5  1  0.62518095  0.14833692  0.00182572  1
  V  V6  1  0.61849241  0.25175287  0.37756557  1
  V  V7  1  0.87398091  0.60560713  0.23864015  1
  V  V8  1  0.63145010  0.50043647  0.11748701  1
  V  V9  1  0.63775264  0.87561659  0.73779774  1
  V  V10  1  0.74658607  0.48709872  0.25762751  1
  V  V11  1  0.50726757  0.87332435  0.86174328  1
  V  V12  1  0.88193390  0.77273768  0.11310537  1
  V  V13  1  0.13227980  0.72646720  0.38309660  1
  V  V14  1  0.12241675  0.01306244  0.12447219  1
  V  V15  1  0.26168686  0.49671422  0.76184645  1
  V  V16  1  0.86385490  0.02409081  0.36328548  1
  V  V17  1  0.61171592  0.37584439  0.25123736  1
  V  V18  1  0.25230256  0.75227751  0.01333133  1
  V  V19  1  0.50267859  0.63905765  0.11702730  1
  V  V20  1  0.00152922  0.24443035  0.22965097  1
  V  V21  1  0.50951974  0.62485109  0.62968519  1
  V  V22  1  0.22140947  0.24863061  0.56645296  1
  V  V23  1  0.62051464  0.00163042  0.61871552  1
  V  V24  1  0.75716784  0.60122704  0.88897952  1
  V  V25  1  -0.04558808  0.47268019  0.45980260  1
  V  V26  1  0.38059502  0.87400326  0.00409907  1
  V  V27  1  0.14139637  0.46039464  0.64266386  1
  V  V28  1  0.51027976  0.24336871  0.76782518  1
  V  V29  1  0.39940384  0.39087802  0.51459019  1
  V  V30  1  0.84125804  0.25842819  0.13294753  1
  V  V31  1  0.13985975  0.29914687  0.35022352  1
  V  V32  1  0.37478038  0.00619219  0.87161155  1
  V  V33  1  0.39563052  0.24930139  0.63966177  1
  V  V34  1  0.50634442  0.87096027  0.37363110  1
  V  V35  1  0.25948485  0.88310687  0.13357650  1
  V  V36  1  0.12662451  0.74547695  0.88386654  1
  V  V37  1  0.48694464  0.49614363  -0.00329603  1
  V  V38  1  0.62082044  0.12744740  0.49287898  1
  V  V39  1  0.25897148  0.86943979  0.62424357  1
  V  V40  1  0.74598565  -0.00558582  0.21286872  1
  V  V41  1  0.73500634  0.37125728  0.59915871  1
  V  V42  1  0.00922307  0.88809213  0.89472215  1
  V  V43  1  0.25612521  0.39186081  0.09230734  1
  V  V44  1  0.37971362  0.75198892  0.61874637  1
  V  V45  1  0.77997955  0.49833966  0.71699892  1
  V  V46  1  0.61010096  0.39819876  0.74753435  1
  V  V47  1  0.47711290  0.26100251  0.25054236  1
  V  V48  1  0.38696849  0.63854588  0.76456989  1
  V  V49  1  0.12933138  0.87234764  0.75108542  1
  V  V50  1  0.72529037  0.13495074  0.84360643  1
  V  V51  1  0.48422370  0.13701001  0.12898050  1
  V  V52  1  0.00593526  -0.01962135  0.49531809  1
  V  V53  1  -0.00041393  0.74289196  0.25551737  1
  V  V54  1  0.38682462  0.63706824  0.25568508  1
  V  V55  1  0.89304752  0.03007071  0.87216352  1
  V  V56  1  0.51076527  0.00147848  0.00803832  1
  V  V57  1  0.76760868  0.80215931  -0.03356471  1
  V  V58  1  0.00693093  0.60117300  0.11600965  1
  V  V59  1  0.25791633  0.62765157  0.88685633  1
  V  V60  1  0.25721760  0.00249252  0.75459400  1
  V  V61  1  0.09144986  0.26422846  0.88028607  1
  V  V62  1  0.26907121  0.50578838  0.27988776  1
  V  V63  1  0.76252493  0.64988556  0.36638754  1
  Zn  Zn64  1  0.17327827  0.22472590  0.16014323  1
  Zn  Zn65  1  0.22378299  0.21198145  0.76546647  1
  Zn  Zn66  1  0.16951803  0.64036612  0.21127148  1
  Zn  Zn67  1  0.19562960  0.68369495  0.69597991  1
  Zn  Zn68  1  0.66127885  0.17940720  0.18964651  1
  Zn  Zn69  1  0.66098881  0.19739583  0.66824019  1
  Zn  Zn70  1  0.70142234  0.67793435  0.08074558  1
  Zn  Zn71  1  0.68188239  0.67346677  0.73490167  1
  Zn  Zn72  1  0.31805937  0.33506869  0.32879100  1
  Zn  Zn73  1  0.34079452  0.31891412  0.83148549  1
  Zn  Zn74  1  0.30431029  0.78946475  0.30977599  1
  Zn  Zn75  1  0.31568302  0.81609667  0.81758804  1
  Zn  Zn76  1  0.81987365  0.22115492  0.32226476  1
  Zn  Zn77  1  0.75166634  0.33460858  0.83174915  1
  Zn  Zn78  1  0.77736156  0.79045024  0.24682639  1
  Zn  Zn79  1  0.82815531  0.86708484  0.80054654  1
  Zn  Zn80  1  0.22430040  0.43736917  0.46340334  1
  Zn  Zn81  1  0.19369179  0.42279645  0.90965293  1
  Zn  Zn82  1  0.18868779  0.91856109  0.43574602  1
  Zn  Zn83  1  0.18892938  0.93765053  0.94479984  1
  Zn  Zn84  1  0.59466597  0.44859750  0.45026154  1
  Zn  Zn85  1  0.64075815  0.45977752  0.91010289  1
  Zn  Zn86  1  0.65283070  0.97825011  0.38313120  1
  Zn  Zn87  1  0.68977834  0.96403054  0.91478166  1
  Zn  Zn88  1  0.30656191  0.06159655  0.05719673  1
  Zn  Zn89  1  0.30619617  0.07359382  0.58209138  1
  Zn  Zn90  1  0.32174109  0.56714938  0.06912119  1
  Zn  Zn91  1  0.30224506  0.56270273  0.59093433  1
  Zn  Zn92  1  0.80667831  0.06365133  0.04075919  1
  Zn  Zn93  1  0.78550502  0.03220165  0.51041513  1
  Zn  Zn94  1  0.81692671  0.54523407  0.06454108  1
  Zn  Zn95  1  0.75982099  0.51579652  0.49809428  1
  Zn  Zn96  1  0.42857127  0.44431892  0.17549089  1
  Zn  Zn97  1  0.43427926  0.44574564  0.69478897  1
  Zn  Zn98  1  0.46003523  0.92114772  0.17919761  1
  Zn  Zn99  1  0.44115631  0.94009749  0.68139351  1
  Zn  Zn100  1  0.93870501  0.42046385  0.19369156  1
  Zn  Zn101  1  0.93703016  0.42560070  0.63201415  1
  Zn  Zn102  1  0.93633168  0.95262222  0.20052358  1
  Zn  Zn103  1  0.95875949  0.97034145  0.70133091  1
  Zn  Zn104  1  0.04350895  0.04306827  0.31076717  1
  Zn  Zn105  1  0.08054305  0.07251903  0.80953901  1
  Zn  Zn106  1  0.09755683  0.50565340  0.33874253  1
  Zn  Zn107  1  0.05347837  0.45293996  0.78723818  1
  Zn  Zn108  1  0.49542938  0.09787982  0.34755675  1
  Zn  Zn109  1  0.55927246  0.05812783  0.81066109  1
  Zn  Zn110  1  0.57265751  0.58158601  0.30021893  1
  Zn  Zn111  1  0.57147262  0.58478261  0.82241214  1
  Zn  Zn112  1  0.38224439  0.17697530  0.46978141  1
  Zn  Zn113  1  0.44685036  0.18210112  0.92881371  1
  Zn  Zn114  1  0.43130800  0.68569723  0.44420247  1
  Zn  Zn115  1  0.44397669  0.69007723  0.94675515  1
  Zn  Zn116  1  0.98750310  0.16706294  0.40459291  1
  Zn  Zn117  1  0.88417058  0.23543386  0.90833665  1
  Zn  Zn118  1  0.97935087  0.63145504  0.40621954  1
  Zn  Zn119  1  0.93436340  0.67898105  0.94028105  1
  Zn  Zn120  1  0.07749851  0.33021825  0.06279446  1
  Zn  Zn121  1  0.04398423  0.29886547  0.51977123  1
  Zn  Zn122  1  0.06801343  0.81258627  0.07001976  1
  Zn  Zn123  1  0.07935116  0.84539839  0.54210051  1
  Zn  Zn124  1  0.55694027  0.31961872  0.06697025  1
  Zn  Zn125  1  0.56124994  0.31897558  0.57018642  1
  Zn  Zn126  1  0.56779156  0.79360712  0.00934224  1
  Zn  Zn127  1  0.55885370  0.81420932  0.55176394  1
  O  O128  1  0.14607006  0.10938168  0.14550369  1
  O  O129  1  0.01863094  0.13523174  0.66394635  1
  O  O130  1  0.10233859  0.62971959  0.11819574  1
  O  O131  1  0.03667118  0.65587267  0.68407188  1
  O  O132  1  0.60034029  0.13070402  0.10719296  1
  O  O133  1  0.60837836  0.11738939  0.60178503  1
  O  O134  1  0.61869026  0.61054182  0.12573441  1
  O  O135  1  0.60337240  0.64449505  0.65358386  1
  O  O136  1  0.37271772  0.37122958  0.41888896  1
  O  O137  1  0.38348631  0.32667205  0.94081914  1
  O  O138  1  0.32614806  0.87805411  0.38450403  1
  O  O139  1  0.39371346  0.87999552  0.88382966  1
  O  O140  1  0.89088580  0.29280262  0.38959736  1
  O  O141  1  0.85006352  0.36535887  0.90583106  1
  O  O142  1  0.82436930  0.81289207  0.50049301  1
  O  O143  1  0.91940355  0.85355195  0.87198081  1
  O  O144  1  0.25546331  -0.01052514  0.36934497  1
  O  O145  1  0.26966687  -0.01427515  0.87274792  1
  O  O146  1  0.26585476  0.50763876  0.38027482  1
  O  O147  1  0.25535755  0.52912560  0.89494767  1
  O  O148  1  0.76656203  -0.00837358  0.38211642  1
  O  O149  1  0.76761835  0.04229180  0.86906329  1
  O  O150  1  0.74120786  0.52062216  0.35148069  1
  O  O151  1  0.74850519  0.50061729  0.87568315  1
  O  O152  1  0.24247735  0.49253010  0.09750476  1
  O  O153  1  0.26141118  0.46861357  0.66460997  1
  O  O154  1  0.24923411  0.98691624  0.13072085  1
  O  O155  1  0.26515452  0.98629551  0.64721468  1
  O  O156  1  0.73657881  0.50565681  0.14229954  1
  O  O157  1  0.75461105  0.50270413  0.62049871  1
  O  O158  1  0.74069966  1.00792551  0.11419246  1
  O  O159  1  0.71956698  1.00137457  0.59762577  1
  O  O160  1  -0.01478244  0.33954191  0.26111947  1
  O  O161  1  -0.03220790  0.30092156  0.71000989  1
  O  O162  1  0.02187764  0.84947716  0.23278500  1
  O  O163  1  0.02943657  0.88737968  0.75716887  1
  O  O164  1  0.50186068  0.37115693  0.23914628  1
  O  O165  1  0.50925456  0.38374021  0.75779780  1
  O  O166  1  0.46368859  0.88680577  0.28090995  1
  O  O167  1  0.49914907  0.87227748  0.76197544  1
  O  O168  1  0.49224275  0.13950485  0.23420186  1
  O  O169  1  0.50743971  0.14297147  0.75919169  1
  O  O170  1  0.49921967  0.62811975  0.22938062  1
  O  O171  1  0.48937255  0.63415856  0.75870516  1
  O  O172  1  1.01147663  0.15423032  0.28540172  1
  O  O173  1  0.99845909  0.08112927  0.73070850  1
  O  O174  1  0.98955286  0.63399115  0.22928611  1
  O  O175  1  0.98304307  0.67138643  0.73010082  1
  O  O176  1  0.36634555  0.25664436  -0.02309746  1
  O  O177  1  0.39406944  0.27081995  0.53074082  1
  O  O178  1  0.37000282  0.76816204  -0.00198322  1
  O  O179  1  0.36299665  0.73552869  0.52246165  1
  O  O180  1  0.86087473  0.22977351  0.02623719  1
  O  O181  1  0.87700270  0.27520439  0.46589146  1
  O  O182  1  0.86127064  0.75845129  0.00462140  1
  O  O183  1  0.89639949  0.68307115  0.57045352  1
  O  O184  1  0.12175571  0.23385924  0.56979912  1
  O  O185  1  0.13402118  0.25523541  0.97741088  1
  O  O186  1  0.11140854  0.75768692  0.47714843  1
  O  O187  1  0.14658627  0.76166781  0.99579117  1
  O  O188  1  0.60130957  0.24575880  0.48356873  1
  O  O189  1  0.61394844  0.24701450  0.99825802  1
  O  O190  1  0.61579083  0.73100590  0.49666430  1
  O  O191  1  0.67587888  0.76630008  1.00657950  1
  O  O192  1  0.49220330  0.24467869  0.13158990  1
  O  O193  1  0.49983658  0.25313202  0.64328263  1
  O  O194  1  0.51951410  0.73760164  0.09938012  1
  O  O195  1  0.48339227  0.75092950  0.62404121  1
  O  O196  1  1.02203106  0.24541077  0.13114384  1
  O  O197  1  0.96083208  0.15243646  0.62338138  1
  O  O198  1  0.98579173  0.73733324  0.10557109  1
  O  O199  1  0.98553205  0.79524506  0.61099983  1
  O  O200  1  0.07085126  0.25418462  0.41391512  1
  O  O201  1  -0.00551151  0.26005103  0.89534614  1
  O  O202  1  -0.00701934  0.74234098  0.35485767  1
  O  O203  1  0.02592132  0.74368882  0.89811523  1
  O  O204  1  0.50213191  0.24877989  0.34873465  1
  O  O205  1  0.50385733  0.25735018  0.86772741  1
  O  O206  1  0.48465817  0.77245296  0.39038850  1
  O  O207  1  0.51594238  0.77597745  0.90123437  1
  O  O208  1  0.26687286  0.16332168  0.52000631  1
  O  O209  1  0.25460487  0.13099425  0.98141150  1
  O  O210  1  0.20175980  0.60397876  0.61923093  1
  O  O211  1  0.26859622  0.64713608  0.99852198  1
  O  O212  1  0.71940088  0.12812602  0.48759367  1
  O  O213  1  0.72369622  0.13361660  0.99966062  1
  O  O214  1  0.78457510  0.63262883  0.46084587  1
  O  O215  1  0.75112366  0.61108021  0.99546524  1
  O  O216  1  0.24827494  0.36665877  -0.00908732  1
  O  O217  1  0.24143779  0.33361910  0.51599766  1
  O  O218  1  0.26283450  0.87270289  0.01238077  1
  O  O219  1  0.24880896  0.87884055  0.52731794  1
  O  O220  1  0.83076692  0.39911684  -0.02276024  1
  O  O221  1  0.69666580  0.40946459  0.50741595  1
  O  O222  1  0.76158625  0.90142028  -0.02296462  1
  O  O223  1  0.77231215  0.83760528  0.54375488  1
  O  O224  1  0.16581989  0.53052638  0.25439568  1
  O  O225  1  0.15681732  0.50618547  0.75977546  1
  O  O226  1  0.12182733  0.97588332  0.25496534  1
  O  O227  1  0.14924604  0.98628289  0.76951804  1
  O  O228  1  0.62751108  0.49237437  0.24433814  1
  O  O229  1  0.62053401  0.49892332  0.75688569  1
  O  O230  1  0.64830641  1.02493590  0.26558262  1
  O  O231  1  0.60934729  1.00066241  0.72312430  1
  O  O232  1  0.31877331  -0.04983343  0.34644762  1
  O  O233  1  0.37358340  -0.01048012  0.76478996  1
  O  O234  1  0.37581891  0.51513494  0.24725848  1
  O  O235  1  0.37067500  0.52563657  0.75575098  1
  O  O236  1  0.84181724  0.02354446  0.23605973  1
  O  O237  1  0.87598665  -0.02677512  0.78050789  1
  O  O238  1  0.85991143  0.49841603  0.23961915  1
  O  O239  1  0.87775279  0.48211283  0.71736273  1
  O  O240  1  0.14053096  0.39890311  0.37649926  1
  O  O241  1  0.11191586  0.35824424  0.84280920  1
  O  O242  1  0.13642017  0.85075310  0.35345035  1
  O  O243  1  0.12295712  0.86781094  0.87494259  1
  O  O244  1  0.60720500  0.36645181  0.36100312  1
  O  O245  1  0.64468483  0.36746179  0.84893380  1
  O  O246  1  0.60617863  0.87749917  0.36243603  1
  O  O247  1  0.61353443  0.90183712  0.85198170  1
  O  O248  1  0.38810363  0.12107503  0.11164636  1
  O  O249  1  0.38037316  0.14952930  0.63372765  1
  O  O250  1  0.39871599  0.62834150  0.12561574  1
  O  O251  1  0.38377339  0.63825681  0.64506761  1
  O  O252  1  0.87209012  0.16069283  0.07582485  1
  O  O253  1  0.93471387  0.22793151  0.49776631  1
  O  O254  1  0.88641518  0.61483681  0.12733188  1
  O  O255  1  0.88230530  0.63187147  0.61937124  1
  O  O256  1  0.25718174  0.24162569  0.08336903  1
  O  O257  1  0.26383897  0.25071684  0.66257462  1
  O  O258  1  0.25004017  0.76307729  0.11289007  1
  O  O259  1  0.26295674  0.76430793  0.64072942  1
  O  O260  1  0.74443169  0.24694285  0.14962214  1
  O  O261  1  0.71723838  0.27109415  0.60108094  1
  O  O262  1  0.77876278  0.74817592  0.13546073  1
  O  O263  1  0.78802871  0.74710676  0.67866484  1
  O  O264  1  0.23132767  0.26548681  0.36673051  1
  O  O265  1  0.25279984  0.25148379  0.87060817  1
  O  O266  1  0.23084846  0.72324753  0.37181690  1
  O  O267  1  0.24890313  0.75385435  0.89135104  1
  O  O268  1  0.71670459  0.24513837  0.36090897  1
  O  O269  1  0.77665014  0.22566242  0.86225223  1
  O  O270  1  0.77780048  0.74851680  0.35086597  1
  O  O271  1  0.76705824  0.78844260  0.86869166  1
  O  O272  1  0.00561160  0.12602120  0.02009952  1
  O  O273  1  0.03114546  0.06258509  0.42573148  1
  O  O274  1  -0.01592652  0.58923522  0.00659790  1
  O  O275  1  -0.02242993  0.56429709  0.49793472  1
  O  O276  1  0.50468733  0.11626939  0.00211862  1
  O  O277  1  0.48334873  0.11008820  0.48425296  1
  O  O278  1  0.50425937  0.61654343  0.00915075  1
  O  O279  1  0.50263396  0.63129845  0.52148839  1
  O  O280  1  0.50347175  0.40135083  0.51035065  1
  O  O281  1  0.50349273  0.39651528  1.00731936  1
  O  O282  1  0.49571343  0.88973839  0.48834227  1
  O  O283  1  0.49850500  0.89082169  1.00268000  1
  O  O284  1  0.98937252  0.39650982  0.52796016  1
  O  O285  1  1.00292142  0.39558548  1.01383270  1
  O  O286  1  0.98313274  0.88704757  0.46927482  1
  O  O287  1  1.01660754  0.88227784  0.99301254  1
  O  O288  1  0.55400212  0.54757598  0.40641209  1
  O  O289  1  0.53424871  0.51146102  0.90222581  1
  O  O290  1  0.48715344  0.98929028  0.38850745  1
  O  O291  1  0.49190820  0.99101037  0.88351586  1
  O  O292  1  0.99248356  0.47798650  0.36434199  1
  O  O293  1  0.98554443  0.48091369  0.87044780  1
  O  O294  1  0.94555312  0.97430407  0.31810832  1
  O  O295  1  1.00320602  0.99619854  0.87335985  1
  O  O296  1  0.02307980  0.00271733  0.14110816  1
  O  O297  1  -0.02025014  -0.01039393  0.59349455  1
  O  O298  1  0.00386338  0.50362103  0.14233191  1
  O  O299  1  0.03684281  0.46953690  0.67440479  1
  O  O300  1  0.49711486  0.00881448  0.11241815  1
  O  O301  1  0.50498480  -0.00495590  0.60291214  1
  O  O302  1  0.51222753  0.50888616  0.11126162  1
  O  O303  1  0.49750290  0.52640246  0.63988333  1
  O  O304  1  0.26500862  0.40604849  0.25624827  1
  O  O305  1  0.27306602  0.40782633  0.81241352  1
  O  O306  1  0.24093281  0.85905269  0.23549633  1
  O  O307  1  0.24777759  0.88116024  0.75074505  1
  O  O308  1  0.72977978  0.38704199  0.26053723  1
  O  O309  1  0.74089582  0.39328217  0.72931578  1
  O  O310  1  0.74295082  0.89532385  0.23421742  1
  O  O311  1  0.73338301  0.89687913  0.74291051  1
  O  O312  1  0.32968529  0.12409737  0.29491448  1
  O  O313  1  0.25388407  0.10107796  0.75441606  1
  O  O314  1  0.27954057  0.61740877  0.23633288  1
  O  O315  1  0.26528478  0.62225573  0.77481193  1
  O  O316  1  0.70106169  0.09309743  0.25887197  1
  O  O317  1  0.71632135  0.13276350  0.74580994  1
  O  O318  1  0.77275860  0.62420530  0.24469023  1
  O  O319  1  0.76429635  0.59606240  0.74999392  1
  O  O320  1  0.38060592  0.12108636  0.36878768  1
  O  O321  1  0.38175250  0.10462368  0.87654397  1
  O  O322  1  0.39416645  0.62812384  0.35546442  1
  O  O323  1  0.37104987  0.64418096  0.87273316  1
  O  O324  1  0.87075615  0.12680190  0.36435207  1
  O  O325  1  0.90490883  0.12785852  0.85983650  1
  O  O326  1  0.88205537  0.62277315  0.34166607  1
  O  O327  1  0.85176837  0.63752720  0.87618632  1
  O  O328  1  0.16512803  0.34897293  0.13095322  1
  O  O329  1  0.14806185  0.36471047  0.65780498  1
  O  O330  1  0.14092583  0.88043769  0.13403191  1
  O  O331  1  0.14242893  0.86447715  0.64640429  1
  O  O332  1  0.61926702  0.38758638  0.14154505  1
  O  O333  1  0.62344765  0.38676455  0.64155079  1
  O  O334  1  0.59047162  0.86788485  0.16254806  1
  O  O335  1  0.61404282  0.88690865  0.62858435  1
  O  O336  1  0.11707143  0.26095575  0.25501471  1
  O  O337  1  0.11580126  0.18400461  0.81558253  1
  O  O338  1  0.11359413  0.73632072  0.25710975  1
  O  O339  1  0.13914983  0.76127145  0.77181904  1
  O  O340  1  0.61003147  0.26585691  0.25067665  1
  O  O341  1  0.61100699  0.26689965  0.74545458  1
  O  O342  1  0.60858948  0.81252873  0.20667964  1
  O  O343  1  0.63381291  0.77683077  0.74445745  1
  O  O344  1  0.37984767  0.26822920  0.25656091  1
  O  O345  1  0.39858262  0.26727859  0.75030857  1
  O  O346  1  0.37733163  0.73816884  0.24318043  1
  O  O347  1  0.37148226  0.74200706  0.74793567  1
  O  O348  1  0.88548759  0.22500216  0.22458538  1
  O  O349  1  0.91059808  0.25931338  0.72914537  1
  O  O350  1  0.89369487  0.74701404  0.22732480  1
  O  O351  1  0.84574246  0.76662737  0.71913490  1
  O  O352  1  0.35050296  0.48237134  0.52540018  1
  O  O353  1  0.38937426  0.50654186  0.99233662  1
  O  O354  1  0.37249163  1.00359675  0.51328069  1
  O  O355  1  0.38328663  0.99069618  0.99029642  1
  O  O356  1  0.85549066  0.46889347  0.45822031  1
  O  O357  1  0.86693422  0.46947982  0.98819574  1
  O  O358  1  0.88802025  1.01190726  0.46685929  1
  O  O359  1  0.87827369  1.01170723  0.97017531  1
  O  O360  1  0.13753877  0.00067277  0.02420946  1
  O  O361  1  0.11030938  -0.04421360  0.50777935  1
  O  O362  1  0.11424228  0.49237300  -0.04046163  1
  O  O363  1  0.14914544  0.47432636  0.54239414  1
  O  O364  1  0.60962438  0.00583555  -0.00839848  1
  O  O365  1  0.60783320  0.01809590  0.48984129  1
  O  O366  1  0.64344015  0.48465959  0.02108211  1
  O  O367  1  0.65765633  0.57365014  0.51904351  1
  O  O368  1  0.35263373  0.37900712  0.12137563  1
  O  O369  1  0.38682567  0.36902932  0.62549830  1
  O  O370  1  0.36695154  0.88413991  0.12031126  1
  O  O371  1  0.36951128  0.86313774  0.63339205  1
  O  O372  1  0.86710394  0.35589108  0.13069236  1
  O  O373  1  0.83545463  0.37275756  0.59763365  1
  O  O374  1  0.89097466  0.87036636  0.12773561  1
  O  O375  1  0.93027073  0.83798844  0.63412313  1
  O  O376  1  0.25830519  0.12810540  0.30663610  1
  O  O377  1  0.05553460  0.11415003  0.96955061  1
  O  O378  1  0.09645988  0.62785232  0.38071374  1
  O  O379  1  0.14979795  0.64426340  0.88208911  1
  O  O380  1  0.60086063  0.14050941  0.38085435  1
  O  O381  1  0.62682323  0.12490861  0.88314886  1
  O  O382  1  0.65442761  0.65062837  0.36419621  1
  O  O383  1  0.66566594  0.64470045  0.85492229  1
