# generated using pymatgen
data_VZnO4
_symmetry_space_group_name_H-M   'P 1'
_cell_length_a   16.92920949
_cell_length_b   16.98695243
_cell_length_c   17.00988919
_cell_angle_alpha   89.90884733
_cell_angle_beta   90.09574028
_cell_angle_gamma   89.72168515
_symmetry_Int_Tables_number   1
_chemical_formula_structural   VZnO4
_chemical_formula_sum   'V64 Zn64 O256'
_cell_volume   4891.55959499
_cell_formula_units_Z   64
loop_
 _symmetry_equiv_pos_site_id
 _symmetry_equiv_pos_as_xyz
  1  'x, y, z'
loop_
 _atom_site_type_symbol
 _atom_site_label
 _atom_site_symmetry_multiplicity
 _atom_site_fract_x
 _atom_site_fract_y
 _atom_site_fract_z
 _atom_site_occupancy
  V  V0  1  -0.01324084  0.75232411  0.76512158  1
  V  V1  1  0.77148913  0.74618465  0.49221120  1
  V  V2  1  0.37772913  0.49480968  0.38109531  1
  V  V3  1  -0.01006143  0.62772426  0.13023764  1
  V  V4  1  0.35625786  0.50963893  0.87575934  1
  V  V5  1  0.25361088  0.23754823  0.50531118  1
  V  V6  1  0.27051416  0.02481764  0.75737287  1
  V  V7  1  -0.01848124  0.24610722  0.25089602  1
  V  V8  1  0.35254378  0.63385094  0.74387921  1
  V  V9  1  0.62731611  0.70280386  0.87154995  1
  V  V10  1  -0.00404650  0.75627245  0.24881694  1
  V  V11  1  0.00069282  0.39149941  0.39194907  1
  V  V12  1  0.10499557  0.12146674  0.49973347  1
  V  V13  1  0.74948701  0.86105741  0.63620335  1
  V  V14  1  0.00451550  0.23753842  0.74330519  1
  V  V15  1  0.76927248  0.23936681  0.50537796  1
  V  V16  1  0.39509004  0.74519574  0.12585456  1
  V  V17  1  0.12953016  0.24134217  0.37127793  1
  V  V18  1  0.72712426  0.09341011  0.37535873  1
  V  V19  1  0.13921748  0.38291256  0.75563159  1
  V  V20  1  0.12955646  0.22463815  0.87233343  1
  V  V21  1  0.50285422  0.36958840  0.35669791  1
  V  V22  1  0.87791963  0.61082550  0.27510991  1
  V  V23  1  0.24948384  0.64642858  0.38070862  1
  V  V24  1  0.63119338  0.15026128  0.00741852  1
  V  V25  1  0.00194005  0.86998482  0.39213368  1
  V  V26  1  0.13346557  0.87977173  0.74097155  1
  V  V27  1  0.49868196  0.50597041  0.00718115  1
  V  V28  1  0.85998535  0.36936672  0.03606381  1
  V  V29  1  0.63109093  0.24854090  0.36653730  1
  V  V30  1  0.12334823  0.37712897  0.25736378  1
  V  V31  1  0.65663353  0.60212048  0.50256397  1
  V  V32  1  0.50216176  0.74744214  0.75092443  1
  V  V33  1  0.39655803  0.87570718  -0.00451724  1
  V  V34  1  0.50843153  0.60993306  0.62218972  1
  V  V35  1  0.24076504  0.22604671  -0.00254074  1
  V  V36  1  -0.03516400  0.88096192  0.89836625  1
  V  V37  1  0.59367022  0.74229106  0.38960886  1
  V  V38  1  0.85813323  0.57289438  0.75076502  1
  V  V39  1  0.36980467  0.24574292  0.13201402  1
  V  V40  1  0.47917674  0.36719717  0.86302861  1
  V  V41  1  0.88925765  -0.00414221  0.37388758  1
  V  V42  1  0.24347080  0.38289808  0.62597569  1
  V  V43  1  0.24154988  0.63495687  0.89214388  1
  V  V44  1  0.37344683  0.09646789  0.27415768  1
  V  V45  1  0.23925949  0.37680853  0.12341556  1
  V  V46  1  0.81925548  0.40310501  0.59251263  1
  V  V47  1  0.74917903  0.85618346  0.13625230  1
  V  V48  1  0.11913732  0.50501988  0.12753579  1
  V  V49  1  0.65287982  0.39860385  0.69755279  1
  V  V50  1  0.38051541  0.37145745  0.51014477  1
  V  V51  1  0.76432423  0.02264057  0.72943662  1
  V  V52  1  0.35492071  0.37999700  -0.00173562  1
  V  V53  1  0.12062099  0.77262174  0.89808194  1
  V  V54  1  0.01552358  0.37817198  0.89241514  1
  V  V55  1  0.25101386  0.50242485  0.25604973  1
  V  V56  1  0.12835924  0.01194386  0.12135176  1
  V  V57  1  0.38880240  0.62846971  0.24831486  1
  V  V58  1  0.07041796  0.58284987  0.56153975  1
  V  V59  1  0.12953919  0.87422079  0.24767695  1
  V  V60  1  0.12209654  0.63207110  0.01294088  1
  V  V61  1  0.24474124  0.86250616  0.11282007  1
  V  V62  1  0.66001944  0.26282490  0.84675236  1
  V  V63  1  -0.01293077  0.02593820  0.00994314  1
  Zn  Zn64  1  0.19999979  0.18449631  0.19551276  1
  Zn  Zn65  1  0.18573104  0.18327236  0.68159768  1
  Zn  Zn66  1  0.18853591  0.69026653  0.19826648  1
  Zn  Zn67  1  0.14223328  0.66407313  0.72770606  1
  Zn  Zn68  1  0.72649659  0.13368617  0.17056880  1
  Zn  Zn69  1  0.80375891  0.22332161  0.71626558  1
  Zn  Zn70  1  0.69254205  0.68129601  0.22607052  1
  Zn  Zn71  1  0.69671595  0.67277263  0.69676082  1
  Zn  Zn72  1  0.30684748  0.31516312  0.31896960  1
  Zn  Zn73  1  0.31583948  0.29900583  0.81702540  1
  Zn  Zn74  1  0.32048870  0.82674074  0.30804457  1
  Zn  Zn75  1  0.30742893  0.81157000  0.82419853  1
  Zn  Zn76  1  0.81464828  0.33297807  0.33123466  1
  Zn  Zn77  1  0.83859476  0.37511628  0.78683961  1
  Zn  Zn78  1  0.82410296  0.80737377  0.32091367  1
  Zn  Zn79  1  0.74716937  0.85639931  0.84982919  1
  Zn  Zn80  1  0.18274974  0.44294613  0.44703360  1
  Zn  Zn81  1  0.17002625  0.44600668  0.93676331  1
  Zn  Zn82  1  0.18277425  0.93464677  0.42668419  1
  Zn  Zn83  1  0.19590586  0.96127257  0.94179577  1
  Zn  Zn84  1  0.66350667  0.39281248  0.48282832  1
  Zn  Zn85  1  0.66580556  0.40169274  0.96603123  1
  Zn  Zn86  1  0.66828267  0.90564413  0.46991392  1
  Zn  Zn87  1  0.69988507  1.00074260  0.95735197  1
  Zn  Zn88  1  0.31120032  0.05424379  0.07189023  1
  Zn  Zn89  1  0.22955496  0.03827746  0.56696297  1
  Zn  Zn90  1  0.30999795  0.56605707  0.06772069  1
  Zn  Zn91  1  0.24583749  0.59004595  0.57783419  1
  Zn  Zn92  1  0.83595731  0.13354657  0.01654757  1
  Zn  Zn93  1  0.78390610  0.03722823  0.53626391  1
  Zn  Zn94  1  0.87824174  0.56471296  -0.01413675  1
  Zn  Zn95  1  0.87045229  0.60393378  0.55881889  1
  Zn  Zn96  1  0.43330135  0.43344490  0.18485095  1
  Zn  Zn97  1  0.41265098  0.44808867  0.68807911  1
  Zn  Zn98  1  0.41989272  0.95283310  0.15349474  1
  Zn  Zn99  1  0.41846193  0.91728549  0.69779890  1
  Zn  Zn100  1  0.93594486  0.43667488  0.19483845  1
  Zn  Zn101  1  0.97906937  0.44043542  0.67818913  1
  Zn  Zn102  1  0.93877798  0.95406389  0.18980531  1
  Zn  Zn103  1  0.91668863  0.90480567  0.71138922  1
  Zn  Zn104  1  0.06055788  0.06105834  0.30440744  1
  Zn  Zn105  1  0.04380157  0.05116003  0.81878188  1
  Zn  Zn106  1  0.06847096  0.57247127  0.31901127  1
  Zn  Zn107  1  0.01871170  0.58399832  0.85317073  1
  Zn  Zn108  1  0.54356639  0.19505450  0.19329942  1
  Zn  Zn109  1  0.57347847  0.07119672  0.83248388  1
  Zn  Zn110  1  0.56450532  0.55869641  0.32622365  1
  Zn  Zn111  1  0.54392183  0.54612702  0.80314858  1
  Zn  Zn112  1  0.42930171  0.19268268  0.41714144  1
  Zn  Zn113  1  0.45996795  0.17312575  0.90816003  1
  Zn  Zn114  1  0.40602240  0.68118321  0.45627567  1
  Zn  Zn115  1  0.44135839  0.69199107  0.94162271  1
  Zn  Zn116  1  0.93145557  0.17433785  0.40148400  1
  Zn  Zn117  1  0.89112063  0.24838310  0.89262236  1
  Zn  Zn118  1  0.96776164  0.68255746  0.44744804  1
  Zn  Zn119  1  0.83457409  0.69699379  0.88006215  1
  Zn  Zn120  1  0.01380785  0.23946417  0.03902858  1
  Zn  Zn121  1  0.06393468  0.30847251  0.56479928  1
  Zn  Zn122  1  0.04976674  0.81833946  0.06856641  1
  Zn  Zn123  1  0.05237629  0.79069692  0.57631034  1
  Zn  Zn124  1  0.52603199  0.29787675  0.03720066  1
  Zn  Zn125  1  0.56370530  0.29373987  0.55821093  1
  Zn  Zn126  1  0.60345949  0.83750828  -0.00467197  1
  Zn  Zn127  1  0.59890090  0.78060984  0.58717122  1
  O  O128  1  0.13329295  0.11002173  0.13862078  1
  O  O129  1  0.12348911  0.12526827  0.59978088  1
  O  O130  1  0.12375343  0.62128122  0.12949146  1
  O  O131  1  0.15043164  0.63895613  0.62015237  1
  O  O132  1  0.62619279  0.16077662  0.11527057  1
  O  O133  1  0.58009976  0.15647608  0.65380366  1
  O  O134  1  0.63642906  0.62886946  0.12808454  1
  O  O135  1  0.61583852  0.61246917  0.60663353  1
  O  O136  1  0.38546042  0.37536018  0.38027953  1
  O  O137  1  0.35332918  0.39426585  0.88225891  1
  O  O138  1  0.44028275  0.86743729  0.32489345  1
  O  O139  1  0.37255442  0.87186538  0.89877725  1
  O  O140  1  0.90067789  0.38295084  0.38517274  1
  O  O141  1  0.91066036  0.36442176  0.87925703  1
  O  O142  1  0.89568261  0.87910013  0.37275873  1
  O  O143  1  0.86655198  0.87452124  0.88465546  1
  O  O144  1  0.35058648  -0.05161836  0.44300436  1
  O  O145  1  0.24834231  0.00272500  0.85557837  1
  O  O146  1  0.25987415  0.49476423  0.36634032  1
  O  O147  1  0.24717446  0.52010962  0.88772489  1
  O  O148  1  0.70597706  0.00051233  0.40917492  1
  O  O149  1  0.72558572  0.00779857  0.83450895  1
  O  O150  1  0.70477952  0.46754738  0.30374407  1
  O  O151  1  0.74177824  0.45987906  0.87364905  1
  O  O152  1  0.24199502  0.49652545  0.13814717  1
  O  O153  1  0.25321401  0.48115781  0.62602874  1
  O  O154  1  0.23497151  0.98409071  0.12643033  1
  O  O155  1  0.23230256  0.99202185  0.66481689  1
  O  O156  1  0.67545044  0.61358293  0.06803807  1
  O  O157  1  0.82057425  0.49991488  0.57782852  1
  O  O158  1  0.71727834  0.95314040  0.13109614  1
  O  O159  1  0.74688744  0.98750799  0.62920103  1
  O  O160  1  0.01293333  0.36589329  0.25829423  1
  O  O161  1  0.02913083  0.36596251  0.75674528  1
  O  O162  1  0.00305070  0.86304340  0.23818776  1
  O  O163  1  -0.00228956  0.87162352  0.78407913  1
  O  O164  1  0.49697193  0.37141866  0.25823808  1
  O  O165  1  0.47392551  0.38607796  0.76573705  1
  O  O166  1  0.48631641  0.86937139  0.26752204  1
  O  O167  1  0.49450694  0.84732742  0.74287624  1
  O  O168  1  0.46262483  0.13743903  0.24489154  1
  O  O169  1  0.55890290  0.00594269  0.63217699  1
  O  O170  1  0.48605098  0.60998369  0.25378997  1
  O  O171  1  0.47605932  0.62545124  0.73656345  1
  O  O172  1  0.98488277  0.14746211  0.29071745  1
  O  O173  1  1.00068336  0.13829612  0.75813900  1
  O  O174  1  1.00655268  0.63965000  0.24756990  1
  O  O175  1  1.03162413  0.65408048  0.76588295  1
  O  O176  1  0.34962340  0.26692683  0.00947567  1
  O  O177  1  0.35912690  0.26262273  0.48787435  1
  O  O178  1  0.38354103  0.76100052  0.01689329  1
  O  O179  1  0.36330197  0.78497514  0.50413706  1
  O  O180  1  0.90123721  0.27267036  0.01221462  1
  O  O181  1  0.86332125  0.23764807  0.46791042  1
  O  O182  1  0.83446452  0.66300511  -0.01575906  1
  O  O183  1  0.87008910  0.72118261  0.51396531  1
  O  O184  1  0.13176792  0.23559543  0.48976653  1
  O  O185  1  0.13505015  0.23743848  0.98804596  1
  O  O186  1  0.17611687  0.82589419  0.49998606  1
  O  O187  1  0.11474112  0.74455531  1.00375780  1
  O  O188  1  0.65097955  0.27084693  0.49081356  1
  O  O189  1  0.67585266  0.22930336  0.95128733  1
  O  O190  1  0.64535304  0.72759775  0.49338003  1
  O  O191  1  0.61489577  0.72912646  0.96884691  1
  O  O192  1  0.47258298  0.26924350  0.13261513  1
  O  O193  1  0.54059728  0.21909660  0.64835582  1
  O  O194  1  0.48965827  0.74807948  0.13428946  1
  O  O195  1  0.51221744  0.72854413  0.64131764  1
  O  O196  1  1.00646894  0.24030725  0.15473616  1
  O  O197  1  1.01616350  0.24638290  0.64437848  1
  O  O198  1  1.00131967  0.73829098  0.13745403  1
  O  O199  1  0.98290608  0.77173982  0.66716967  1
  O  O200  1  0.02180471  0.26883848  0.37171419  1
  O  O201  1  0.02385149  0.25657557  0.86723264  1
  O  O202  1  0.00480533  0.76665169  0.36318860  1
  O  O203  1  0.00966245  0.77224747  0.88907501  1
  O  O204  1  0.50930018  0.26359148  0.38336051  1
  O  O205  1  0.43116179  0.27342853  0.86014570  1
  O  O206  1  0.49394305  0.73553489  0.40240335  1
  O  O207  1  0.51200905  0.73071287  0.85893684  1
  O  O208  1  0.25895522  0.13787006  0.50708525  1
  O  O209  1  0.25471913  0.12908234  1.00231747  1
  O  O210  1  0.28167996  0.63363667  0.47892030  1
  O  O211  1  0.23501977  0.62890998  1.00406375  1
  O  O212  1  0.74471531  0.13569445  0.49077406  1
  O  O213  1  0.72561754  0.09037601  1.01966074  1
  O  O214  1  0.75576273  0.62712516  0.51043744  1
  O  O215  1  0.75813482  0.52494954  0.90565795  1
  O  O216  1  0.24164292  0.38343226  0.01106555  1
  O  O217  1  0.24940889  0.36880731  0.51297197  1
  O  O218  1  0.25774043  0.87874114  0.01403635  1
  O  O219  1  0.29110106  0.91823387  0.38937462  1
  O  O220  1  0.76289605  0.36652489  0.00523521  1
  O  O221  1  0.77541298  0.36358257  0.50564801  1
  O  O222  1  0.78079551  0.84570842  0.03901696  1
  O  O223  1  0.76746133  0.84822246  0.50640181  1
  O  O224  1  0.13567922  0.49625096  0.24883743  1
  O  O225  1  0.14546273  0.47798117  0.76060539  1
  O  O226  1  0.10936173  0.98421096  0.23464869  1
  O  O227  1  0.11032833  0.97582542  0.76640245  1
  O  O228  1  0.64856290  0.50457116  0.25899177  1
  O  O229  1  0.62002614  0.47934038  0.74656921  1
  O  O230  1  0.57671090  1.00212991  0.20277177  1
  O  O231  1  0.65601760  1.00397961  0.78373645  1
  O  O232  1  0.38054982  -0.00200468  0.24551303  1
  O  O233  1  0.37037286  0.00208589  0.74522714  1
  O  O234  1  0.36617646  0.50418547  0.25459996  1
  O  O235  1  0.36264910  0.52225301  0.76618138  1
  O  O236  1  0.87135950  -0.00904548  0.27088612  1
  O  O237  1  0.86012969  -0.00221573  0.74948774  1
  O  O238  1  0.88994637  0.51155739  0.26385677  1
  O  O239  1  0.88446562  0.47185357  0.74261936  1
  O  O240  1  0.13050461  0.37305560  0.36594675  1
  O  O241  1  0.13645153  0.36006123  0.86515566  1
  O  O242  1  0.11013472  0.88575639  0.35461220  1
  O  O243  1  0.13016026  0.87054163  0.90359253  1
  O  O244  1  0.60610298  0.37253769  0.37939728  1
  O  O245  1  0.58510569  0.34164294  0.88940530  1
  O  O246  1  0.61275977  0.84219746  0.39482158  1
  O  O247  1  0.68278345  0.89400305  0.93858619  1
  O  O248  1  0.36743114  0.14697770  0.11456817  1
  O  O249  1  0.43912993  0.10997960  0.56677176  1
  O  O250  1  0.36985491  0.63461468  0.13784289  1
  O  O251  1  0.33966672  0.63069894  0.64674484  1
  O  O252  1  0.82487812  0.14837915  0.12464702  1
  O  O253  1  0.94243432  0.06871731  0.61508561  1
  O  O254  1  0.89335919  0.61737815  0.14486408  1
  O  O255  1  0.89671772  0.61931872  0.67253457  1
  O  O256  1  0.24270757  0.25881945  0.11131465  1
  O  O257  1  0.24370118  0.25611882  0.60742611  1
  O  O258  1  0.24316891  0.76105486  0.12526024  1
  O  O259  1  0.23198956  0.81186605  0.54626211  1
  O  O260  1  0.66961177  0.33639756  0.14623839  1
  O  O261  1  0.78020976  0.24356564  0.60540155  1
  O  O262  1  0.75456461  0.75087511  0.14998998  1
  O  O263  1  0.73116894  0.75389222  0.62351559  1
  O  O264  1  0.23582168  0.25944605  0.39029564  1
  O  O265  1  0.24343637  0.24252087  0.88873695  1
  O  O266  1  0.26579846  0.74448175  0.36825429  1
  O  O267  1  0.23058478  0.74545675  0.88782905  1
  O  O268  1  0.73740881  0.25998487  0.37245250  1
  O  O269  1  0.75841745  0.28375716  0.81991043  1
  O  O270  1  0.76371425  0.74474143  0.39120294  1
  O  O271  1  0.72779514  0.73890564  0.85561004  1
  O  O272  1  0.00542352  0.12419679  0.00742261  1
  O  O273  1  0.00756017  0.12532948  0.48176646  1
  O  O274  1  0.00855848  0.62180874  0.02547465  1
  O  O275  1  0.05502123  0.69319828  0.52171461  1
  O  O276  1  0.53078565  0.19468300  -0.00703682  1
  O  O277  1  0.48655254  0.13676164  0.51699087  1
  O  O278  1  0.48951808  0.60529548  -0.00293835  1
  O  O279  1  0.46896235  0.62430607  0.53210768  1
  O  O280  1  0.48048501  0.35956205  0.50950797  1
  O  O281  1  0.46867604  0.38125082  0.98516827  1
  O  O282  1  0.40682400  0.82323317  0.55800975  1
  O  O283  1  0.49683741  0.87065839  1.00110450  1
  O  O284  1  1.02902094  0.38147748  0.48890674  1
  O  O285  1  1.03237285  0.35631979  0.98753894  1
  O  O286  1  1.01457990  0.86481705  0.48874092  1
  O  O287  1  0.98268056  0.87872060  1.00056005  1
  O  O288  1  0.48811737  0.48208186  0.37279956  1
  O  O289  1  0.47396270  0.48740545  0.88141021  1
  O  O290  1  0.50705484  1.00644301  0.39928495  1
  O  O291  1  0.46495747  1.08791565  0.84190501  1
  O  O292  1  1.01975769  0.48799850  0.37141798  1
  O  O293  1  1.03360136  0.47866182  0.88565025  1
  O  O294  1  0.99571154  0.99045481  0.37558254  1
  O  O295  1  0.99308598  0.98850779  0.90072695  1
  O  O296  1  0.01147897  -0.00361076  0.11519869  1
  O  O297  1  -0.01738927  0.00833155  0.62110434  1
  O  O298  1  0.01419470  0.51378822  0.14609814  1
  O  O299  1  0.04039268  0.52540469  0.63938094  1
  O  O300  1  0.54054379  -0.01590442  0.14089692  1
  O  O301  1  0.49527336  -0.02280832  0.60972737  1
  O  O302  1  0.48960746  0.48820744  0.10663649  1
  O  O303  1  0.48876505  0.51251328  0.63659686  1
  O  O304  1  0.24257510  0.38424877  0.24420883  1
  O  O305  1  0.25149256  0.35407346  0.73574314  1
  O  O306  1  0.23323188  0.87199483  0.24228309  1
  O  O307  1  0.23502821  0.86679676  0.75595594  1
  O  O308  1  0.74538501  0.41460310  0.26381812  1
  O  O309  1  0.76126717  0.39048549  0.68681563  1
  O  O310  1  0.74205944  0.85705872  0.24244052  1
  O  O311  1  0.73412255  0.87360108  0.73580266  1
  O  O312  1  0.27671156  0.12399090  0.24992393  1
  O  O313  1  0.25840809  0.12608477  0.74722202  1
  O  O314  1  0.25808678  0.61704497  0.26044906  1
  O  O315  1  0.24846023  0.64003307  0.77512016  1
  O  O316  1  0.71482123  0.09420861  0.27566999  1
  O  O317  1  0.76219542  0.12082127  0.71750667  1
  O  O318  1  0.77795287  0.62370825  0.26488389  1
  O  O319  1  0.75784448  0.59252968  0.74765063  1
  O  O320  1  0.37670612  0.10506615  0.37726185  1
  O  O321  1  0.41954606  0.15708044  0.72320370  1
  O  O322  1  0.36977176  0.61253986  0.36123725  1
  O  O323  1  0.35727480  0.62424269  0.88494133  1
  O  O324  1  0.83988161  0.09805817  0.37260139  1
  O  O325  1  0.85024752  0.14882286  0.90900648  1
  O  O326  1  0.90218193  0.62961110  0.37041663  1
  O  O327  1  0.89875965  0.59445027  0.84803996  1
  O  O328  1  0.13054524  0.38779643  0.14035922  1
  O  O329  1  0.13755980  0.36950975  0.63885493  1
  O  O330  1  0.13158454  0.87723823  0.12976698  1
  O  O331  1  0.10980557  0.86461306  0.64507532  1
  O  O332  1  0.62044671  0.36183002  0.09683259  1
  O  O333  1  0.61365658  0.38864119  0.60451332  1
  O  O334  1  0.64785451  0.83648202  0.11296670  1
  O  O335  1  0.64432094  0.88380206  0.58248326  1
  O  O336  1  0.13481433  0.25804364  0.26298489  1
  O  O337  1  0.12677197  0.24523404  0.76160978  1
  O  O338  1  0.11499258  0.76626353  0.24733427  1
  O  O339  1  0.11399883  0.77328631  0.78152316  1
  O  O340  1  0.61767395  0.24625954  0.26714087  1
  O  O341  1  0.62717932  0.31562278  0.74880333  1
  O  O342  1  0.61269898  0.71934065  0.29053461  1
  O  O343  1  0.61068744  0.72798479  0.75743501  1
  O  O344  1  0.35073471  0.26102039  0.22983697  1
  O  O345  1  0.38620588  0.22062493  0.71097387  1
  O  O346  1  0.37484550  0.73414464  0.24453814  1
  O  O347  1  0.38154847  0.73638871  0.76626200  1
  O  O348  1  0.88461159  0.26753891  0.26275338  1
  O  O349  1  0.90047786  0.26504806  0.75902547  1
  O  O350  1  0.89367356  0.74096448  0.25587591  1
  O  O351  1  0.88931186  0.74335704  0.79054060  1
  O  O352  1  0.36770882  0.47667679  0.48634740  1
  O  O353  1  0.36843513  0.49551550  0.99558994  1
  O  O354  1  0.32537318  0.96868655  0.51186355  1
  O  O355  1  0.38803430  0.97433802  1.04051213  1
  O  O356  1  0.97392104  0.57836192  0.51189226  1
  O  O357  1  0.89828207  0.46117497  1.00847386  1
  O  O358  1  0.86123596  0.98748399  0.47313700  1
  O  O359  1  0.88839662  1.02099189  1.01969552  1
  O  O360  1  0.11943825  0.00198153  0.01671635  1
  O  O361  1  0.14640146  0.02277329  0.48394951  1
  O  O362  1  0.12762602  0.51428668  0.02175085  1
  O  O363  1  0.13794057  0.52860970  0.50541767  1
  O  O364  1  0.59953100  0.06711133  -0.04870835  1
  O  O365  1  0.51453439  -0.03859052  0.45534422  1
  O  O366  1  0.59654293  0.48457777  -0.01107063  1
  O  O367  1  0.65743751  0.50368163  0.49477693  1
  O  O368  1  0.35264032  0.37541244  0.11722999  1
  O  O369  1  0.36372575  0.37189093  0.61529616  1
  O  O370  1  0.36106755  0.85348910  0.13397305  1
  O  O371  1  0.36151871  0.85516846  0.61500345  1
  O  O372  1  0.86394331  0.37380104  0.13693993  1
  O  O373  1  0.91358793  0.37260038  0.60821325  1
  O  O374  1  0.84972100  0.87872056  0.15177010  1
  O  O375  1  0.85096417  0.86705470  0.62947974  1
  O  O376  1  0.12577596  0.13846889  0.37482665  1
  O  O377  1  0.12139899  0.12767036  0.87026179  1
  O  O378  1  0.15023297  0.63134832  0.37335746  1
  O  O379  1  0.12309800  0.63564176  0.89871200  1
  O  O380  1  0.62986181  0.14819836  0.39209922  1
  O  O381  1  0.62788923  0.17686051  0.81291606  1
  O  O382  1  0.61118511  0.62063041  0.40825002  1
  O  O383  1  0.62257346  0.60375014  0.86629320  1
