# generated using pymatgen
data_VZnO4
_symmetry_space_group_name_H-M   'P 1'
_cell_length_a   17.03795060
_cell_length_b   16.92056953
_cell_length_c   17.04856881
_cell_angle_alpha   90.08771985
_cell_angle_beta   90.65154821
_cell_angle_gamma   89.95033328
_symmetry_Int_Tables_number   1
_chemical_formula_structural   VZnO4
_chemical_formula_sum   'V64 Zn64 O256'
_cell_volume   4914.63774709
_cell_formula_units_Z   64
loop_
 _symmetry_equiv_pos_site_id
 _symmetry_equiv_pos_as_xyz
  1  'x, y, z'
loop_
 _atom_site_type_symbol
 _atom_site_label
 _atom_site_symmetry_multiplicity
 _atom_site_fract_x
 _atom_site_fract_y
 _atom_site_fract_z
 _atom_site_occupancy
  V  V0  1  0.73802404  0.00630669  0.25435810  1
  V  V1  1  0.48852457  0.13870363  0.12097630  1
  V  V2  1  0.14321746  0.51261742  0.62743425  1
  V  V3  1  0.74674118  0.86490186  0.12241347  1
  V  V4  1  0.62445131  0.23534628  0.87607511  1
  V  V5  1  0.87075743  -0.00070105  0.37900458  1
  V  V6  1  0.48769854  0.74566249  0.24428220  1
  V  V7  1  0.87765660  0.12754063  0.24841362  1
  V  V8  1  0.11813201  0.12184017  0.49296441  1
  V  V9  1  0.11220200  0.86945650  0.72735720  1
  V  V10  1  0.89345030  -0.01277228  0.89072996  1
  V  V11  1  -0.01205636  0.87345490  0.38552003  1
  V  V12  1  0.26938033  0.64813950  0.36059587  1
  V  V13  1  0.74408016  0.22720493  -0.00067976  1
  V  V14  1  0.57371385  0.67798435  -0.05708074  1
  V  V15  1  0.37190692  0.86138437  -0.02857819  1
  V  V16  1  0.50635243  -0.01385442  0.49488042  1
  V  V17  1  0.10482460  0.88433095  0.24009828  1
  V  V18  1  0.87582510  0.24828674  0.13024969  1
  V  V19  1  0.73267883  0.36954698  0.11417536  1
  V  V20  1  -0.00210524  0.62086335  0.58144229  1
  V  V21  1  0.49140694  -0.00423907  -0.01274035  1
  V  V22  1  0.62065993  0.00292118  0.11418167  1
  V  V23  1  0.23505094  0.37810160  0.15491767  1
  V  V24  1  0.63882691  -0.00150985  0.62791548  1
  V  V25  1  0.37325800  0.01075903  0.36919053  1
  V  V26  1  0.86142517  0.49228388  0.38071751  1
  V  V27  1  0.62165040  0.86021639  0.76253262  1
  V  V28  1  0.40884761  0.38080296  0.48326759  1
  V  V29  1  0.76568620  0.24685070  0.50239971  1
  V  V30  1  0.86167446  0.61946664  0.25378466  1
  V  V31  1  0.63899238  0.12825251  0.49261039  1
  V  V32  1  0.62305547  0.86597000  0.24808195  1
  V  V33  1  0.89391769  0.12555246  0.76626246  1
  V  V34  1  0.61361913  0.49457276  0.63007490  1
  V  V35  1  0.76444656  0.85948129  0.61828572  1
  V  V36  1  0.61755203  0.50729911  0.10411740  1
  V  V37  1  0.76582839  0.37163751  0.62421337  1
  V  V38  1  -0.03552064  0.35431302  0.34949347  1
  V  V39  1  0.87370578  0.74208897  0.13326366  1
  V  V40  1  0.73093310  0.49394207  0.25335737  1
  V  V41  1  0.77181736  0.61658212  0.88399956  1
  V  V42  1  0.62536182  0.61444864  0.49803477  1
  V  V43  1  0.35741567  0.26675813  0.61196736  1
  V  V44  1  0.48375390  0.62077888  0.11762937  1
  V  V45  1  -0.00025957  -0.00167338  0.02967678  1
  V  V46  1  0.24708973  0.24132801  -0.00908335  1
  V  V47  1  0.75517185  -0.00113278  0.76841468  1
  V  V48  1  0.35985100  0.48855614  0.84442843  1
  V  V49  1  0.37269602  0.36786670  -0.00587439  1
  V  V50  1  0.76702409  0.50446156  0.75466506  1
  V  V51  1  0.74969378  0.74220224  -0.00112827  1
  V  V52  1  0.56582604  0.30069025  0.31500260  1
  V  V53  1  0.11961570  0.12970045  0.05314656  1
  V  V54  1  0.11898769  0.75470036  0.38108294  1
  V  V55  1  0.36060097  0.65012534  0.74312825  1
  V  V56  1  0.28541984  0.87977776  0.15933448  1
  V  V57  1  0.50409472  0.38131361  0.87274180  1
  V  V58  1  0.50298755  0.13246839  0.63181956  1
  V  V59  1  0.62485026  0.75230986  0.37872882  1
  V  V60  1  0.02016979  0.61228761  0.13423114  1
  V  V61  1  -0.00939032  0.73697048  0.78647436  1
  V  V62  1  0.63019711  0.36955257  0.75451013  1
  V  V63  1  0.50458711  0.64693155  0.63804288  1
  Zn  Zn64  1  0.29435660  0.18661614  0.15190730  1
  Zn  Zn65  1  0.19383095  0.23541362  0.71593476  1
  Zn  Zn66  1  0.19865106  0.70974737  0.19508645  1
  Zn  Zn67  1  0.15745212  0.68245330  0.69841824  1
  Zn  Zn68  1  0.65968803  0.18331866  0.19139734  1
  Zn  Zn69  1  0.70048148  0.18228848  0.69038734  1
  Zn  Zn70  1  0.67923032  0.68055784  0.18475797  1
  Zn  Zn71  1  0.69547251  0.68481668  0.69493183  1
  Zn  Zn72  1  0.30590297  0.34262285  0.34488702  1
  Zn  Zn73  1  0.34187265  0.26258480  0.80831224  1
  Zn  Zn74  1  0.31709960  0.82291627  0.33488697  1
  Zn  Zn75  1  0.31960514  0.85025993  0.77329752  1
  Zn  Zn76  1  0.76941776  0.30076692  0.30089982  1
  Zn  Zn77  1  0.79935260  0.29640600  0.80511901  1
  Zn  Zn78  1  0.80303094  0.80230385  0.32399546  1
  Zn  Zn79  1  0.81579029  0.81217990  0.81779674  1
  Zn  Zn80  1  0.25686576  0.47419896  0.46086214  1
  Zn  Zn81  1  0.21008274  0.38037425  0.86155651  1
  Zn  Zn82  1  0.17789924  0.96498631  0.37837843  1
  Zn  Zn83  1  0.17895330  0.92966336  1.04072419  1
  Zn  Zn84  1  0.67841333  0.42729828  0.44183384  1
  Zn  Zn85  1  0.69148176  0.43837192  0.93623697  1
  Zn  Zn86  1  0.68815500  0.93354218  0.44061375  1
  Zn  Zn87  1  0.68892652  0.93102612  0.93965359  1
  Zn  Zn88  1  0.31602624  0.04421837  0.06501418  1
  Zn  Zn89  1  0.33445214  0.08352085  0.53140578  1
  Zn  Zn90  1  0.30779606  0.53669900  0.04749365  1
  Zn  Zn91  1  0.35282618  0.52139809  0.59768836  1
  Zn  Zn92  1  0.80724058  0.05704381  0.06912336  1
  Zn  Zn93  1  0.81638302  0.05360042  0.57097172  1
  Zn  Zn94  1  0.81406038  0.55188478  0.06603305  1
  Zn  Zn95  1  0.80280624  0.56738818  0.56350203  1
  Zn  Zn96  1  0.45433149  0.41930394  0.18136092  1
  Zn  Zn97  1  0.43432325  0.39583171  0.69046884  1
  Zn  Zn98  1  0.45140705  0.95456657  0.21168385  1
  Zn  Zn99  1  0.46412034  0.96877901  0.70309481  1
  Zn  Zn100  1  0.93251232  0.44442794  0.17383128  1
  Zn  Zn101  1  0.93066385  0.48041868  0.65414569  1
  Zn  Zn102  1  0.92145754  0.93524828  0.19225805  1
  Zn  Zn103  1  0.93478694  0.92295751  0.70385940  1
  Zn  Zn104  1  0.05273002  0.06326765  0.30521385  1
  Zn  Zn105  1  0.07372564  0.07022899  0.70828399  1
  Zn  Zn106  1  0.02910729  0.58097802  0.34005513  1
  Zn  Zn107  1  0.08071402  0.55626282  0.80401357  1
  Zn  Zn108  1  0.52318923  0.10263989  0.31952412  1
  Zn  Zn109  1  0.56667391  0.05747770  0.80918528  1
  Zn  Zn110  1  0.55854812  0.56580293  0.29854942  1
  Zn  Zn111  1  0.56577177  0.55892629  0.80691065  1
  Zn  Zn112  1  0.45129037  0.19075893  0.44713572  1
  Zn  Zn113  1  0.44198423  0.17965603  0.93791464  1
  Zn  Zn114  1  0.46483568  0.65712548  0.43326333  1
  Zn  Zn115  1  0.40984412  0.67583545  0.92392362  1
  Zn  Zn116  1  0.91965305  0.18349579  0.43255506  1
  Zn  Zn117  1  0.92507518  0.16154672  0.96212094  1
  Zn  Zn118  1  0.91647039  0.69847313  0.42798372  1
  Zn  Zn119  1  0.94161133  0.67877046  0.95803208  1
  Zn  Zn120  1  0.08098366  0.28692376  0.11271264  1
  Zn  Zn121  1  0.08201834  0.33278246  0.51374160  1
  Zn  Zn122  1  0.05116362  0.80725128  0.07486912  1
  Zn  Zn123  1  0.04152869  0.80517757  0.55758576  1
  Zn  Zn124  1  0.56371036  0.31315890  0.05018573  1
  Zn  Zn125  1  0.57567719  0.30654866  0.56604464  1
  Zn  Zn126  1  0.55035513  0.81436282  0.06437882  1
  Zn  Zn127  1  0.58274948  0.81291328  0.56627043  1
  O  O128  1  0.10989914  0.14014545  0.14792978  1
  O  O129  1  0.09947376  0.10140657  0.59272595  1
  O  O130  1  0.11076730  0.65307797  0.14780954  1
  O  O131  1  0.11578582  0.61954376  0.61263772  1
  O  O132  1  0.63827982  0.10121360  0.10981507  1
  O  O133  1  0.62871354  0.10957441  0.63513370  1
  O  O134  1  0.61283846  0.61262987  0.11662651  1
  O  O135  1  0.61738159  0.61149076  0.63031842  1
  O  O136  1  0.41786577  0.36204599  0.38440606  1
  O  O137  1  0.39338762  0.37148460  0.86037893  1
  O  O138  1  0.38349013  0.90733639  0.37269409  1
  O  O139  1  0.36414079  0.87829163  0.87368779  1
  O  O140  1  0.86063237  0.38369593  0.36473015  1
  O  O141  1  0.90054339  0.37231201  0.84376848  1
  O  O142  1  0.88024521  0.89017501  0.35382782  1
  O  O143  1  0.86229286  0.89069174  0.89212125  1
  O  O144  1  0.27381874  0.01777552  0.35728950  1
  O  O145  1  0.24183395  0.01745724  0.85947223  1
  O  O146  1  0.23038542  0.56982461  0.41082962  1
  O  O147  1  0.26176844  0.48242251  0.84255137  1
  O  O148  1  0.75157932  -0.01437679  0.35662233  1
  O  O149  1  0.74842907  0.00220883  0.86914492  1
  O  O150  1  0.73902524  0.48561655  0.35728791  1
  O  O151  1  0.75288095  0.50430793  0.86652110  1
  O  O152  1  0.24528717  0.46560591  0.10528525  1
  O  O153  1  0.24326566  0.52630820  0.62185864  1
  O  O154  1  0.24954681  0.97704480  0.12656337  1
  O  O155  1  0.27567440  1.00981195  0.61382266  1
  O  O156  1  0.72890274  0.48966671  0.12527308  1
  O  O157  1  0.74472897  0.49412213  0.64181974  1
  O  O158  1  0.74091879  0.98395451  0.13149041  1
  O  O159  1  0.74939790  0.98763516  0.63658276  1
  O  O160  1  -0.01566117  0.37999596  0.25399082  1
  O  O161  1  -0.04068674  0.37054084  0.80078934  1
  O  O162  1  0.00327396  0.88136833  0.25017063  1
  O  O163  1  0.00222726  0.84962754  0.75602389  1
  O  O164  1  0.51024654  0.34396360  0.24187778  1
  O  O165  1  0.52267091  0.36775745  0.76001954  1
  O  O166  1  0.51536688  0.85916549  0.24504991  1
  O  O167  1  0.52366570  0.88447131  0.74876099  1
  O  O168  1  0.53965093  0.13839568  0.21244824  1
  O  O169  1  0.49126375  0.08656038  0.72701401  1
  O  O170  1  0.49445375  0.63249220  0.22820189  1
  O  O171  1  0.50411667  0.62703876  0.73931695  1
  O  O172  1  0.97589385  0.12515377  0.24897281  1
  O  O173  1  0.99282592  0.12963595  0.76334242  1
  O  O174  1  0.96818249  0.61863370  0.24291647  1
  O  O175  1  1.00995160  0.63348389  0.76632012  1
  O  O176  1  0.36290918  0.25394795  -0.00891597  1
  O  O177  1  0.39513255  0.26676473  0.50948359  1
  O  O178  1  0.37269245  0.76035397  -0.01688269  1
  O  O179  1  0.37628742  0.80640722  0.53101341  1
  O  O180  1  0.85478818  0.23519913  0.02119054  1
  O  O181  1  0.86509010  0.23502374  0.51705232  1
  O  O182  1  0.85846897  0.74000123  0.02194149  1
  O  O183  1  0.83365826  0.76968343  0.42998318  1
  O  O184  1  0.12425099  0.22529389  0.50610549  1
  O  O185  1  0.13496925  0.23661554  1.02248212  1
  O  O186  1  0.11558702  0.75908447  0.48019351  1
  O  O187  1  0.12536582  0.74394515  1.00862757  1
  O  O188  1  0.64312677  0.23463479  0.51126234  1
  O  O189  1  0.63443695  0.24805512  0.98555104  1
  O  O190  1  0.61323506  0.73379454  0.48309290  1
  O  O191  1  0.63056170  0.74603413  1.00022794  1
  O  O192  1  0.49837609  0.23577735  0.10044020  1
  O  O193  1  0.53145820  0.22785709  0.64148434  1
  O  O194  1  0.49609294  0.73513934  0.13149568  1
  O  O195  1  0.51113979  0.74509679  0.62849224  1
  O  O196  1  0.97390576  0.25636287  0.12974063  1
  O  O197  1  1.01938156  0.29490146  0.61788583  1
  O  O198  1  0.97448179  0.74734800  0.13408915  1
  O  O199  1  0.99396213  0.71822649  0.61269707  1
  O  O200  1  -0.04120352  0.25367926  0.35449992  1
  O  O201  1  -0.00348873  0.27732109  0.92626961  1
  O  O202  1  -0.00060022  0.76840215  0.36876318  1
  O  O203  1  -0.00291984  0.74372547  0.88715450  1
  O  O204  1  0.51468037  0.21786455  0.35773972  1
  O  O205  1  0.52270066  0.25602675  0.87557610  1
  O  O206  1  0.51882700  0.72452117  0.35194924  1
  O  O207  1  0.51225909  0.72762335  0.88409120  1
  O  O208  1  0.22134108  0.11802000  0.50357749  1
  O  O209  1  0.24165081  0.13639488  1.05028546  1
  O  O210  1  0.32369169  0.77248926  0.56665519  1
  O  O211  1  0.24485910  0.61487820  0.98049915  1
  O  O212  1  0.74752441  0.13509379  0.52201933  1
  O  O213  1  0.74405502  0.12856053  0.99951956  1
  O  O214  1  0.72302840  0.62865054  0.51278061  1
  O  O215  1  0.75353632  0.62099688  0.99128414  1
  O  O216  1  0.25977950  0.35047085  -0.03276459  1
  O  O217  1  0.27866188  0.36480418  0.44934756  1
  O  O218  1  0.28251051  0.88505272  0.01248518  1
  O  O219  1  0.25000174  0.90397968  0.47085597  1
  O  O220  1  0.74894985  0.37423603  0.01360141  1
  O  O221  1  0.74394902  0.36365606  0.51889611  1
  O  O222  1  0.74279245  0.85830970  0.01362697  1
  O  O223  1  0.74037437  0.87241460  0.52018112  1
  O  O224  1  0.12093693  0.50188276  0.27956737  1
  O  O225  1  0.13034247  0.49013275  0.72601676  1
  O  O226  1  0.12752565  0.98530867  0.27077293  1
  O  O227  1  0.09750456  0.96880240  0.74971852  1
  O  O228  1  0.62807910  0.50250647  0.23690449  1
  O  O229  1  0.63616510  0.48908114  0.74402597  1
  O  O230  1  0.63223947  0.98511825  0.23490260  1
  O  O231  1  0.64382095  0.99409809  0.74741910  1
  O  O232  1  0.41871498  0.03873847  0.27911725  1
  O  O233  1  0.30239539  -0.00017438  0.68373139  1
  O  O234  1  0.40789302  0.49318726  0.27363047  1
  O  O235  1  0.38285504  0.48416670  0.74495231  1
  O  O236  1  0.85240911  0.01150038  0.24717650  1
  O  O237  1  0.87145352  -0.00307698  0.77580717  1
  O  O238  1  0.85104564  0.50526019  0.25238133  1
  O  O239  1  0.86450568  0.49970127  0.74871278  1
  O  O240  1  0.15295694  0.45441910  0.32473284  1
  O  O241  1  0.11071816  0.42295448  0.91561793  1
  O  O242  1  0.10027685  0.87668530  0.37396850  1
  O  O243  1  0.13855871  0.85752400  0.94095746  1
  O  O244  1  0.60196665  0.36882389  0.38071664  1
  O  O245  1  0.61979105  0.37332150  0.87138473  1
  O  O246  1  0.63472869  0.85730282  0.36610450  1
  O  O247  1  0.63627186  0.87062724  0.86191757  1
  O  O248  1  0.38713777  0.12146419  0.13437980  1
  O  O249  1  0.39915686  0.14769431  0.60720274  1
  O  O250  1  0.38723648  0.60345049  0.10415341  1
  O  O251  1  0.39407149  0.62324608  0.64034507  1
  O  O252  1  0.85812674  0.13284110  0.13999150  1
  O  O253  1  0.90290827  0.08162893  0.64934352  1
  O  O254  1  0.86584810  0.63295958  0.13559168  1
  O  O255  1  0.90052301  0.59198510  0.61247233  1
  O  O256  1  0.26157572  0.28550037  0.11089123  1
  O  O257  1  0.26127937  0.24708827  0.61891497  1
  O  O258  1  0.25368367  0.78563136  0.13172043  1
  O  O259  1  0.22104399  0.88084364  0.53305257  1
  O  O260  1  0.72601190  0.25623950  0.11067785  1
  O  O261  1  0.75499666  0.26750975  0.63175927  1
  O  O262  1  0.74584035  0.74825628  0.11686771  1
  O  O263  1  0.75186818  0.75943521  0.63370796  1
  O  O264  1  0.16170556  0.29495617  0.33997194  1
  O  O265  1  0.22872748  0.20259285  0.90537171  1
  O  O266  1  0.23523413  0.75152398  0.38069869  1
  O  O267  1  0.15261298  0.78125170  0.94526520  1
  O  O268  1  0.75980069  0.25594046  0.40416487  1
  O  O269  1  0.74639283  0.25587641  0.89646505  1
  O  O270  1  0.71345769  0.71690110  0.35790830  1
  O  O271  1  0.75939925  0.72945767  0.88826437  1
  O  O272  1  0.01895617  0.12546001  0.01307391  1
  O  O273  1  0.01293642  0.12903898  0.48308221  1
  O  O274  1  -0.00177425  0.62120710  0.03492958  1
  O  O275  1  -0.01024409  0.62831786  0.48005514  1
  O  O276  1  0.49809033  0.10827021  0.01217504  1
  O  O277  1  0.52777963  0.12122249  0.51733714  1
  O  O278  1  0.50119584  0.63108369  0.00520233  1
  O  O279  1  0.51244986  0.62070465  0.52795870  1
  O  O280  1  0.50475871  0.37888278  0.51689942  1
  O  O281  1  0.48684561  0.36424905  0.97790891  1
  O  O282  1  0.53231792  0.88858506  0.49625357  1
  O  O283  1  0.48050097  0.88448224  1.00496605  1
  O  O284  1  1.03397700  0.37307483  0.42416813  1
  O  O285  1  0.99678377  0.33331185  0.97346105  1
  O  O286  1  0.98299077  0.87535815  0.48398397  1
  O  O287  1  1.00270986  0.89807895  1.02295105  1
  O  O288  1  0.45745446  0.50722582  0.32965454  1
  O  O289  1  0.49871246  0.48325317  0.86724475  1
  O  O290  1  0.51513019  1.01583493  0.39660209  1
  O  O291  1  0.51031989  1.00266685  0.89101053  1
  O  O292  1  0.96272523  0.49716720  0.37239800  1
  O  O293  1  1.05589606  0.46741743  0.88724036  1
  O  O294  1  0.97758791  0.99408223  0.36685940  1
  O  O295  1  0.99102586  0.98807824  0.89676308  1
  O  O296  1  -0.02090559  0.00936998  0.12617198  1
  O  O297  1  -0.03575186  0.02731047  0.64580814  1
  O  O298  1  0.02933965  0.51356976  0.14851382  1
  O  O299  1  0.02560968  0.51046267  0.60620829  1
  O  O300  1  0.51387974  0.00669347  0.12192114  1
  O  O301  1  0.52340286  0.00442452  0.60913188  1
  O  O302  1  0.50927453  0.50785677  0.12686903  1
  O  O303  1  0.51594417  0.48917183  0.63743934  1
  O  O304  1  0.28546989  0.38012039  0.24351555  1
  O  O305  1  0.23966273  0.30892330  0.78333824  1
  O  O306  1  0.25595909  0.88388256  0.25728858  1
  O  O307  1  0.21223628  0.85665846  0.74900099  1
  O  O308  1  0.74141730  0.38867093  0.23041586  1
  O  O309  1  0.74951058  0.38565989  0.74696430  1
  O  O310  1  0.73708318  0.87071931  0.24214917  1
  O  O311  1  0.75066931  0.88471086  0.74810241  1
  O  O312  1  0.26993018  0.17627873  0.26871275  1
  O  O313  1  0.16783520  0.13089874  0.71572233  1
  O  O314  1  0.26029698  0.63745640  0.26104996  1
  O  O315  1  0.26235049  0.64607425  0.73177897  1
  O  O316  1  0.73439821  0.10613593  0.24807498  1
  O  O317  1  0.76901329  0.10079338  0.74026511  1
  O  O318  1  0.74846884  0.60421928  0.23699492  1
  O  O319  1  0.74868558  0.61170465  0.76791199  1
  O  O320  1  0.37709802  0.10682746  0.42592619  1
  O  O321  1  0.38218033  0.16688073  0.84615005  1
  O  O322  1  0.36539307  0.65639691  0.39028052  1
  O  O323  1  0.37540424  0.60218587  0.84462550  1
  O  O324  1  0.86503528  0.10995296  0.35807345  1
  O  O325  1  0.88011070  0.10889125  0.87170130  1
  O  O326  1  0.86049713  0.61266765  0.35803796  1
  O  O327  1  0.86917929  0.61189475  0.88859312  1
  O  O328  1  0.13496575  0.36601323  0.16788891  1
  O  O329  1  0.14793394  0.40643242  0.57410621  1
  O  O330  1  0.11864094  0.88026665  0.13748003  1
  O  O331  1  0.10331804  0.86723069  0.62710116  1
  O  O332  1  0.62540125  0.38474118  0.11594172  1
  O  O333  1  0.63724805  0.38248847  0.63716813  1
  O  O334  1  0.62939825  0.87459245  0.13094341  1
  O  O335  1  0.64054295  0.88263550  0.64005648  1
  O  O336  1  0.13147401  0.25670051  0.28605730  1
  O  O337  1  0.06066623  0.27518402  0.67701802  1
  O  O338  1  0.13279953  0.78478258  0.26483355  1
  O  O339  1  0.10218772  0.75577748  0.75772173  1
  O  O340  1  0.65233361  0.26175438  0.27172622  1
  O  O341  1  0.65510931  0.26056821  0.76924384  1
  O  O342  1  0.61512595  0.75185561  0.24875480  1
  O  O343  1  0.63088871  0.76071761  0.74917038  1
  O  O344  1  0.31152043  0.21444433  0.31899469  1
  O  O345  1  0.39655154  0.27743678  0.70689649  1
  O  O346  1  0.39370121  0.76033567  0.26366540  1
  O  O347  1  0.37706456  0.74684564  0.75611790  1
  O  O348  1  0.84624025  0.23221577  0.24080353  1
  O  O349  1  0.86679592  0.22256228  0.75533039  1
  O  O350  1  0.84870771  0.73063188  0.24183244  1
  O  O351  1  0.88992945  0.74437896  0.76623282  1
  O  O352  1  0.37600057  0.48517514  0.49316285  1
  O  O353  1  0.36320054  0.47351291  0.96283190  1
  O  O354  1  0.40528698  0.98666481  0.50771442  1
  O  O355  1  0.38852680  0.99982555  0.99094494  1
  O  O356  1  0.83976230  0.50172456  0.47645933  1
  O  O357  1  0.89163298  0.47388449  1.07211062  1
  O  O358  1  0.85880037  1.00537686  0.47654939  1
  O  O359  1  0.88857449  1.01986490  0.99850873  1
  O  O360  1  0.11182841  0.02041451  0.02474685  1
  O  O361  1  0.12178555  0.01607108  0.47675681  1
  O  O362  1  0.17951234  0.58181089  -0.05114536  1
  O  O363  1  0.14886641  0.46895101  0.51634146  1
  O  O364  1  0.61253593  -0.02090485  0.01225841  1
  O  O365  1  0.63825830  0.01168971  0.51232935  1
  O  O366  1  0.62092120  0.49794945  0.00585397  1
  O  O367  1  0.63200715  0.50177437  0.52324844  1
  O  O368  1  0.38701813  0.38393062  0.09161503  1
  O  O369  1  0.36468941  0.37716200  0.59924752  1
  O  O370  1  0.38547353  0.88578989  0.15174098  1
  O  O371  1  0.35891871  0.92875260  0.69165157  1
  O  O372  1  0.84563567  0.34807406  0.13589561  1
  O  O373  1  0.86365962  0.38864172  0.62796152  1
  O  O374  1  0.85514694  0.85499216  0.14059362  1
  O  O375  1  0.86330392  0.87797346  0.62735737  1
  O  O376  1  0.11744281  0.12948367  0.38710346  1
  O  O377  1  0.26391066  0.07480559  0.82233814  1
  O  O378  1  0.10843963  0.65681438  0.35484797  1
  O  O379  1  0.15475565  0.61673994  0.88313146  1
  O  O380  1  0.63885603  0.11999883  0.39682894  1
  O  O381  1  0.62661026  0.13714447  0.86412583  1
  O  O382  1  0.60349627  0.59830985  0.39908539  1
  O  O383  1  0.63040244  0.61544072  0.88471386  1
