# generated using pymatgen
data_VZnO4
_symmetry_space_group_name_H-M   'P 1'
_cell_length_a   16.93112781
_cell_length_b   16.91455448
_cell_length_c   16.91414801
_cell_angle_alpha   89.78651470
_cell_angle_beta   89.78757498
_cell_angle_gamma   89.99661842
_symmetry_Int_Tables_number   1
_chemical_formula_structural   VZnO4
_chemical_formula_sum   'V64 Zn64 O256'
_cell_volume   4843.84879621
_cell_formula_units_Z   64
loop_
 _symmetry_equiv_pos_site_id
 _symmetry_equiv_pos_as_xyz
  1  'x, y, z'
loop_
 _atom_site_type_symbol
 _atom_site_label
 _atom_site_symmetry_multiplicity
 _atom_site_fract_x
 _atom_site_fract_y
 _atom_site_fract_z
 _atom_site_occupancy
  V  V0  1  0.88465427  0.86382123  0.00844821  1
  V  V1  1  0.12954646  0.23611664  0.37598639  1
  V  V2  1  0.74581282  0.02326228  0.25133714  1
  V  V3  1  0.73201470  0.62829362  0.37910089  1
  V  V4  1  0.00809614  0.24174050  0.74739708  1
  V  V5  1  0.89661643  -0.00630566  0.88907918  1
  V  V6  1  -0.00642300  0.76523195  0.24916649  1
  V  V7  1  0.00730052  0.74212911  0.76028790  1
  V  V8  1  -0.00005855  0.38207495  0.36988399  1
  V  V9  1  0.00664716  0.60775362  0.61696564  1
  V  V10  1  0.12824537  0.49789477  0.11903562  1
  V  V11  1  0.75171460  0.86221595  0.60649494  1
  V  V12  1  0.76114137  0.48870079  0.76131458  1
  V  V13  1  0.25019978  0.85840197  0.11397420  1
  V  V14  1  0.49729207  0.20109030  0.27025689  1
  V  V15  1  0.24632670  0.75589064  0.51373316  1
  V  V16  1  0.50736908  0.62395136  0.13750548  1
  V  V17  1  0.25875730  0.24836898  0.49766808  1
  V  V18  1  0.46842662  0.29638608  0.74242725  1
  V  V19  1  0.37493308  0.49806784  0.39084990  1
  V  V20  1  0.12464323  0.78114714  0.37012648  1
  V  V21  1  0.25164050  0.50685161  0.74472456  1
  V  V22  1  0.64204631  0.85793961  0.77303145  1
  V  V23  1  0.72175964  0.50576266  0.24294178  1
  V  V24  1  0.50850003  0.37240882  0.35904012  1
  V  V25  1  0.12734540  0.26335843  0.89582631  1
  V  V26  1  0.75270297  0.62379627  0.88247575  1
  V  V27  1  0.47426809  0.68864743  0.75833378  1
  V  V28  1  0.74918835  0.37104032  0.62360859  1
  V  V29  1  0.90249446  0.09670254  0.73238211  1
  V  V30  1  0.88369413  0.38844245  0.50227878  1
  V  V31  1  0.88251286  0.73895007  0.63158832  1
  V  V32  1  0.73098573  0.74858696  0.00381839  1
  V  V33  1  0.48922905  0.87275205  0.42787780  1
  V  V34  1  0.26370869  0.37909677  0.61435988  1
  V  V35  1  0.13305305  0.00516181  0.11158750  1
  V  V36  1  -0.00783185  0.12228925  0.10893730  1
  V  V37  1  0.87245820  -0.01690933  0.37223134  1
  V  V38  1  0.11522770  0.38668613  0.73184585  1
  V  V39  1  0.25093634  0.00695080  0.26178195  1
  V  V40  1  0.25435765  0.14454105  0.87623535  1
  V  V41  1  -0.00679642  0.62612117  0.13210665  1
  V  V42  1  0.12121490  0.61489892  0.48272175  1
  V  V43  1  0.87665204  0.50929769  0.35485289  1
  V  V44  1  0.14172981  0.36882052  0.24715795  1
  V  V45  1  0.12959915  0.64034308  -0.00586778  1
  V  V46  1  0.49489072  0.36634960  0.91013653  1
  V  V47  1  0.77231170  -0.02009649  0.74799232  1
  V  V48  1  -0.01827341  0.24469005  0.24967159  1
  V  V49  1  0.74103133  0.86891304  0.13361906  1
  V  V50  1  0.72347015  0.37854763  0.12294344  1
  V  V51  1  0.37111188  0.89242247  -0.02026292  1
  V  V52  1  -0.01811686  0.38445178  0.88294553  1
  V  V53  1  0.63871851  0.51534525  0.60986689  1
  V  V54  1  0.15060610  0.89684954  0.75650333  1
  V  V55  1  0.90346916  0.86810488  0.50050265  1
  V  V56  1  0.25538246  0.52883867  0.25545061  1
  V  V57  1  0.47827869  0.11940065  0.09042136  1
  V  V58  1  0.86655381  0.26102714  0.10027955  1
  V  V59  1  0.88460877  0.24117654  0.61371934  1
  V  V60  1  0.74678798  0.11826937  0.87039392  1
  V  V61  1  0.50034260  0.78457297  0.24005782  1
  V  V62  1  0.63057863  0.01779361  0.10832113  1
  V  V63  1  0.62959986  0.01995624  0.63373414  1
  Zn  Zn64  1  0.17867260  0.17394662  0.19032549  1
  Zn  Zn65  1  0.20851636  0.20240951  0.69700733  1
  Zn  Zn66  1  0.16949553  0.69425798  0.19026715  1
  Zn  Zn67  1  0.17630196  0.68335349  0.68421927  1
  Zn  Zn68  1  0.68266681  0.19858802  0.18860303  1
  Zn  Zn69  1  0.71932524  0.18448858  0.70427664  1
  Zn  Zn70  1  0.67169620  0.69470041  0.20396522  1
  Zn  Zn71  1  0.69852562  0.68375758  0.69276354  1
  Zn  Zn72  1  0.32836720  0.30148655  0.31077065  1
  Zn  Zn73  1  0.30500196  0.35658459  0.83555342  1
  Zn  Zn74  1  0.30215128  0.81986069  0.29167037  1
  Zn  Zn75  1  0.32083590  0.79967198  0.79855936  1
  Zn  Zn76  1  0.80143259  0.32431142  0.30981648  1
  Zn  Zn77  1  0.81862828  0.29796133  0.80401591  1
  Zn  Zn78  1  0.81506658  0.80439013  0.31116282  1
  Zn  Zn79  1  0.83656563  0.80418834  0.82173882  1
  Zn  Zn80  1  0.19086166  0.43297571  0.42912940  1
  Zn  Zn81  1  0.15295816  0.47555374  0.90406574  1
  Zn  Zn82  1  0.29531861  0.92580601  0.45129331  1
  Zn  Zn83  1  0.17981375  0.94096708  0.93479720  1
  Zn  Zn84  1  0.69487808  0.41490530  0.43001341  1
  Zn  Zn85  1  0.67297686  0.45123613  0.95170300  1
  Zn  Zn86  1  0.66192767  0.99055528  0.42755994  1
  Zn  Zn87  1  0.70351134  0.93994154  0.94087627  1
  Zn  Zn88  1  0.30386408  0.05926469  0.02002703  1
  Zn  Zn89  1  0.28140108  0.06692550  0.55715731  1
  Zn  Zn90  1  0.30129594  0.59071726  0.08644935  1
  Zn  Zn91  1  0.28464965  0.55561062  0.54853035  1
  Zn  Zn92  1  0.81327099  0.07083680  0.06096383  1
  Zn  Zn93  1  0.93594543  0.05213770  0.55242154  1
  Zn  Zn94  1  0.80484883  0.56507494  0.07062763  1
  Zn  Zn95  1  0.81154868  0.56248449  0.55580620  1
  Zn  Zn96  1  0.44321973  0.45374307  0.20718918  1
  Zn  Zn97  1  0.45700043  0.49196693  0.70376052  1
  Zn  Zn98  1  0.42113595  0.94936694  0.16655904  1
  Zn  Zn99  1  0.44731886  0.97161383  0.57858603  1
  Zn  Zn100  1  0.94176198  0.43536383  0.18194038  1
  Zn  Zn101  1  0.93567078  0.44063918  0.69546412  1
  Zn  Zn102  1  0.92610039  0.94087783  0.18383200  1
  Zn  Zn103  1  0.97612598  0.91675720  0.68686635  1
  Zn  Zn104  1  0.06239313  0.05164283  0.29977818  1
  Zn  Zn105  1  0.08296196  0.06595290  0.82894312  1
  Zn  Zn106  1  0.06712635  0.56250089  0.30647306  1
  Zn  Zn107  1  0.02837663  0.58351452  0.82713546  1
  Zn  Zn108  1  0.53890256  -0.00837693  0.28624088  1
  Zn  Zn109  1  0.57087287  0.03982574  0.80481416  1
  Zn  Zn110  1  0.54619651  0.57371234  0.31917404  1
  Zn  Zn111  1  0.57793519  0.51833865  0.81173029  1
  Zn  Zn112  1  0.47182190  0.24847984  0.48168101  1
  Zn  Zn113  1  0.46097164  0.17967367  0.90010513  1
  Zn  Zn114  1  0.39724473  0.71092979  0.38658058  1
  Zn  Zn115  1  0.44765308  0.73098605  0.94514352  1
  Zn  Zn116  1  0.95602534  0.19391192  0.44232887  1
  Zn  Zn117  1  0.93346427  0.18728700  0.92566118  1
  Zn  Zn118  1  0.94518958  0.68818424  0.43053283  1
  Zn  Zn119  1  0.93963168  0.68313481  0.95814311  1
  Zn  Zn120  1  0.04874135  0.32495735  0.06753866  1
  Zn  Zn121  1  0.06108661  0.31055384  0.55697183  1
  Zn  Zn122  1  0.07040386  0.81020003  0.06465420  1
  Zn  Zn123  1  0.11064380  0.85393883  0.55443055  1
  Zn  Zn124  1  0.51311138  0.32158157  0.12500730  1
  Zn  Zn125  1  0.52762053  0.38071984  0.57907240  1
  Zn  Zn126  1  0.55715440  0.82583550  0.05953759  1
  Zn  Zn127  1  0.55188597  0.80999468  0.60857426  1
  O  O128  1  0.10245320  0.11748992  0.12513573  1
  O  O129  1  0.12098440  0.13523396  0.64063897  1
  O  O130  1  0.12223905  0.61326986  0.11481606  1
  O  O131  1  0.11096961  0.62453334  0.60617578  1
  O  O132  1  0.64175565  0.11801312  0.11365027  1
  O  O133  1  0.64489482  0.11769088  0.65448557  1
  O  O134  1  0.60560437  0.64360947  0.12221927  1
  O  O135  1  0.65085286  0.61527251  0.61527557  1
  O  O136  1  0.38199172  0.38852930  0.36188413  1
  O  O137  1  0.39925804  0.39395464  0.89924159  1
  O  O138  1  0.39833466  0.90274157  0.39732335  1
  O  O139  1  0.35590915  0.86821870  0.88195761  1
  O  O140  1  0.88217102  0.38594523  0.38166724  1
  O  O141  1  0.88424056  0.35912418  0.86828097  1
  O  O142  1  0.87445773  0.87611740  0.38514441  1
  O  O143  1  0.87690658  0.88271319  0.89687923  1
  O  O144  1  0.24738546  -0.02146402  0.35933118  1
  O  O145  1  0.24157195  0.04674438  0.91688616  1
  O  O146  1  0.26145179  0.49482946  0.35953956  1
  O  O147  1  0.25079468  0.46521227  0.84510700  1
  O  O148  1  0.75262262  -0.00062592  0.36023090  1
  O  O149  1  0.76687197  0.00347055  0.86544745  1
  O  O150  1  0.76076305  0.50372990  0.35837902  1
  O  O151  1  0.74494318  0.49552692  0.86509854  1
  O  O152  1  0.23831620  0.51038576  0.14224973  1
  O  O153  1  0.23826665  0.48689312  0.62798468  1
  O  O154  1  0.23422647  1.01572692  0.11017853  1
  O  O155  1  0.18479271  1.02107234  0.60899780  1
  O  O156  1  0.73920591  0.49704850  0.13461955  1
  O  O157  1  0.75612393  0.48619795  0.62839719  1
  O  O158  1  0.74666967  0.99888983  0.13183752  1
  O  O159  1  0.76799387  0.97067033  0.64292599  1
  O  O160  1  0.00415083  0.36387101  0.25572720  1
  O  O161  1  0.00171554  0.36271125  0.75245224  1
  O  O162  1  -0.00521885  0.86528097  0.23246878  1
  O  O163  1  -0.02452159  0.83873970  0.77261806  1
  O  O164  1  0.49837964  0.36321773  0.24892486  1
  O  O165  1  0.49423812  0.39512245  0.76167801  1
  O  O166  1  0.49405841  0.89150262  0.23904314  1
  O  O167  1  0.53013286  0.88213449  0.75947637  1
  O  O168  1  0.49942407  0.10078738  0.28576488  1
  O  O169  1  0.48895295  0.12584045  0.79428780  1
  O  O170  1  0.49506615  0.64288530  0.24082177  1
  O  O171  1  0.49744961  0.58451848  0.76519668  1
  O  O172  1  0.99749335  0.14380081  0.24436258  1
  O  O173  1  1.00895421  0.13597281  0.76226112  1
  O  O174  1  1.01129988  0.63205857  0.23692968  1
  O  O175  1  1.00560276  0.62784271  0.72313492  1
  O  O176  1  0.27118408  0.22559210  0.05376826  1
  O  O177  1  0.35780071  0.24515054  0.49315803  1
  O  O178  1  0.32921413  0.72151569  -0.09398675  1
  O  O179  1  0.34295862  0.75351840  0.48146532  1
  O  O180  1  0.87055233  0.25463035  0.00155822  1
  O  O181  1  0.88695863  0.25934103  0.51031966  1
  O  O182  1  0.86914918  0.76035934  0.00401065  1
  O  O183  1  0.89041012  0.76375823  0.50192735  1
  O  O184  1  0.11720228  0.25326977  0.47719466  1
  O  O185  1  0.11929437  0.27133888  0.99392566  1
  O  O186  1  0.12885945  0.74881342  0.48408425  1
  O  O187  1  0.12093973  0.73977093  0.98617289  1
  O  O188  1  0.61091459  0.16780286  0.46211763  1
  O  O189  1  0.63929032  0.22968037  0.99533674  1
  O  O190  1  0.60644450  0.72700067  0.51655416  1
  O  O191  1  0.63338641  0.75955114  0.99374225  1
  O  O192  1  0.49695476  0.20611814  0.14665065  1
  O  O193  1  0.49119055  0.29035114  0.64193351  1
  O  O194  1  0.49685119  0.76492886  0.14012783  1
  O  O195  1  0.52101888  0.72865157  0.67597407  1
  O  O196  1  0.98598844  0.24802633  0.13326427  1
  O  O197  1  0.99354627  0.25116632  0.63442365  1
  O  O198  1  1.01312098  0.73658161  0.13635807  1
  O  O199  1  0.98726939  0.74607558  0.63864749  1
  O  O200  1  0.00717106  0.25901610  0.36169895  1
  O  O201  1  0.00781592  0.25731707  0.86307101  1
  O  O202  1  0.00821920  0.75261269  0.35934816  1
  O  O203  1  -0.01519968  0.69776215  0.85417048  1
  O  O204  1  0.49788871  0.25757797  0.36496277  1
  O  O205  1  0.50810812  0.27501967  0.85381124  1
  O  O206  1  0.50130519  0.77787193  0.39729098  1
  O  O207  1  0.50436424  0.72722635  0.84675628  1
  O  O208  1  0.23417608  0.15013699  0.50460856  1
  O  O209  1  0.23219123  0.16361833  1.02166792  1
  O  O210  1  0.22895241  0.63899383  0.49713387  1
  O  O211  1  0.22983600  0.62323097  1.00718867  1
  O  O212  1  0.78477729  0.15181630  0.41778548  1
  O  O213  1  0.76633573  0.12986775  0.96787483  1
  O  O214  1  0.75745347  0.62098457  0.47671992  1
  O  O215  1  0.74728598  0.64333879  1.00575109  1
  O  O216  1  0.30414954  0.38013704  0.03327837  1
  O  O217  1  0.23785839  0.36621864  0.50801259  1
  O  O218  1  0.25785515  0.88185949  0.00144972  1
  O  O219  1  0.22226011  0.86169468  0.51397364  1
  O  O220  1  0.73863874  0.39537151  0.02213258  1
  O  O221  1  0.77433161  0.37327922  0.51583799  1
  O  O222  1  0.75674732  0.86018534  0.00625030  1
  O  O223  1  0.75107465  0.86977236  0.50982413  1
  O  O224  1  0.14205016  0.48766106  0.24993685  1
  O  O225  1  0.12060003  0.48501152  0.75149365  1
  O  O226  1  0.13324489  0.99712450  0.22853028  1
  O  O227  1  0.14869022  0.99968069  0.76518070  1
  O  O228  1  0.62451301  0.50376662  0.25088594  1
  O  O229  1  0.65542603  0.50170219  0.72800345  1
  O  O230  1  0.64336862  1.00320697  0.23529577  1
  O  O231  1  0.65493901  0.98176316  0.74356224  1
  O  O232  1  0.35107511  0.00342940  0.23752080  1
  O  O233  1  0.37889360  0.07053391  0.69740759  1
  O  O234  1  0.35486730  0.51543376  0.24103421  1
  O  O235  1  0.35061309  0.50722868  0.73159141  1
  O  O236  1  0.85191904  -0.01094182  0.25943470  1
  O  O237  1  0.87864146  -0.02080947  0.77174269  1
  O  O238  1  0.87588201  0.49881180  0.25468293  1
  O  O239  1  0.85904766  0.50962683  0.74555580  1
  O  O240  1  0.11769466  0.37142208  0.35918584  1
  O  O241  1  0.10711262  0.36990363  0.86193568  1
  O  O242  1  0.10891601  0.87542667  0.38088069  1
  O  O243  1  0.12973083  0.87574521  0.85541184  1
  O  O244  1  0.60601924  0.39321352  0.35990187  1
  O  O245  1  0.66558685  0.27707474  0.94727226  1
  O  O246  1  0.64057695  0.76465585  0.46390085  1
  O  O247  1  0.63748193  0.87890543  0.87036993  1
  O  O248  1  0.37993211  0.10748295  0.09365018  1
  O  O249  1  0.36403628  0.12267997  0.64699283  1
  O  O250  1  0.39578491  0.65359410  0.09612820  1
  O  O251  1  0.40094792  0.61378881  0.59789139  1
  O  O252  1  0.87914011  0.14754306  0.12047237  1
  O  O253  1  0.87256921  0.13925080  0.61746257  1
  O  O254  1  0.89428920  0.61420937  0.12304211  1
  O  O255  1  0.88667640  0.63601474  0.60553453  1
  O  O256  1  0.24774021  0.24662505  0.12511794  1
  O  O257  1  0.24249275  0.26589123  0.60979463  1
  O  O258  1  0.24318083  0.75877406  0.12378677  1
  O  O259  1  0.24576490  0.74084965  0.61368792  1
  O  O260  1  0.75919620  0.26834070  0.13010661  1
  O  O261  1  0.77676123  0.26321339  0.63863989  1
  O  O262  1  0.73508610  0.76128198  0.11807838  1
  O  O263  1  0.76604454  0.75574171  0.62502740  1
  O  O264  1  0.23647164  0.25738607  0.38295787  1
  O  O265  1  0.23199799  0.26786611  0.87801833  1
  O  O266  1  0.23153155  0.77200638  0.36730537  1
  O  O267  1  0.31518679  0.64041344  0.88765282  1
  O  O268  1  0.72679529  0.30864867  0.38994448  1
  O  O269  1  0.74412304  0.21437176  0.81740557  1
  O  O270  1  0.74909000  0.72654164  0.35697639  1
  O  O271  1  0.76448424  0.73086538  0.88977339  1
  O  O272  1  -0.00646835  0.13389615  0.00971595  1
  O  O273  1  0.00326694  0.10665931  0.48528583  1
  O  O274  1  0.01528773  0.62611665  0.02085036  1
  O  O275  1  0.01004820  0.62775419  0.50498785  1
  O  O276  1  0.50489198  0.13808969  -0.00478646  1
  O  O277  1  0.54284167  0.15512038  0.50552942  1
  O  O278  1  0.45392639  0.64559326  0.03205590  1
  O  O279  1  0.45221310  0.63686678  0.55050542  1
  O  O280  1  0.50289779  0.35822023  0.47273545  1
  O  O281  1  0.50668678  0.33733775  1.00577444  1
  O  O282  1  0.49419901  0.87324890  0.53420101  1
  O  O283  1  0.46365944  0.83534295  0.99246400  1
  O  O284  1  0.99238476  0.37188519  0.48289584  1
  O  O285  1  0.99524519  0.37926564  0.98304194  1
  O  O286  1  1.00026783  0.88336875  0.51255146  1
  O  O287  1  0.98276026  0.87030430  1.02077729  1
  O  O288  1  0.48408810  0.48668076  0.36266641  1
  O  O289  1  0.57396857  0.43900192  0.89473009  1
  O  O290  1  0.56330832  0.94051898  0.39029166  1
  O  O291  1  0.50080485  0.94280302  0.80100410  1
  O  O292  1  0.99106281  0.49048853  0.36057670  1
  O  O293  1  0.98842158  0.48287180  0.85949616  1
  O  O294  1  0.96647518  1.01165691  0.35455916  1
  O  O295  1  0.99524627  1.00391783  0.87915857  1
  O  O296  1  -0.01368005  0.02133843  0.12900307  1
  O  O297  1  -0.04433871  0.02723563  0.66264202  1
  O  O298  1  0.02011561  0.50941627  0.13838139  1
  O  O299  1  -0.00763620  0.50960373  0.62056431  1
  O  O300  1  0.51701370  0.02000612  0.12519567  1
  O  O301  1  0.52854669  0.00833875  0.64358112  1
  O  O302  1  0.49758679  0.52356140  0.13343420  1
  O  O303  1  0.53490732  0.48851218  0.61942077  1
  O  O304  1  0.23990928  0.35980055  0.24808396  1
  O  O305  1  0.22810036  0.37472905  0.72536001  1
  O  O306  1  0.25318841  0.88989245  0.21696340  1
  O  O307  1  0.24490594  0.86160675  0.74041249  1
  O  O308  1  0.75086486  0.39511043  0.23358037  1
  O  O309  1  0.76517912  0.38160620  0.73854735  1
  O  O310  1  0.75043245  0.86656758  0.23381689  1
  O  O311  1  0.75855658  0.87191726  0.76267829  1
  O  O312  1  0.23882142  0.10914117  0.25943361  1
  O  O313  1  0.25584585  0.13804966  0.77584594  1
  O  O314  1  0.24133165  0.62723339  0.25477695  1
  O  O315  1  0.22582000  0.60354414  0.74897702  1
  O  O316  1  0.75400026  0.12158453  0.24601936  1
  O  O317  1  0.78596350  0.09090430  0.74135246  1
  O  O318  1  0.74023905  0.61140489  0.25299668  1
  O  O319  1  0.75095052  0.61946653  0.77938661  1
  O  O320  1  0.36503908  0.10425948  0.38098446  1
  O  O321  1  0.34954027  0.16303342  0.90628519  1
  O  O322  1  0.38590888  0.59990051  0.38161563  1
  O  O323  1  0.37257443  0.59487291  0.90140298  1
  O  O324  1  0.85108293  0.12523019  0.39602221  1
  O  O325  1  0.87992787  0.10645466  0.85743893  1
  O  O326  1  0.87931249  0.60857150  0.37348352  1
  O  O327  1  0.85760101  0.59315914  0.91401966  1
  O  O328  1  0.11696267  0.38440189  0.14252650  1
  O  O329  1  0.10644855  0.38208271  0.63111331  1
  O  O330  1  0.14261975  0.88732816  0.11056460  1
  O  O331  1  0.08863424  0.88645929  0.66372007  1
  O  O332  1  0.62635730  0.36188988  0.12850147  1
  O  O333  1  0.65133109  0.36384524  0.61877235  1
  O  O334  1  0.63713966  0.89174720  0.11599333  1
  O  O335  1  0.64829129  0.86732371  0.64065022  1
  O  O336  1  0.11810536  0.25891678  0.25420807  1
  O  O337  1  0.11361955  0.26014316  0.74410176  1
  O  O338  1  0.11415488  0.76131874  0.26124615  1
  O  O339  1  0.10835420  0.74885568  0.75274764  1
  O  O340  1  0.59726834  0.22905084  0.25261856  1
  O  O341  1  0.50621574  0.17827935  0.73490665  1
  O  O342  1  0.59721005  0.76333788  0.26279223  1
  O  O343  1  0.64870256  0.75880826  0.76369921  1
  O  O344  1  0.39365371  0.22580722  0.26060422  1
  O  O345  1  0.36988714  0.28844381  0.75999375  1
  O  O346  1  0.39898928  0.76330810  0.28162613  1
  O  O347  1  0.37556131  0.71225718  0.74814641  1
  O  O348  1  0.88183371  0.25649434  0.25852885  1
  O  O349  1  0.89535536  0.22723840  0.73846970  1
  O  O350  1  0.89436088  0.74627223  0.25235559  1
  O  O351  1  0.87154686  0.73528271  0.73445038  1
  O  O352  1  0.36068306  0.49076292  0.49022106  1
  O  O353  1  0.36149902  0.41327860  1.06623104  1
  O  O354  1  0.41540813  1.09982269  0.43265156  1
  O  O355  1  0.39196039  0.98962880  0.97905667  1
  O  O356  1  0.87817726  0.48949750  0.48868776  1
  O  O357  1  0.85856954  0.53149214  0.96794724  1
  O  O358  1  0.87245784  0.97965968  0.48521340  1
  O  O359  1  0.87151902  0.99450567  0.99131703  1
  O  O360  1  0.11039718  -0.00144477  0.01331619  1
  O  O361  1  0.12028128  0.06709580  0.60362226  1
  O  O362  1  0.13686602  0.48039530  0.02180700  1
  O  O363  1  0.13090142  0.51459782  0.48366162  1
  O  O364  1  0.63672751  0.00292541  0.00919267  1
  O  O365  1  0.65151388  0.00581993  0.53709897  1
  O  O366  1  0.62810953  0.56611070  -0.03080576  1
  O  O367  1  0.65215536  0.48740955  0.51324570  1
  O  O368  1  0.39482203  0.36976715  0.13242088  1
  O  O369  1  0.35945101  0.38275392  0.61652536  1
  O  O370  1  0.35790642  0.88123328  0.09967545  1
  O  O371  1  0.34671274  0.98235604  0.53984967  1
  O  O372  1  0.88088965  0.36200109  0.12052105  1
  O  O373  1  0.88476101  0.37154480  0.61218553  1
  O  O374  1  0.85230973  0.88548316  0.11247219  1
  O  O375  1  0.87431502  0.86119080  0.61190819  1
  O  O376  1  0.11643427  0.13906934  0.36314478  1
  O  O377  1  0.13348167  0.15661252  0.88075042  1
  O  O378  1  0.11502459  0.63379008  0.38159683  1
  O  O379  1  0.11757928  0.59010015  0.90127868  1
  O  O380  1  0.62570418  0.11710776  0.40667235  1
  O  O381  1  0.64740512  0.10123037  0.86369934  1
  O  O382  1  0.63174293  0.61683562  0.37940150  1
  O  O383  1  0.64066818  0.60435431  0.89889167  1
