# generated using pymatgen
data_VZnO4
_symmetry_space_group_name_H-M   'P 1'
_cell_length_a   16.99459187
_cell_length_b   17.00096732
_cell_length_c   17.01392281
_cell_angle_alpha   89.35526073
_cell_angle_beta   89.98363296
_cell_angle_gamma   90.16087032
_symmetry_Int_Tables_number   1
_chemical_formula_structural   VZnO4
_chemical_formula_sum   'V64 Zn64 O256'
_cell_volume   4915.40830852
_cell_formula_units_Z   64
loop_
 _symmetry_equiv_pos_site_id
 _symmetry_equiv_pos_as_xyz
  1  'x, y, z'
loop_
 _atom_site_type_symbol
 _atom_site_label
 _atom_site_symmetry_multiplicity
 _atom_site_fract_x
 _atom_site_fract_y
 _atom_site_fract_z
 _atom_site_occupancy
  V  V0  1  0.12622278  0.65501884  -0.00331843  1
  V  V1  1  0.50885394  0.11604529  0.11991219  1
  V  V2  1  0.53526158  0.86080511  0.89052904  1
  V  V3  1  -0.00142511  0.25009124  0.77219644  1
  V  V4  1  -0.00658047  0.74323014  0.25091020  1
  V  V5  1  0.63217040  0.87011927  0.26236894  1
  V  V6  1  0.37388950  0.75679812  0.10796867  1
  V  V7  1  0.65429064  0.61441370  0.47903546  1
  V  V8  1  0.50479684  0.48673397  0.00650551  1
  V  V9  1  0.63096956  0.88861943  0.72130732  1
  V  V10  1  0.13594814  0.75387764  0.37833985  1
  V  V11  1  0.59968193  0.50894454  0.64530390  1
  V  V12  1  -0.00017775  0.12386668  0.11219639  1
  V  V13  1  0.37506454  0.62718130  0.24359026  1
  V  V14  1  -0.02975863  0.39792785  0.88063978  1
  V  V15  1  0.12339266  0.38708079  0.21281482  1
  V  V16  1  0.22572512  -0.03883648  0.76089138  1
  V  V17  1  0.87372854  0.50537223  0.36305080  1
  V  V18  1  0.86488174  0.12753755  0.74048848  1
  V  V19  1  0.50719182  0.63092155  0.12661926  1
  V  V20  1  0.14301095  0.60226344  0.50876345  1
  V  V21  1  0.50539927  0.26395763  0.25721932  1
  V  V22  1  0.73520477  0.13457829  0.89156821  1
  V  V23  1  0.73930221  0.25887603  0.50208160  1
  V  V24  1  0.63304988  0.49337412  0.14746932  1
  V  V25  1  0.87173236  0.89408267  0.02163696  1
  V  V26  1  0.00599393  0.38099885  0.36524043  1
  V  V27  1  0.87139691  0.24833821  0.11378599  1
  V  V28  1  0.79762339  0.77311837  0.50441019  1
  V  V29  1  0.25747088  -0.00339278  0.25447323  1
  V  V30  1  0.37606782  0.48300749  0.35975915  1
  V  V31  1  0.75104935  0.36603285  0.16165357  1
  V  V32  1  0.51222461  0.38437882  0.85279592  1
  V  V33  1  0.43924436  0.71069843  0.69192422  1
  V  V34  1  0.24436912  0.50490024  0.21676774  1
  V  V35  1  -0.00325910  0.88520531  0.85351487  1
  V  V36  1  0.48711282  0.50744050  0.49007172  1
  V  V37  1  0.37229654  -0.01985477  0.39773938  1
  V  V38  1  0.37649589  0.12616348  0.26839680  1
  V  V39  1  0.51189733  0.22891036  0.74405053  1
  V  V40  1  0.01177590  0.48877207  0.50484446  1
  V  V41  1  0.62741753  0.63362469  -0.00127185  1
  V  V42  1  0.73857763  0.38713798  0.63788892  1
  V  V43  1  0.87898161  0.26377187  0.61771074  1
  V  V44  1  0.76464223  0.74369593  0.02242522  1
  V  V45  1  0.36151094  0.37899434  0.52428456  1
  V  V46  1  0.36965532  0.22934934  0.63753140  1
  V  V47  1  0.15172414  0.25774521  0.35965862  1
  V  V48  1  0.61416925  0.29105210  0.38440455  1
  V  V49  1  0.36141142  0.49607313  0.87955168  1
  V  V50  1  0.24955250  0.61869808  0.36622853  1
  V  V51  1  0.13284869  0.01056950  0.11630962  1
  V  V52  1  0.64157209  -0.00676741  0.13075105  1
  V  V53  1  0.79103344  0.62717523  0.85511524  1
  V  V54  1  -0.03077028  -0.01536012  0.45948859  1
  V  V55  1  0.12139674  0.87881679  0.24538936  1
  V  V56  1  0.36366441  0.88212056  -0.01584350  1
  V  V57  1  0.22932880  0.78357419  0.54587839  1
  V  V58  1  0.21606871  0.10158278  0.88793375  1
  V  V59  1  0.86245885  0.00013073  0.85760378  1
  V  V60  1  0.36901643  0.24776284  0.11057807  1
  V  V61  1  0.10102009  0.08654092  0.53315054  1
  V  V62  1  0.49368962  0.75901192  0.27551587  1
  V  V63  1  0.00045780  0.25077250  0.23883878  1
  Zn  Zn64  1  0.19054487  0.18507339  0.18834976  1
  Zn  Zn65  1  0.20398944  0.24356066  0.74409739  1
  Zn  Zn66  1  0.18994634  0.69841945  0.18534801  1
  Zn  Zn67  1  0.17024373  0.67363464  0.71672937  1
  Zn  Zn68  1  0.68066613  0.18599882  0.20286342  1
  Zn  Zn69  1  0.69331151  0.19681633  0.69572093  1
  Zn  Zn70  1  0.67695645  0.70142159  0.19159668  1
  Zn  Zn71  1  0.71538395  0.66340520  0.66677244  1
  Zn  Zn72  1  0.31777593  0.32491342  0.25997977  1
  Zn  Zn73  1  0.34584950  0.31997426  0.81514871  1
  Zn  Zn74  1  0.31329089  0.81320685  0.30966738  1
  Zn  Zn75  1  0.29934455  0.78581105  0.80839916  1
  Zn  Zn76  1  0.82725594  0.29291662  0.33191391  1
  Zn  Zn77  1  0.80115390  0.30916149  0.81191316  1
  Zn  Zn78  1  0.81834206  0.69322537  0.33072300  1
  Zn  Zn79  1  0.75812060  0.82787453  0.85586598  1
  Zn  Zn80  1  0.19362444  0.42752084  0.41820908  1
  Zn  Zn81  1  0.18374348  0.39953028  0.87050389  1
  Zn  Zn82  1  0.18647000  0.94463512  0.43860287  1
  Zn  Zn83  1  0.18291110  0.92402804  0.94036743  1
  Zn  Zn84  1  0.68926260  0.44254837  0.44456994  1
  Zn  Zn85  1  0.67632727  0.47740250  0.91651786  1
  Zn  Zn86  1  0.73108020  0.87045252  0.39216496  1
  Zn  Zn87  1  0.69563768  0.95234416  0.95519137  1
  Zn  Zn88  1  0.31967896  0.06565556  0.06018335  1
  Zn  Zn89  1  0.29800821  0.05400104  0.57791238  1
  Zn  Zn90  1  0.32712433  0.57691153  0.03833773  1
  Zn  Zn91  1  0.34495930  0.63981462  0.53989580  1
  Zn  Zn92  1  0.80910068  0.06947441  0.06961074  1
  Zn  Zn93  1  0.81242508  0.08939392  0.54376088  1
  Zn  Zn94  1  0.80003020  0.57109540  0.09709736  1
  Zn  Zn95  1  0.82676581  0.53737283  0.55437344  1
  Zn  Zn96  1  0.42321123  0.44460922  0.15657652  1
  Zn  Zn97  1  0.42050502  0.46805685  0.69247432  1
  Zn  Zn98  1  0.43760213  0.93349329  0.18064645  1
  Zn  Zn99  1  0.42544883  0.89743988  0.77451184  1
  Zn  Zn100  1  0.92410639  0.43263310  0.18548425  1
  Zn  Zn101  1  0.94603655  0.42386146  0.68776842  1
  Zn  Zn102  1  0.94636754  0.94133267  0.19611616  1
  Zn  Zn103  1  1.03564513  0.95597732  0.65771770  1
  Zn  Zn104  1  0.07573994  0.07411488  0.30633668  1
  Zn  Zn105  1  0.04907879  0.05956478  0.80951310  1
  Zn  Zn106  1  0.06573840  0.56397873  0.30279168  1
  Zn  Zn107  1  -0.01708496  0.59108316  0.79511566  1
  Zn  Zn108  1  0.54623413  0.03962576  0.30746826  1
  Zn  Zn109  1  0.56638362  0.04285528  0.81690670  1
  Zn  Zn110  1  0.56116097  0.56704813  0.31578488  1
  Zn  Zn111  1  0.54780968  0.60531083  0.81095602  1
  Zn  Zn112  1  0.42415300  0.20974667  0.43910319  1
  Zn  Zn113  1  0.47518183  0.21376018  0.94645980  1
  Zn  Zn114  1  0.49046584  0.71740449  0.48632351  1
  Zn  Zn115  1  0.42472514  0.68887600  0.90508051  1
  Zn  Zn116  1  0.94397675  0.14459232  0.41529133  1
  Zn  Zn117  1  0.92492950  0.18038302  0.93700892  1
  Zn  Zn118  1  0.96049451  0.67239718  0.44034849  1
  Zn  Zn119  1  0.93013204  0.71848369  0.92965494  1
  Zn  Zn120  1  0.05778324  0.35599372  0.02052450  1
  Zn  Zn121  1  0.05217097  0.27152517  0.52271481  1
  Zn  Zn122  1  0.04259925  0.82956561  0.06889072  1
  Zn  Zn123  1  -0.03767529  0.84041906  0.53088212  1
  Zn  Zn124  1  0.56478052  0.31447330  0.08724377  1
  Zn  Zn125  1  0.55084001  0.32731021  0.57191162  1
  Zn  Zn126  1  0.56124911  0.81996873  0.06645122  1
  Zn  Zn127  1  0.60332728  0.77812886  0.58935597  1
  O  O128  1  0.11639552  0.11926436  0.12588982  1
  O  O129  1  0.06487431  0.06420393  0.62273756  1
  O  O130  1  0.12326346  0.64559306  0.10216257  1
  O  O131  1  0.15504867  0.60731868  0.60504040  1
  O  O132  1  0.61512593  0.10785269  0.15107064  1
  O  O133  1  0.66340918  0.08642074  0.62784137  1
  O  O134  1  0.62134943  0.61622265  0.13012940  1
  O  O135  1  0.64438030  0.59369255  0.60438686  1
  O  O136  1  0.37451750  0.38645099  0.34323823  1
  O  O137  1  0.40254444  0.38933521  0.88543144  1
  O  O138  1  0.36125665  0.88081553  0.38649157  1
  O  O139  1  0.36811032  0.85371822  0.87923990  1
  O  O140  1  0.90203247  0.38147062  0.36371408  1
  O  O141  1  0.87274527  0.38076802  0.85518780  1
  O  O142  1  0.83796935  0.94935190  0.30559257  1
  O  O143  1  0.86193112  0.89561143  0.86396045  1
  O  O144  1  0.25829544  0.00128199  0.36204008  1
  O  O145  1  0.23857293  -0.00292717  0.86326193  1
  O  O146  1  0.26037675  0.50230825  0.34894800  1
  O  O147  1  0.26833339  0.46881892  0.90596166  1
  O  O148  1  0.78301012  -0.02538108  0.35467452  1
  O  O149  1  0.75822849  0.01214006  0.88084167  1
  O  O150  1  0.77869738  0.48397985  0.38513967  1
  O  O151  1  0.76725585  0.53590910  0.89510337  1
  O  O152  1  0.25793465  0.51970970  0.12044053  1
  O  O153  1  0.17942690  0.42102533  0.62803316  1
  O  O154  1  0.23869928  1.01265540  0.13791676  1
  O  O155  1  0.28810217  0.96801622  0.66598147  1
  O  O156  1  0.74189944  0.47932110  0.13089527  1
  O  O157  1  0.75768290  0.48699373  0.63092979  1
  O  O158  1  0.74057096  1.00639794  0.13898484  1
  O  O159  1  0.71801743  1.03893269  0.61152320  1
  O  O160  1  0.01270773  0.38090106  0.23986725  1
  O  O161  1  -0.00199167  0.35712615  0.76315740  1
  O  O162  1  0.02154626  0.88216994  0.26457572  1
  O  O163  1  0.00372577  0.90847916  0.75512618  1
  O  O164  1  0.49865192  0.35920918  0.24258251  1
  O  O165  1  0.49600148  0.39846680  0.75557655  1
  O  O166  1  0.48856538  0.85961503  0.25533530  1
  O  O167  1  0.54056626  0.85314016  0.76270559  1
  O  O168  1  0.48547736  0.12022172  0.24849889  1
  O  O169  1  0.51211856  0.13057432  0.75593150  1
  O  O170  1  0.49283006  0.63515791  0.24554696  1
  O  O171  1  0.55533161  0.68734237  0.72051642  1
  O  O172  1  1.01079757  0.14917392  0.23474971  1
  O  O173  1  0.97348407  0.13576655  0.76048182  1
  O  O174  1  1.00930445  0.64345967  0.24707868  1
  O  O175  1  1.07266862  0.64838074  0.76975386  1
  O  O176  1  0.39211813  0.25567467  0.01332529  1
  O  O177  1  0.38255415  0.26984580  0.52640514  1
  O  O178  1  0.37854198  0.74508994  0.00709623  1
  O  O179  1  0.31960137  0.75140406  0.51511784  1
  O  O180  1  0.86730881  0.24719648  0.01602429  1
  O  O181  1  0.85059637  0.25863803  0.51630458  1
  O  O182  1  0.86571614  0.73277710  0.02259429  1
  O  O183  1  0.90137904  0.74782344  0.50704663  1
  O  O184  1  0.14700641  0.27171018  0.45971879  1
  O  O185  1  0.13697461  0.25286130  1.01368530  1
  O  O186  1  0.14966891  0.72898084  0.48497353  1
  O  O187  1  0.12456416  0.75981073  1.01527123  1
  O  O188  1  0.61546143  0.27156656  0.49041201  1
  O  O189  1  0.65797508  0.27909007  1.00882926  1
  O  O190  1  0.60856376  0.70660164  0.49984639  1
  O  O191  1  0.62895077  0.73550466  1.01223030  1
  O  O192  1  0.50702250  0.23632360  0.14637469  1
  O  O193  1  0.48964964  0.25430709  0.63835714  1
  O  O194  1  0.49349281  0.74026292  0.12778702  1
  O  O195  1  0.48584308  0.74832487  0.60005715  1
  O  O196  1  0.98790508  0.24733981  0.12185314  1
  O  O197  1  0.97959355  0.27009757  0.61127557  1
  O  O198  1  0.99517353  0.77129699  0.15323063  1
  O  O199  1  1.01244403  0.71505245  0.63400204  1
  O  O200  1  0.01990140  0.26872443  0.34644631  1
  O  O201  1  -0.00984614  0.25135756  0.87331035  1
  O  O202  1  0.03322078  0.73927669  0.37176557  1
  O  O203  1  -0.02644683  0.78561737  0.85220145  1
  O  O204  1  0.50539415  0.25510404  0.37032522  1
  O  O205  1  0.50353799  0.27320593  0.85450597  1
  O  O206  1  0.48421486  0.74581197  0.37356134  1
  O  O207  1  0.50973557  0.76192933  0.88500270  1
  O  O208  1  0.20100329  0.10125590  0.54067228  1
  O  O209  1  0.25944416  0.11719460  0.97807050  1
  O  O210  1  0.25145141  0.60406729  0.47734645  1
  O  O211  1  0.22865960  0.64312317  1.00792042  1
  O  O212  1  0.72984568  0.15886027  0.50280013  1
  O  O213  1  0.74961597  0.12746152  0.99200425  1
  O  O214  1  0.75399618  0.60608247  0.49428976  1
  O  O215  1  0.73639745  0.63153156  1.02239461  1
  O  O216  1  0.19772826  0.26694818  -0.02470740  1
  O  O217  1  0.26872638  0.37707209  0.48808062  1
  O  O218  1  0.26410593  0.86742148  -0.00668976  1
  O  O219  1  0.21900892  0.88317634  0.52889762  1
  O  O220  1  0.71078125  0.33120350  0.00362325  1
  O  O221  1  0.73730580  0.37260897  0.52123546  1
  O  O222  1  0.77191130  0.85401576  -0.01104744  1
  O  O223  1  0.78623419  0.87228071  0.50093448  1
  O  O224  1  0.13525639  0.50095060  0.23178364  1
  O  O225  1  0.14766796  0.49341053  0.78147523  1
  O  O226  1  0.13956832  0.99445262  0.25202054  1
  O  O227  1  0.13427069  1.00187745  0.74135728  1
  O  O228  1  0.62822019  0.50627839  0.24430228  1
  O  O229  1  0.59995051  0.52645231  0.74275566  1
  O  O230  1  0.61603257  0.97886776  0.24532292  1
  O  O231  1  0.63310425  0.98601991  0.74432148  1
  O  O232  1  0.36704619  0.00338015  0.25263182  1
  O  O233  1  0.33778569  -0.01817244  0.73621602  1
  O  O234  1  0.36526528  0.50783246  0.23897910  1
  O  O235  1  0.36217411  0.50857069  0.77983819  1
  O  O236  1  0.87082093  0.00547763  0.25995371  1
  O  O237  1  0.86596001  0.02024306  0.75261422  1
  O  O238  1  0.88025170  0.50142112  0.26257637  1
  O  O239  1  0.91518151  0.54037769  0.70532429  1
  O  O240  1  0.12204787  0.37799703  0.34105363  1
  O  O241  1  0.08501591  0.37645837  0.91069029  1
  O  O242  1  0.14406598  0.85752672  0.36896843  1
  O  O243  1  0.09085228  0.88950823  0.88897312  1
  O  O244  1  0.61018847  0.38842899  0.37561941  1
  O  O245  1  0.61091174  0.40092714  0.87024568  1
  O  O246  1  0.62017056  0.87692812  0.36390355  1
  O  O247  1  0.63698245  0.86949804  0.90051765  1
  O  O248  1  0.39235141  0.13362626  0.12647703  1
  O  O249  1  0.37031338  0.13106889  0.62346392  1
  O  O250  1  0.38730024  0.63295138  0.12924030  1
  O  O251  1  0.37451017  0.64559636  0.65000810  1
  O  O252  1  0.88613620  0.13675175  0.12824663  1
  O  O253  1  0.86129296  0.14560278  0.63377824  1
  O  O254  1  0.82709829  0.63822598  0.18631421  1
  O  O255  1  0.89760242  0.58627517  0.64300280  1
  O  O256  1  0.27040530  0.23233537  0.12024246  1
  O  O257  1  0.27317639  0.25181148  0.64880993  1
  O  O258  1  0.27671762  0.74910760  0.13268640  1
  O  O259  1  0.21177305  0.75377914  0.63975078  1
  O  O260  1  0.75923542  0.25281227  0.14819410  1
  O  O261  1  0.74211291  0.26545331  0.61768658  1
  O  O262  1  0.74252216  0.75981434  0.11733740  1
  O  O263  1  0.74955857  0.73982457  0.58793800  1
  O  O264  1  0.24790209  0.27443130  0.33591055  1
  O  O265  1  0.38268228  0.09160573  0.84540815  1
  O  O266  1  0.24397368  0.73078858  0.35459387  1
  O  O267  1  0.24241321  0.69087070  0.80374685  1
  O  O268  1  0.72324342  0.27757345  0.39221585  1
  O  O269  1  0.74554633  0.23492047  0.87475583  1
  O  O270  1  0.75975077  0.75211186  0.40884289  1
  O  O271  1  0.76154790  0.72028367  0.89925493  1
  O  O272  1  -0.00359494  0.12916747  0.01411064  1
  O  O273  1  0.03402702  0.15914138  0.49269259  1
  O  O274  1  0.02388661  0.66759503  -0.01543442  1
  O  O275  1  0.03139714  0.60184704  0.49918391  1
  O  O276  1  0.52067173  0.14319890  0.02375062  1
  O  O277  1  0.51586661  0.13328743  0.49314178  1
  O  O278  1  0.51464855  0.61563026  0.01739960  1
  O  O279  1  0.45186631  0.60701620  0.49784200  1
  O  O280  1  0.47757338  0.39771030  0.50995866  1
  O  O281  1  0.52183252  0.38621150  1.00944429  1
  O  O282  1  0.57331216  0.97644022  0.51791240  1
  O  O283  1  0.49541444  0.87308863  0.98767881  1
  O  O284  1  1.02201243  0.37815056  0.47081189  1
  O  O285  1  0.95791938  0.39087520  0.98420335  1
  O  O286  1  0.95199096  0.89542793  0.42140437  1
  O  O287  1  0.96669020  0.86496344  0.99013614  1
  O  O288  1  0.48119800  0.50580574  0.37181632  1
  O  O289  1  0.49284066  0.49802564  0.90042300  1
  O  O290  1  0.47072435  1.00027263  0.38136830  1
  O  O291  1  0.49441485  0.95695685  0.85274314  1
  O  O292  1  1.00483370  0.49079113  0.36844972  1
  O  O293  1  0.98598881  0.49253617  0.85012111  1
  O  O294  1  0.99080892  1.04616919  0.37156618  1
  O  O295  1  0.96870442  0.99930065  0.87659028  1
  O  O296  1  0.01156246  0.01901182  0.13584101  1
  O  O297  1  -0.03244328  -0.04863015  0.56401552  1
  O  O298  1  -0.03986272  0.51901735  0.10495247  1
  O  O299  1  0.01293412  0.46691134  0.60067954  1
  O  O300  1  0.49642696  0.01442167  0.12513146  1
  O  O301  1  0.50864848  0.09168438  0.55362228  1
  O  O302  1  0.52072405  0.50538312  0.12985677  1
  O  O303  1  0.49941812  0.51171723  0.61719146  1
  O  O304  1  0.23425889  0.39610928  0.22035236  1
  O  O305  1  0.23876166  0.33498705  0.80063057  1
  O  O306  1  0.24560384  0.89069239  0.24760041  1
  O  O307  1  0.21665952  0.86458887  0.77599388  1
  O  O308  1  0.76077084  0.36662857  0.25810600  1
  O  O309  1  0.73610039  0.36559846  0.73582114  1
  O  O310  1  0.72842773  0.85141979  0.25794594  1
  O  O311  1  0.71802348  0.84526314  0.75453596  1
  O  O312  1  0.27112974  0.11506923  0.24449611  1
  O  O313  1  0.24874107  0.16042888  0.81268575  1
  O  O314  1  0.25306841  0.61703331  0.24418793  1
  O  O315  1  0.20149962  0.53163729  0.74906725  1
  O  O316  1  0.71010562  0.11537356  0.30471773  1
  O  O317  1  0.76217652  0.13632459  0.76116023  1
  O  O318  1  0.76543722  0.64006675  0.24068411  1
  O  O319  1  0.76538918  0.62885587  0.75886824  1
  O  O320  1  0.37464487  0.12884311  0.36959375  1
  O  O321  1  0.42814083  0.10123430  0.90168588  1
  O  O322  1  0.36392940  0.61232223  0.34993772  1
  O  O323  1  0.36585531  0.59227074  0.92742648  1
  O  O324  1  0.85771750  0.19450702  0.37454891  1
  O  O325  1  0.85932462  0.11821058  0.86875106  1
  O  O326  1  0.88466415  0.61066589  0.37935541  1
  O  O327  1  0.89517912  0.63382681  0.85924631  1
  O  O328  1  0.10911313  0.38964171  0.11482868  1
  O  O329  1  0.14504309  0.35743321  0.63046905  1
  O  O330  1  0.11651911  0.89425345  0.13988227  1
  O  O331  1  0.05593535  0.83840382  0.60465595  1
  O  O332  1  0.63942639  0.38165769  0.14312418  1
  O  O333  1  0.62455035  0.40515362  0.62561341  1
  O  O334  1  0.61783662  0.88462831  0.14063219  1
  O  O335  1  0.62821163  0.88178033  0.61854721  1
  O  O336  1  0.12103600  0.27453491  0.22755522  1
  O  O337  1  0.09188827  0.23084937  0.74131888  1
  O  O338  1  0.12647497  0.76689429  0.25260686  1
  O  O339  1  0.05314834  0.77254629  0.65897204  1
  O  O340  1  0.61349012  0.25069186  0.27418754  1
  O  O341  1  0.60874687  0.25518334  0.73649235  1
  O  O342  1  0.59983501  0.75740865  0.25270923  1
  O  O343  1  0.62150140  0.73032018  0.69783296  1
  O  O344  1  0.39079690  0.23258835  0.24948461  1
  O  O345  1  0.39475514  0.24716204  0.74379547  1
  O  O346  1  0.38450111  0.74387800  0.24293246  1
  O  O347  1  0.44520470  0.65382211  0.78847789  1
  O  O348  1  0.89873677  0.26495935  0.23673444  1
  O  O349  1  0.88218059  0.24595372  0.73787952  1
  O  O350  1  0.89995010  0.75927551  0.28371286  1
  O  O351  1  0.88650807  0.75502650  0.70706998  1
  O  O352  1  0.37063765  0.48183525  0.46766089  1
  O  O353  1  0.40602628  0.48773389  1.03989782  1
  O  O354  1  0.35338488  1.00162661  0.49336074  1
  O  O355  1  0.36941469  0.98102166  0.99691310  1
  O  O356  1  0.90800820  0.49644613  0.48481775  1
  O  O357  1  0.90863340  0.54418950  1.05515796  1
  O  O358  1  0.88435126  1.04557878  0.47473093  1
  O  O359  1  0.86295618  0.99337123  0.99815287  1
  O  O360  1  0.13351519  -0.00543626  0.02063739  1
  O  O361  1  0.08884248  -0.00137237  0.47544765  1
  O  O362  1  0.10774911  0.55617666  -0.01730900  1
  O  O363  1  0.12926184  0.49745091  0.48748686  1
  O  O364  1  0.62737603  -0.00400543  0.03076935  1
  O  O365  1  0.62636114  0.00081566  0.47547352  1
  O  O366  1  0.62126266  0.51114293  0.01780678  1
  O  O367  1  0.60289648  0.51525729  0.48772542  1
  O  O368  1  0.37288962  0.34522743  0.14890171  1
  O  O369  1  0.35611143  0.40392918  0.62090720  1
  O  O370  1  0.38818135  0.86238652  0.10411708  1
  O  O371  1  0.38657657  0.79353372  0.72629469  1
  O  O372  1  0.85385932  0.36456099  0.12452719  1
  O  O373  1  0.85758799  0.36707003  0.63545309  1
  O  O374  1  0.87712058  0.89162900  0.12061730  1
  O  O375  1  0.88058845  0.82117616  0.67805493  1
  O  O376  1  0.14096078  0.15844596  0.34176489  1
  O  O377  1  0.11602889  0.10565007  0.88979086  1
  O  O378  1  0.14051402  0.62453784  0.37121384  1
  O  O379  1  0.14816675  0.67480228  0.89657674  1
  O  O380  1  0.65261267  0.10371629  0.35177075  1
  O  O381  1  0.63713459  0.11168979  0.87538869  1
  O  O382  1  0.64193773  0.61501378  0.37828787  1
  O  O383  1  0.62132451  0.61768400  0.89925437  1
