# generated using pymatgen
data_VZnO4
_symmetry_space_group_name_H-M   'P 1'
_cell_length_a   16.94262058
_cell_length_b   17.00019757
_cell_length_c   16.88330548
_cell_angle_alpha   90.24158293
_cell_angle_beta   89.86693677
_cell_angle_gamma   90.33765285
_symmetry_Int_Tables_number   1
_chemical_formula_structural   VZnO4
_chemical_formula_sum   'V64 Zn64 O256'
_cell_volume   4862.72247424
_cell_formula_units_Z   64
loop_
 _symmetry_equiv_pos_site_id
 _symmetry_equiv_pos_as_xyz
  1  'x, y, z'
loop_
 _atom_site_type_symbol
 _atom_site_label
 _atom_site_symmetry_multiplicity
 _atom_site_fract_x
 _atom_site_fract_y
 _atom_site_fract_z
 _atom_site_occupancy
  V  V0  1  0.90245319  0.20595182  0.10265691  1
  V  V1  1  0.75849406  0.01274528  0.25377296  1
  V  V2  1  0.59987855  0.24823039  0.37676024  1
  V  V3  1  0.01405140  0.22472374  0.74331323  1
  V  V4  1  0.13182446  0.75793812  0.38532947  1
  V  V5  1  0.02637562  0.00023432  0.52295874  1
  V  V6  1  0.87552754  0.88359989  0.50865534  1
  V  V7  1  0.38818978  0.00687786  0.38283878  1
  V  V8  1  0.36240329  0.52272950  0.88303063  1
  V  V9  1  -0.00906391  0.85276823  0.85682039  1
  V  V10  1  0.74827597  0.50730061  0.73324782  1
  V  V11  1  0.22646932  0.49825218  0.75960972  1
  V  V12  1  0.49726350  0.49272485  -0.00712689  1
  V  V13  1  0.61560469  0.88303243  0.25862354  1
  V  V14  1  0.86844993  0.75485925  0.15491898  1
  V  V15  1  0.36000257  0.26687941  0.11358932  1
  V  V16  1  -0.00846139  0.22415569  0.24947826  1
  V  V17  1  0.63132560  0.59953277  0.49624700  1
  V  V18  1  0.00409567  0.88753686  0.37547454  1
  V  V19  1  0.76681254  0.34879479  0.64344851  1
  V  V20  1  0.74731826  0.62270102  0.87984594  1
  V  V21  1  0.49624085  0.75175074  0.23641440  1
  V  V22  1  0.37738856  0.48907805  0.38151424  1
  V  V23  1  0.38297426  0.73474603  0.64599943  1
  V  V24  1  0.87557200  0.85622098  -0.00315766  1
  V  V25  1  0.76296329  -0.00812996  0.72776191  1
  V  V26  1  0.27163135  0.86161752  0.11169137  1
  V  V27  1  0.38872662  0.87650906  -0.03010295  1
  V  V28  1  0.61166771  0.50460863  0.13654675  1
  V  V29  1  0.13221181  0.14061138  0.51442148  1
  V  V30  1  0.11376341  0.35694414  0.25385823  1
  V  V31  1  0.24251944  0.12947037  0.35841847  1
  V  V32  1  0.25836620  0.63016378  0.38800647  1
  V  V33  1  0.12188364  -0.01001358  0.10687458  1
  V  V34  1  0.22033460  0.38061489  0.61489347  1
  V  V35  1  0.75527245  0.39590626  0.12307712  1
  V  V36  1  0.86139127  0.75457177  0.61820519  1
  V  V37  1  -0.01257601  0.40525668  0.85473018  1
  V  V38  1  0.62475461  0.37643289  0.76265807  1
  V  V39  1  0.38114746  0.12215937  0.23813544  1
  V  V40  1  0.86691130  0.37240756  0.47677002  1
  V  V41  1  0.15031461  0.89210925  0.75950096  1
  V  V42  1  0.15111250  0.88332645  0.25363216  1
  V  V43  1  0.61284347  0.63830076  0.00590918  1
  V  V44  1  0.74968485  0.23274396  0.48088335  1
  V  V45  1  0.73397496  0.86762164  0.12118462  1
  V  V46  1  0.50042319  0.27073326  0.23509477  1
  V  V47  1  0.87565808  0.63540428  0.74303353  1
  V  V48  1  0.61785456  0.02235043  0.11018260  1
  V  V49  1  0.61840001  0.74769502  0.84363157  1
  V  V50  1  0.37219283  0.63688598  0.23461749  1
  V  V51  1  -0.02258634  0.51102965  0.00879458  1
  V  V52  1  0.24429668  0.50257182  0.24767551  1
  V  V53  1  0.63108186  0.24524010  0.89900781  1
  V  V54  1  0.86798104  0.00253782  0.88422470  1
  V  V55  1  0.50178204  0.23624321  0.76484988  1
  V  V56  1  0.12699770  0.65662520  0.00081966  1
  V  V57  1  0.38567026  0.26788654  0.61420577  1
  V  V58  1  -0.00950136  0.63810738  0.14598868  1
  V  V59  1  0.03187104  0.63434861  0.59981883  1
  V  V60  1  0.61220342  0.75270797  0.39211993  1
  V  V61  1  0.52414131  0.89753143  0.86397820  1
  V  V62  1  0.12327679  0.50729565  0.12417552  1
  V  V63  1  0.27125236  0.78227125  0.50642226  1
  Zn  Zn64  1  0.18468560  0.17827261  0.16640966  1
  Zn  Zn65  1  0.19837517  0.20934387  0.69316279  1
  Zn  Zn66  1  0.18362099  0.69672859  0.19388135  1
  Zn  Zn67  1  0.22348395  0.67397936  0.68074694  1
  Zn  Zn68  1  0.69404880  0.20079286  0.18516099  1
  Zn  Zn69  1  0.71846787  0.18718154  0.75456412  1
  Zn  Zn70  1  0.68231576  0.68772173  0.19763982  1
  Zn  Zn71  1  0.68904998  0.68578911  0.66848463  1
  Zn  Zn72  1  0.30602477  0.31760541  0.28789664  1
  Zn  Zn73  1  0.33678724  0.35014033  0.76530387  1
  Zn  Zn74  1  0.32488765  0.81909045  0.32113527  1
  Zn  Zn75  1  0.35751762  0.85660848  0.75904424  1
  Zn  Zn76  1  0.75832166  0.32443328  0.30688074  1
  Zn  Zn77  1  0.81340071  0.33269011  0.83411640  1
  Zn  Zn78  1  0.78394433  0.67834204  0.38735136  1
  Zn  Zn79  1  0.79427221  0.81550595  0.80402083  1
  Zn  Zn80  1  0.19465980  0.30688580  0.43678440  1
  Zn  Zn81  1  0.15795683  0.44922830  0.92559919  1
  Zn  Zn82  1  0.20213476  0.95281203  0.43885568  1
  Zn  Zn83  1  0.16560966  0.85965561  0.95555803  1
  Zn  Zn84  1  0.66867481  0.39731929  0.45833512  1
  Zn  Zn85  1  0.69100263  0.44338842  0.94520645  1
  Zn  Zn86  1  0.75536741  0.87712074  0.37761036  1
  Zn  Zn87  1  0.69131878  0.93579270  0.93742225  1
  Zn  Zn88  1  0.31905845  0.03806897  0.07730328  1
  Zn  Zn89  1  0.32466506  0.10387639  0.54595203  1
  Zn  Zn90  1  0.30623383  0.57476692  0.05616405  1
  Zn  Zn91  1  0.30910314  0.54983865  0.56784092  1
  Zn  Zn92  1  0.81961520  0.04402351  0.07263142  1
  Zn  Zn93  1  0.80601870  0.05327520  0.52726293  1
  Zn  Zn94  1  0.79847835  0.57821717  0.07598955  1
  Zn  Zn95  1  0.83529368  0.57914004  0.52010961  1
  Zn  Zn96  1  0.43033565  0.44591762  0.18135943  1
  Zn  Zn97  1  0.44962793  0.45440510  0.70215064  1
  Zn  Zn98  1  0.44241949  0.94458499  0.18426567  1
  Zn  Zn99  1  0.52994868  0.81743695  0.67864036  1
  Zn  Zn100  1  0.96153458  0.38113027  0.14599891  1
  Zn  Zn101  1  0.93402089  0.46180127  0.66726296  1
  Zn  Zn102  1  0.93896082  0.93654948  0.19169863  1
  Zn  Zn103  1  0.94017005  0.94265561  0.68918962  1
  Zn  Zn104  1  0.06709155  0.05791612  0.31047994  1
  Zn  Zn105  1  0.04691963  0.04376982  0.81856481  1
  Zn  Zn106  1  0.06988842  0.58130771  0.31751466  1
  Zn  Zn107  1  0.05372832  0.58388751  0.82181474  1
  Zn  Zn108  1  0.56138861  0.07218969  0.30326563  1
  Zn  Zn109  1  0.59576333  0.07594628  0.81295703  1
  Zn  Zn110  1  0.55027779  0.57522596  0.32362636  1
  Zn  Zn111  1  0.55734792  0.56054250  0.80661746  1
  Zn  Zn112  1  0.38974321  0.23563178  0.40705264  1
  Zn  Zn113  1  0.43953783  0.19008665  0.93622757  1
  Zn  Zn114  1  0.44702146  0.68671390  0.44233629  1
  Zn  Zn115  1  0.43961224  0.69367554  0.93083149  1
  Zn  Zn116  1  0.93386169  0.17308191  0.43991263  1
  Zn  Zn117  1  0.82442311  0.19446666  0.93501957  1
  Zn  Zn118  1  0.95436332  0.69815554  0.44661359  1
  Zn  Zn119  1  0.92961894  0.68323661  0.94557242  1
  Zn  Zn120  1  0.01249827  0.29964315  -0.00716433  1
  Zn  Zn121  1  0.03954353  0.30857536  0.56097033  1
  Zn  Zn122  1  0.04984271  0.82290731  0.07881937  1
  Zn  Zn123  1  0.07015600  0.80963501  0.57792107  1
  Zn  Zn124  1  0.56072856  0.32492701  0.06489182  1
  Zn  Zn125  1  0.58089143  0.29157382  0.58773100  1
  Zn  Zn126  1  0.55006707  0.81529938  0.05475875  1
  Zn  Zn127  1  0.50537344  0.61288925  0.61451028  1
  O  O128  1  0.14227937  0.09062515  0.10893432  1
  O  O129  1  0.14747443  0.14074668  0.61257990  1
  O  O130  1  0.10747492  0.63658900  0.12536538  1
  O  O131  1  0.12406966  0.64204639  0.64078846  1
  O  O132  1  0.62828317  0.12040478  0.12683439  1
  O  O133  1  0.59455615  0.09278117  0.60156322  1
  O  O134  1  0.63097910  0.62090673  0.11160540  1
  O  O135  1  0.62822922  0.61780084  0.60165403  1
  O  O136  1  0.36063394  0.39184481  0.35855419  1
  O  O137  1  0.30663022  0.34934502  0.93016862  1
  O  O138  1  0.37022159  0.90762813  0.37133987  1
  O  O139  1  0.40466548  0.88769915  0.86412080  1
  O  O140  1  0.83871275  0.36727652  0.37881776  1
  O  O141  1  0.89115363  0.39445644  0.88634421  1
  O  O142  1  0.90241793  0.87232567  0.39863792  1
  O  O143  1  0.87003910  0.86039605  0.88566663  1
  O  O144  1  0.26117208  0.02596036  0.37006722  1
  O  O145  1  0.24810417  0.02771194  0.89924623  1
  O  O146  1  0.25252283  0.52100429  0.35697333  1
  O  O147  1  0.25154935  0.49977615  0.87659486  1
  O  O148  1  0.74926879  -0.01342846  0.35228141  1
  O  O149  1  0.76454871  -0.01351185  0.86580235  1
  O  O150  1  0.74095548  0.54969500  0.29263730  1
  O  O151  1  0.74426222  0.51949950  0.86917771  1
  O  O152  1  0.23381839  0.52179605  0.13630100  1
  O  O153  1  0.24409584  0.48475036  0.63713668  1
  O  O154  1  0.23893579  0.96793604  0.12086927  1
  O  O155  1  0.29060699  1.01083146  0.65107179  1
  O  O156  1  0.72851401  0.50427315  0.12909685  1
  O  O157  1  0.74137891  0.49252473  0.63676130  1
  O  O158  1  0.73674551  0.98558852  0.13352401  1
  O  O159  1  0.77364258  1.00709419  0.62832967  1
  O  O160  1  0.01101837  0.36685672  0.25089961  1
  O  O161  1  -0.00534158  0.42190576  0.75701026  1
  O  O162  1  0.00553218  0.88067864  0.27347263  1
  O  O163  1  -0.01647863  0.85994971  0.75747604  1
  O  O164  1  0.49306932  0.36975525  0.24344527  1
  O  O165  1  0.52470722  0.37532782  0.75916509  1
  O  O166  1  0.50785635  0.86680488  0.24223011  1
  O  O167  1  0.52234711  0.88959106  0.76261434  1
  O  O168  1  0.48294863  0.14215057  0.24599374  1
  O  O169  1  0.50905543  0.13710238  0.76370316  1
  O  O170  1  0.48263301  0.64025487  0.25016396  1
  O  O171  1  0.49938120  0.55303765  0.70958488  1
  O  O172  1  1.01755576  0.12864619  0.23642802  1
  O  O173  1  1.00406299  0.12472492  0.75386123  1
  O  O174  1  0.99707919  0.62884955  0.24545911  1
  O  O175  1  0.97425981  0.62978566  0.75616045  1
  O  O176  1  0.38788647  0.24461963  0.01780161  1
  O  O177  1  0.39761982  0.27550392  0.51529799  1
  O  O178  1  0.38830431  0.77457510  -0.01127834  1
  O  O179  1  0.36988571  0.75758644  0.49290126  1
  O  O180  1  0.90498119  0.24673556  0.00174877  1
  O  O181  1  0.85497281  0.25067367  0.49251142  1
  O  O182  1  0.86307382  0.75511193  0.01033553  1
  O  O183  1  0.88093115  0.76840086  0.51015505  1
  O  O184  1  0.11332703  0.24202341  0.49376187  1
  O  O185  1  0.09826211  0.21631986  0.97604930  1
  O  O186  1  0.15381980  0.76975209  0.49197724  1
  O  O187  1  0.11806608  0.76051792  1.00617353  1
  O  O188  1  0.62639617  0.26387406  0.48694143  1
  O  O189  1  0.63132507  0.26732321  0.99689617  1
  O  O190  1  0.60691728  0.76178370  0.48819958  1
  O  O191  1  0.61942026  0.73782390  1.00041174  1
  O  O192  1  0.49594388  0.25851764  0.13177936  1
  O  O193  1  0.49489596  0.25428090  0.65110129  1
  O  O194  1  0.49837567  0.75201599  0.13654309  1
  O  O195  1  0.48986936  0.72677415  0.63038309  1
  O  O196  1  0.99369550  0.26373320  0.12151164  1
  O  O197  1  0.99329447  0.25115488  0.64771004  1
  O  O198  1  0.98221361  0.74661284  0.13428518  1
  O  O199  1  0.98852287  0.73179157  0.61780244  1
  O  O200  1  -0.02039495  0.23017122  0.34938621  1
  O  O201  1  -0.01683980  0.28388966  0.83965800  1
  O  O202  1  0.02762839  0.77008131  0.39222940  1
  O  O203  1  -0.01406272  0.75458310  0.87540211  1
  O  O204  1  0.49726662  0.26437564  0.36672450  1
  O  O205  1  0.52135830  0.25159765  0.87902940  1
  O  O206  1  0.50753866  0.75211773  0.36195681  1
  O  O207  1  0.51694538  0.74825631  0.86228541  1
  O  O208  1  0.23617347  0.13760507  0.48173802  1
  O  O209  1  0.25236293  0.07091690  0.95765644  1
  O  O210  1  0.25126642  0.62105281  0.48631573  1
  O  O211  1  0.22550051  0.63975739  1.01184739  1
  O  O212  1  0.73437793  0.14687727  0.52837136  1
  O  O213  1  0.77025083  0.14658025  1.03277157  1
  O  O214  1  0.73229908  0.62994097  0.48843935  1
  O  O215  1  0.73359767  0.62399564  0.98506829  1
  O  O216  1  0.23928245  0.34524332  -0.04057055  1
  O  O217  1  0.23945859  0.37784611  0.51534702  1
  O  O218  1  0.27088687  0.86281288  0.00181529  1
  O  O219  1  0.26639226  0.88102432  0.50305634  1
  O  O220  1  0.75140101  0.38005649  0.02302041  1
  O  O221  1  0.75161846  0.34433158  0.52800279  1
  O  O222  1  0.75216671  0.86939746  0.01816355  1
  O  O223  1  0.77864403  0.89886536  0.49546637  1
  O  O224  1  0.13496000  0.51877309  0.24603356  1
  O  O225  1  0.12883209  0.51368041  0.77266846  1
  O  O226  1  0.13116069  0.98399599  0.24815586  1
  O  O227  1  0.12867351  0.98983531  0.75910797  1
  O  O228  1  0.60243123  0.52009170  0.23416457  1
  O  O229  1  0.63997780  0.48391479  0.76289433  1
  O  O230  1  0.62167585  0.99125074  0.23937063  1
  O  O231  1  0.69419142  1.07479811  0.75007608  1
  O  O232  1  0.38097487  0.01922695  0.25048392  1
  O  O233  1  0.33355211  0.01332540  0.71008808  1
  O  O234  1  0.36006183  0.51728903  0.24671434  1
  O  O235  1  0.37349360  0.46267673  0.79640293  1
  O  O236  1  0.85759353  0.00179388  0.23148985  1
  O  O237  1  0.86570694  -0.00130884  0.75825148  1
  O  O238  1  0.79988300  0.50603647  0.29123475  1
  O  O239  1  0.85741445  0.52446896  0.74038693  1
  O  O240  1  0.13257211  0.35968704  0.35200694  1
  O  O241  1  0.07586669  0.37093156  0.90726931  1
  O  O242  1  0.13409921  0.87729207  0.37049330  1
  O  O243  1  0.10311909  0.86301308  0.85809243  1
  O  O244  1  0.65337519  0.34713396  0.35834471  1
  O  O245  1  0.64963654  0.36431320  0.86832438  1
  O  O246  1  0.61677972  0.87373837  0.35879635  1
  O  O247  1  0.62577585  0.85302068  0.88017957  1
  O  O248  1  0.36188454  0.12771071  0.13411566  1
  O  O249  1  0.36452823  0.16739143  0.62844185  1
  O  O250  1  0.36874516  0.63190238  0.13606130  1
  O  O251  1  0.37631980  0.63247703  0.60818102  1
  O  O252  1  0.91769153  0.10862601  0.09468548  1
  O  O253  1  0.89760612  0.12468372  0.60789564  1
  O  O254  1  0.87767003  0.64335899  0.13362850  1
  O  O255  1  0.86395802  0.64073177  0.62892736  1
  O  O256  1  0.25993782  0.25147951  0.11986150  1
  O  O257  1  0.26931064  0.28271847  0.63843877  1
  O  O258  1  0.24971302  0.76554181  0.13234908  1
  O  O259  1  0.26956184  0.75217553  0.60999296  1
  O  O260  1  0.78677772  0.20126853  0.09668003  1
  O  O261  1  0.76856818  0.25266770  0.67029191  1
  O  O262  1  0.75575203  0.76022495  0.13905786  1
  O  O263  1  0.76158141  0.75842660  0.61533657  1
  O  O264  1  0.27196764  0.24589916  0.37501686  1
  O  O265  1  0.24497105  0.19554868  0.84512682  1
  O  O266  1  0.25593813  0.74846302  0.38951303  1
  O  O267  1  0.23251434  0.73048919  0.85394093  1
  O  O268  1  0.74045403  0.22394238  0.38046901  1
  O  O269  1  0.75053584  0.24091122  0.86042445  1
  O  O270  1  0.72247533  0.76953207  0.37322850  1
  O  O271  1  0.72772973  0.73666059  0.86098434  1
  O  O272  1  0.06470440  0.14807654  -0.04619240  1
  O  O273  1  0.02205546  0.11200094  0.49902161  1
  O  O274  1  0.00351533  0.62670945  0.01684679  1
  O  O275  1  0.03930601  0.63891840  0.49833747  1
  O  O276  1  0.43516427  0.08245485  -0.08050870  1
  O  O277  1  0.56906162  0.08987664  0.53375374  1
  O  O278  1  0.51017420  0.62450638  -0.00300899  1
  O  O279  1  0.51919273  0.61596759  0.49619122  1
  O  O280  1  0.52168723  0.39418740  0.51852637  1
  O  O281  1  0.49946790  0.39427179  0.99400462  1
  O  O282  1  0.47728643  0.98309744  0.58039295  1
  O  O283  1  0.49953486  0.87787030  0.97692138  1
  O  O284  1  0.96711190  0.35722801  0.48879651  1
  O  O285  1  0.98524748  0.40986881  1.03233967  1
  O  O286  1  1.02274201  0.88957411  0.50201448  1
  O  O287  1  0.97789531  0.86463296  0.99604094  1
  O  O288  1  0.47652457  0.50276571  0.36704281  1
  O  O289  1  0.48426029  0.51244611  0.88861101  1
  O  O290  1  0.48795257  1.01509111  0.37002115  1
  O  O291  1  0.55121993  0.99228990  0.87390897  1
  O  O292  1  1.01607679  0.50180194  0.39692230  1
  O  O293  1  1.00045595  0.50869136  0.90072945  1
  O  O294  1  1.01564177  0.99015322  0.38985552  1
  O  O295  1  0.97353607  0.96987261  0.87041600  1
  O  O296  1  0.02229724  -0.02258865  0.12871812  1
  O  O297  1  0.01766750  -0.00231735  0.62278131  1
  O  O298  1  0.00636638  0.52611613  0.12499133  1
  O  O299  1  -0.00872379  0.54118123  0.61457220  1
  O  O300  1  0.51905469  -0.00136287  0.12000926  1
  O  O301  1  0.49340246  0.00102963  0.64866070  1
  O  O302  1  0.50297144  0.50479129  0.10901170  1
  O  O303  1  0.49319142  0.45206719  0.55359804  1
  O  O304  1  0.23416989  0.39921962  0.24322803  1
  O  O305  1  0.23303378  0.39015841  0.74880253  1
  O  O306  1  0.25200698  0.87730764  0.24886182  1
  O  O307  1  0.24867286  0.88188606  0.77834452  1
  O  O308  1  0.73669856  0.31422671  0.19338090  1
  O  O309  1  0.75843511  0.39174462  0.75023444  1
  O  O310  1  0.72631493  0.88152146  0.23831929  1
  O  O311  1  0.73774589  0.89433175  0.73956780  1
  O  O312  1  0.25812483  0.13951564  0.25383092  1
  O  O313  1  0.26443245  0.15413850  0.77799320  1
  O  O314  1  0.26136564  0.63239436  0.25678143  1
  O  O315  1  0.26857997  0.58880889  0.74043300  1
  O  O316  1  0.73877559  0.11046648  0.24683315  1
  O  O317  1  0.87216867  0.14353999  0.67340711  1
  O  O318  1  0.75875349  0.63478627  0.27160737  1
  O  O319  1  0.74326702  0.61715700  0.75088328  1
  O  O320  1  0.36760973  0.12863855  0.35733463  1
  O  O321  1  0.29258260  0.19164329  0.90350113  1
  O  O322  1  0.36523482  0.62327202  0.36939261  1
  O  O323  1  0.36978218  0.62037912  0.87192409  1
  O  O324  1  0.85596535  0.09153366  0.43241882  1
  O  O325  1  0.87741460  0.10066656  0.89138773  1
  O  O326  1  0.87587209  0.62484862  0.41946716  1
  O  O327  1  0.85228244  0.64063972  0.86085316  1
  O  O328  1  0.11662857  0.40872866  0.14197142  1
  O  O329  1  0.12145226  0.36869454  0.61960361  1
  O  O330  1  0.13239120  0.86882816  0.14644274  1
  O  O331  1  0.12586320  0.84628083  0.67185933  1
  O  O332  1  0.62587723  0.40191135  0.12484910  1
  O  O333  1  0.64969435  0.35879896  0.65341580  1
  O  O334  1  0.62998930  0.86932632  0.12388771  1
  O  O335  1  0.61366747  0.89072584  0.60232125  1
  O  O336  1  0.11461330  0.25616618  0.22891502  1
  O  O337  1  0.11260194  0.24419249  0.75888379  1
  O  O338  1  0.13649882  0.76945865  0.27384966  1
  O  O339  1  0.18758755  0.73033967  0.79589789  1
  O  O340  1  0.60169824  0.24598915  0.25618959  1
  O  O341  1  0.61884183  0.25593551  0.76830881  1
  O  O342  1  0.60897491  0.75980032  0.25055306  1
  O  O343  1  0.61993976  0.75003382  0.74033637  1
  O  O344  1  0.38219225  0.24864228  0.23211194  1
  O  O345  1  0.40230478  0.25959506  0.78161242  1
  O  O346  1  0.38395054  0.74597477  0.25499233  1
  O  O347  1  0.36065297  0.72846540  0.74380129  1
  O  O348  1  0.89076185  0.22516938  0.21404377  1
  O  O349  1  0.91334525  0.25728871  0.79937558  1
  O  O350  1  0.87098325  0.76255016  0.25029911  1
  O  O351  1  0.85954276  0.74310118  0.73564227  1
  O  O352  1  0.36285985  0.49664535  0.48111698  1
  O  O353  1  0.37830347  0.50981711  0.99201542  1
  O  O354  1  0.37418053  1.02748299  0.48312685  1
  O  O355  1  0.37972920  0.97304814  1.00713876  1
  O  O356  1  0.85153918  0.46908561  0.50287256  1
  O  O357  1  0.88028397  0.52812526  1.00976649  1
  O  O358  1  0.90835532  0.98445300  0.51677265  1
  O  O359  1  0.86182532  0.97403969  0.99007346  1
  O  O360  1  0.12479022  -0.04440262  0.01059093  1
  O  O361  1  0.13135692  0.01582219  0.50572708  1
  O  O362  1  0.12030720  0.51528130  0.01833553  1
  O  O363  1  0.05978713  0.48248098  0.45281737  1
  O  O364  1  0.64074804  0.00423178  0.01268549  1
  O  O365  1  0.59137859  -0.08383349  0.53728362  1
  O  O366  1  0.60909909  0.51215138  -0.00089475  1
  O  O367  1  0.63690160  0.50072600  0.48060175  1
  O  O368  1  0.36821426  0.36748860  0.12327068  1
  O  O369  1  0.38771524  0.37089383  0.65400681  1
  O  O370  1  0.37097509  0.87292527  0.12889758  1
  O  O371  1  0.40287707  0.84381668  0.65346541  1
  O  O372  1  0.85222195  0.41019183  0.14681167  1
  O  O373  1  0.86428467  0.37713978  0.63219315  1
  O  O374  1  0.86643093  0.86396836  0.12123911  1
  O  O375  1  0.88687345  0.86351045  0.61954936  1
  O  O376  1  0.14038683  0.13085041  0.36548381  1
  O  O377  1  0.10812269  0.10785335  0.90304395  1
  O  O378  1  0.14430595  0.65038330  0.37072226  1
  O  O379  1  0.11107714  0.63715113  0.90320994  1
  O  O380  1  0.60698007  0.14808436  0.37614347  1
  O  O381  1  0.63615887  0.14549872  0.89704866  1
  O  O382  1  0.62151183  0.64220381  0.38442902  1
  O  O383  1  0.62482193  0.63483992  0.87400228  1
