# generated using pymatgen
data_VZnO4
_symmetry_space_group_name_H-M   'P 1'
_cell_length_a   16.92837485
_cell_length_b   16.94493983
_cell_length_c   16.94625926
_cell_angle_alpha   90.28074122
_cell_angle_beta   90.42199537
_cell_angle_gamma   89.92443913
_symmetry_Int_Tables_number   1
_chemical_formula_structural   VZnO4
_chemical_formula_sum   'V64 Zn64 O256'
_cell_volume   4860.84524019
_cell_formula_units_Z   64
loop_
 _symmetry_equiv_pos_site_id
 _symmetry_equiv_pos_as_xyz
  1  'x, y, z'
loop_
 _atom_site_type_symbol
 _atom_site_label
 _atom_site_symmetry_multiplicity
 _atom_site_fract_x
 _atom_site_fract_y
 _atom_site_fract_z
 _atom_site_occupancy
  V  V0  1  0.25051829  0.26419879  -0.02238977  1
  V  V1  1  0.37076982  0.25789734  0.63138003  1
  V  V2  1  0.61454955  0.37723093  0.24121869  1
  V  V3  1  0.75798169  0.49514582  0.26823552  1
  V  V4  1  0.23992270  0.12557281  0.40360815  1
  V  V5  1  0.12740978  0.73571772  0.88774521  1
  V  V6  1  -0.00352523  0.87690740  0.89982986  1
  V  V7  1  0.36533116  0.27785213  0.11428892  1
  V  V8  1  0.48263483  0.13859004  0.13679948  1
  V  V9  1  0.50275866  0.60151385  0.61992195  1
  V  V10  1  0.24846260  0.63087903  0.36812327  1
  V  V11  1  0.25225437  0.75263280  0.49973018  1
  V  V12  1  0.12781021  0.87046243  0.75675690  1
  V  V13  1  0.10939679  0.49412032  0.10704078  1
  V  V14  1  0.38342672  0.88633567  0.49651109  1
  V  V15  1  0.25062541  0.01446417  0.25471055  1
  V  V16  1  0.88184349  0.34386981  0.00621825  1
  V  V17  1  0.75372823  0.36986998  0.11992396  1
  V  V18  1  0.24422568  0.49653874  0.23898437  1
  V  V19  1  -0.00533263  0.12345006  0.11833176  1
  V  V20  1  0.11877101  0.36732018  0.25741099  1
  V  V21  1  0.85369850  -0.00545060  0.34638648  1
  V  V22  1  0.51741902  0.86548176  0.87969556  1
  V  V23  1  0.50283257  0.39166950  0.89364856  1
  V  V24  1  0.39840341  0.11772325  0.75527675  1
  V  V25  1  0.88930755  0.09428801  0.73037261  1
  V  V26  1  0.62907506  0.13191681  0.00979835  1
  V  V27  1  0.00390860  0.62406562  0.62111851  1
  V  V28  1  0.12619539  0.63133599  0.50021018  1
  V  V29  1  0.50043435  0.37551375  0.39240355  1
  V  V30  1  0.25280149  0.00361206  0.76159667  1
  V  V31  1  0.39125264  0.74789991  0.12546995  1
  V  V32  1  0.86841880  0.76079749  0.61013769  1
  V  V33  1  0.25158197  0.86878331  0.63213699  1
  V  V34  1  0.11512223  0.76488814  0.36071075  1
  V  V35  1  0.87279139  0.61387099  0.74018475  1
  V  V36  1  0.86994822  0.00281318  0.88940637  1
  V  V37  1  0.65288808  0.47401368  0.62421985  1
  V  V38  1  0.63473375  0.62752126  0.49536097  1
  V  V39  1  0.73798953  0.62239430  0.86330188  1
  V  V40  1  0.39312071  0.74747777  0.63123575  1
  V  V41  1  -0.02049251  -0.00713380  0.46288581  1
  V  V42  1  0.63839533  0.25098719  0.88536726  1
  V  V43  1  0.50240167  0.00103562  0.01368125  1
  V  V44  1  -0.00686770  0.63189219  0.11088055  1
  V  V45  1  0.85621343  0.32354118  0.50148742  1
  V  V46  1  -0.00006410  0.75133496  0.74841668  1
  V  V47  1  -0.01945732  0.24012890  0.25331709  1
  V  V48  1  0.51187954  0.26476969  0.75665033  1
  V  V49  1  0.88780640  0.61522746  0.26494561  1
  V  V50  1  0.23137397  0.87426793  0.12412705  1
  V  V51  1  0.37410662  -0.01126869  0.88698241  1
  V  V52  1  0.12376930  0.00358315  0.61926644  1
  V  V53  1  0.75215382  0.13643393  0.34897785  1
  V  V54  1  -0.00034204  0.49344103  0.48584650  1
  V  V55  1  0.37425046  0.49417132  0.38335789  1
  V  V56  1  0.12515246  0.10942030  -0.00826584  1
  V  V57  1  0.25151759  0.73386288  0.00310689  1
  V  V58  1  -0.01537404  0.37091228  0.83481290  1
  V  V59  1  0.87525777  0.50348442  0.89420848  1
  V  V60  1  0.70661693  0.23021597  0.50383453  1
  V  V61  1  0.14075075  0.49842365  0.63703984  1
  V  V62  1  0.37076914  0.61730853  0.75875593  1
  V  V63  1  0.38922442  0.62702771  0.24522453  1
  Zn  Zn64  1  0.18881214  0.18619548  0.16389562  1
  Zn  Zn65  1  0.19652551  0.17957464  0.68928610  1
  Zn  Zn66  1  0.17591884  0.68277015  0.17890413  1
  Zn  Zn67  1  0.18999110  0.68354470  0.69405747  1
  Zn  Zn68  1  0.67856220  0.19756123  0.18251224  1
  Zn  Zn69  1  0.69394029  0.29749734  0.69392269  1
  Zn  Zn70  1  0.75392751  0.71511977  0.22409447  1
  Zn  Zn71  1  0.68982914  0.68412961  0.66951730  1
  Zn  Zn72  1  0.26815624  0.27723010  0.28449130  1
  Zn  Zn73  1  0.33644455  0.30363876  0.83437406  1
  Zn  Zn74  1  0.33956113  0.84314527  0.29109379  1
  Zn  Zn75  1  0.31901748  0.80300238  0.82214652  1
  Zn  Zn76  1  0.80868637  0.31559267  0.32322905  1
  Zn  Zn77  1  0.83161803  0.28456574  0.82382306  1
  Zn  Zn78  1  0.93152382  0.81424729  0.28943798  1
  Zn  Zn79  1  0.82126815  0.81366370  0.81306486  1
  Zn  Zn80  1  0.17311612  0.45077122  0.42968190  1
  Zn  Zn81  1  0.14713799  0.38663736  0.94579308  1
  Zn  Zn82  1  0.19990170  0.94001199  0.43388790  1
  Zn  Zn83  1  0.19057386  0.92119326  0.94804678  1
  Zn  Zn84  1  0.68461730  0.43271764  0.44512397  1
  Zn  Zn85  1  0.69925110  0.43642307  0.92815014  1
  Zn  Zn86  1  0.65407007  1.04239734  0.43954866  1
  Zn  Zn87  1  0.68922593  0.95553063  0.94253494  1
  Zn  Zn88  1  0.29953384  0.07193864  0.05914600  1
  Zn  Zn89  1  0.31139812  0.06432644  0.57363455  1
  Zn  Zn90  1  0.30938479  0.55970211  0.06435280  1
  Zn  Zn91  1  0.31324875  0.56419805  0.56547624  1
  Zn  Zn92  1  0.84171319  0.13245178  0.01393708  1
  Zn  Zn93  1  0.84067166  0.10130537  0.52546675  1
  Zn  Zn94  1  0.80976851  0.54957081  0.08472249  1
  Zn  Zn95  1  0.81633598  0.56111682  0.54995227  1
  Zn  Zn96  1  0.39828410  0.39101546  0.23084975  1
  Zn  Zn97  1  0.43432195  0.43764007  0.69871102  1
  Zn  Zn98  1  0.39523447  0.96059052  0.16085205  1
  Zn  Zn99  1  0.43886123  0.91400531  0.70858287  1
  Zn  Zn100  1  0.93948311  0.43100643  0.18931750  1
  Zn  Zn101  1  0.83240566  0.41502698  0.68147357  1
  Zn  Zn102  1  0.91632561  0.96677085  0.16940096  1
  Zn  Zn103  1  0.94017796  0.93477814  0.68464931  1
  Zn  Zn104  1  0.07114922  0.06305348  0.30189488  1
  Zn  Zn105  1  0.06105605  0.05552111  0.81113132  1
  Zn  Zn106  1  0.06744768  0.56744101  0.30857228  1
  Zn  Zn107  1  0.05516115  0.55613937  0.81451767  1
  Zn  Zn108  1  0.55928327  0.19766345  0.32239527  1
  Zn  Zn109  1  0.56263504  0.06143871  0.83178916  1
  Zn  Zn110  1  0.56509458  0.55066518  0.31348768  1
  Zn  Zn111  1  0.56000240  0.55750400  0.79247488  1
  Zn  Zn112  1  0.38591717  0.23157894  0.41911672  1
  Zn  Zn113  1  0.43854179  0.18682783  0.93913562  1
  Zn  Zn114  1  0.43893080  0.68121945  0.43548603  1
  Zn  Zn115  1  0.44353844  0.68348501  0.94334182  1
  Zn  Zn116  1  0.95537071  0.16910898  0.42484311  1
  Zn  Zn117  1  0.98209666  0.17537510  0.89914985  1
  Zn  Zn118  1  0.94175479  0.69400548  0.43344278  1
  Zn  Zn119  1  0.93112611  0.69149553  0.93239832  1
  Zn  Zn120  1  0.06783867  0.30389583  0.07395285  1
  Zn  Zn121  1  0.00502735  0.37618912  0.62318296  1
  Zn  Zn122  1  0.02713630  0.84104976  0.11402067  1
  Zn  Zn123  1  0.05895426  0.82145565  0.55793449  1
  Zn  Zn124  1  0.55862323  0.31558086  0.06606514  1
  Zn  Zn125  1  0.54569986  0.30733109  0.56764825  1
  Zn  Zn126  1  0.55716605  0.79360350  0.03914926  1
  Zn  Zn127  1  0.54783315  0.79907228  0.46104987  1
  O  O128  1  0.11748448  0.12624846  0.10174500  1
  O  O129  1  0.13510185  0.10187920  0.63815434  1
  O  O130  1  0.10829067  0.60435073  0.12620122  1
  O  O131  1  0.12198781  0.63016801  0.61483418  1
  O  O132  1  0.60251299  0.14221317  0.11537227  1
  O  O133  1  0.69163919  0.05192502  0.64090319  1
  O  O134  1  0.67303276  0.69930243  0.13088464  1
  O  O135  1  0.61442651  0.61608427  0.61826422  1
  O  O136  1  0.38009457  0.38983839  0.36042252  1
  O  O137  1  0.40334416  0.38496860  0.86945380  1
  O  O138  1  0.36402061  0.86687746  0.39959689  1
  O  O139  1  0.38899183  0.88275496  0.87820883  1
  O  O140  1  0.88151215  0.35537640  0.41087706  1
  O  O141  1  0.87138279  0.39149084  0.89847970  1
  O  O142  1  0.86329858  0.89346766  0.34804965  1
  O  O143  1  0.89032534  0.87894235  0.87728342  1
  O  O144  1  0.25271754  0.01782505  0.36899823  1
  O  O145  1  0.26721074  -0.01860121  0.87398728  1
  O  O146  1  0.25214524  0.51268173  0.36635107  1
  O  O147  1  0.23521114  0.44167944  0.81153340  1
  O  O148  1  0.74951193  0.01709843  0.36689854  1
  O  O149  1  0.76929225  -0.01027659  0.87372167  1
  O  O150  1  0.75602246  0.47943198  0.36837552  1
  O  O151  1  0.76546904  0.51216299  0.86633788  1
  O  O152  1  0.23534757  0.50878575  0.13516350  1
  O  O153  1  0.24096504  0.50194677  0.62200743  1
  O  O154  1  0.27098356  0.98075409  0.12915500  1
  O  O155  1  0.24751322  0.98373515  0.64472905  1
  O  O156  1  0.75310027  0.47771228  0.14884835  1
  O  O157  1  0.75713065  0.48429758  0.61878057  1
  O  O158  1  0.77037481  0.92719017  0.08157472  1
  O  O159  1  0.68614215  0.99258608  0.59595535  1
  O  O160  1  0.01324606  0.35766007  0.24980002  1
  O  O161  1  -0.02915091  0.38299092  0.73631439  1
  O  O162  1  -0.03085729  0.87361240  0.20326682  1
  O  O163  1  0.01356691  0.86281078  0.75161860  1
  O  O164  1  0.51372372  0.39189366  0.24438671  1
  O  O165  1  0.50998059  0.36589956  0.75974847  1
  O  O166  1  0.55831413  0.87061423  0.20752664  1
  O  O167  1  0.50351939  0.85154860  0.78111482  1
  O  O168  1  0.49998687  0.13978029  0.23466610  1
  O  O169  1  0.49955458  0.12027549  0.75337304  1
  O  O170  1  0.48642166  0.61122933  0.25098930  1
  O  O171  1  0.49236393  0.62434728  0.72675882  1
  O  O172  1  1.00479740  0.13161026  0.23476192  1
  O  O173  1  0.98723399  0.11980333  0.74858849  1
  O  O174  1  0.98973196  0.61252881  0.24041779  1
  O  O175  1  0.99107140  0.63321022  0.74116455  1
  O  O176  1  0.36187793  0.24573725  0.00058335  1
  O  O177  1  0.38405298  0.23855299  0.53325555  1
  O  O178  1  0.36284883  0.73269837  0.01647959  1
  O  O179  1  0.36513824  0.75215303  0.51540740  1
  O  O180  1  0.86242087  0.24797280  -0.01020010  1
  O  O181  1  0.88003105  0.22251773  0.50532290  1
  O  O182  1  0.82575324  0.73611542  -0.04616329  1
  O  O183  1  0.88253344  0.74755518  0.51128601  1
  O  O184  1  0.20384748  0.30335554  0.51376441  1
  O  O185  1  0.14154705  0.27002135  0.99407367  1
  O  O186  1  0.13208798  0.74726449  0.49333722  1
  O  O187  1  0.13192252  0.74509228  0.98840372  1
  O  O188  1  0.60802667  0.24077182  0.49304292  1
  O  O189  1  0.61816435  0.24204255  0.99480158  1
  O  O190  1  0.62190361  0.72898883  0.50545684  1
  O  O191  1  0.66967196  0.74657215  1.07114050  1
  O  O192  1  0.47783569  0.24571324  0.11217471  1
  O  O193  1  0.49584209  0.24838916  0.65186501  1
  O  O194  1  0.48967493  0.73932181  0.11487677  1
  O  O195  1  0.48970367  0.75099616  0.62503413  1
  O  O196  1  1.01179694  0.24250307  0.14719296  1
  O  O197  1  1.04308878  0.24916301  0.65841963  1
  O  O198  1  1.01115687  0.72783027  0.13095789  1
  O  O199  1  1.00122994  0.74339901  0.63074493  1
  O  O200  1  0.00985648  0.23359917  0.35141172  1
  O  O201  1  -0.05317900  0.27171724  0.84693320  1
  O  O202  1  0.00918127  0.76202063  0.36777903  1
  O  O203  1  0.00652480  0.75828109  0.86902802  1
  O  O204  1  0.48275279  0.27100758  0.37082224  1
  O  O205  1  0.50647166  0.25865314  0.87050117  1
  O  O206  1  0.49282610  0.75549075  0.37507402  1
  O  O207  1  0.51823859  0.76975240  0.92960081  1
  O  O208  1  0.24146533  0.12116370  0.50390337  1
  O  O209  1  0.22926417  0.13463196  0.99381574  1
  O  O210  1  0.24441642  0.63436246  0.49341544  1
  O  O211  1  0.24558726  0.63383916  1.00209160  1
  O  O212  1  0.73274464  0.12570243  0.48839716  1
  O  O213  1  0.72782964  0.12182619  1.01807079  1
  O  O214  1  0.73603626  0.62319660  0.50493798  1
  O  O215  1  0.72951988  0.61881660  0.97425907  1
  O  O216  1  0.25837167  0.36620390  -0.02967369  1
  O  O217  1  0.23873861  0.36727677  0.50742711  1
  O  O218  1  0.25543334  0.85577176  0.01426821  1
  O  O219  1  0.25555937  0.86607361  0.51527932  1
  O  O220  1  0.75997836  0.38384641  0.01386964  1
  O  O221  1  0.74996930  0.33966250  0.49794493  1
  O  O222  1  0.73581004  0.88309032  0.02386339  1
  O  O223  1  0.76756388  0.88461333  0.49088034  1
  O  O224  1  0.13342129  0.49075109  0.24901869  1
  O  O225  1  0.12642087  0.52451081  0.73441371  1
  O  O226  1  0.15182528  0.99206682  0.25232966  1
  O  O227  1  0.13592926  0.98419033  0.75601731  1
  O  O228  1  0.64219259  0.48613636  0.25790066  1
  O  O229  1  0.62934466  0.49978168  0.71882395  1
  O  O230  1  0.52287818  0.95891498  0.33505917  1
  O  O231  1  0.59494955  0.98562451  0.73400483  1
  O  O232  1  0.34943575  -0.03757736  0.26327594  1
  O  O233  1  0.37489868  -0.00036264  0.76199561  1
  O  O234  1  0.35779279  0.51049636  0.25354516  1
  O  O235  1  0.38034637  0.51642591  0.75642343  1
  O  O236  1  0.85433137  0.01618174  0.24888987  1
  O  O237  1  0.88141082  -0.00667249  0.76237085  1
  O  O238  1  0.87021296  0.49822589  0.25381941  1
  O  O239  1  0.87358043  0.51564605  0.73213370  1
  O  O240  1  0.13441246  0.37468093  0.35683266  1
  O  O241  1  0.08294147  0.36609458  0.85345229  1
  O  O242  1  0.14077273  0.86037490  0.37564135  1
  O  O243  1  0.11527291  0.86291924  0.87248182  1
  O  O244  1  0.60322077  0.38350659  0.37289636  1
  O  O245  1  0.62363222  0.35895112  0.88785108  1
  O  O246  1  0.58007768  0.94006771  0.37754836  1
  O  O247  1  0.61547272  0.88781828  0.88651768  1
  O  O248  1  0.38062937  0.12896088  0.12261889  1
  O  O249  1  0.37264741  0.12245454  0.65333368  1
  O  O250  1  0.36780277  0.62972853  0.14100224  1
  O  O251  1  0.38445869  0.63288473  0.62692339  1
  O  O252  1  0.89416928  0.13744388  0.11468976  1
  O  O253  1  0.87808330  0.08274786  0.63075698  1
  O  O254  1  0.88649557  0.61738699  0.13406266  1
  O  O255  1  0.88466964  0.63520330  0.62973307  1
  O  O256  1  0.26110394  0.25484872  0.10223325  1
  O  O257  1  0.27123183  0.25022938  0.65388961  1
  O  O258  1  0.24184491  0.75025838  0.11229631  1
  O  O259  1  0.24929644  0.75619235  0.61790167  1
  O  O260  1  0.74712882  0.27013596  0.12772730  1
  O  O261  1  0.72139173  0.23034492  0.60349373  1
  O  O262  1  0.72713329  0.83772085  0.21881072  1
  O  O263  1  0.76933166  0.74818145  0.62326517  1
  O  O264  1  0.26915735  0.23653763  0.38862235  1
  O  O265  1  0.25581718  0.23978813  0.87725335  1
  O  O266  1  0.24632671  0.74041857  0.38597179  1
  O  O267  1  0.23859168  0.75242091  0.88828635  1
  O  O268  1  0.74837533  0.23722982  0.38678178  1
  O  O269  1  0.73690879  0.24760754  0.88212683  1
  O  O270  1  0.67284313  0.80622460  0.35150183  1
  O  O271  1  0.77565858  0.72883535  0.88609150  1
  O  O272  1  0.01221407  0.14501636  0.00926140  1
  O  O273  1  0.00695485  0.08768559  0.49132328  1
  O  O274  1  -0.01216745  0.63233658  0.00966334  1
  O  O275  1  0.01333893  0.62901030  0.50412616  1
  O  O276  1  0.50235107  0.11749369  0.00785302  1
  O  O277  1  0.49203785  0.10009616  0.52739230  1
  O  O278  1  0.51409919  0.60568753  0.00578224  1
  O  O279  1  0.49880359  0.62394804  0.51697542  1
  O  O280  1  0.49474447  0.37591981  0.49087479  1
  O  O281  1  0.50667976  0.38466950  0.99379772  1
  O  O282  1  0.48436387  0.87841514  0.50979486  1
  O  O283  1  0.50792865  0.89887462  1.01201226  1
  O  O284  1  1.01660116  0.39608661  0.50584757  1
  O  O285  1  0.98218980  0.35316641  1.00481258  1
  O  O286  1  1.01118523  0.89962685  0.49322708  1
  O  O287  1  1.00075011  0.86344190  0.99742768  1
  O  O288  1  0.48138257  0.49211338  0.37430018  1
  O  O289  1  0.53097107  0.48782198  0.87458496  1
  O  O290  1  0.50687308  1.07339658  0.46121271  1
  O  O291  1  0.49365903  0.98608055  0.88879346  1
  O  O292  1  1.02091882  0.50201525  0.38789616  1
  O  O293  1  0.97844454  0.48548255  0.86244528  1
  O  O294  1  0.98251980  1.00242508  0.35780805  1
  O  O295  1  0.99940754  0.97836570  0.88016004  1
  O  O296  1  0.00046965  0.02166903  0.11865693  1
  O  O297  1  0.02512262  -0.01327480  0.63182282  1
  O  O298  1  0.00534715  0.49971783  0.12095011  1
  O  O299  1  0.01353071  0.51969329  0.61392271  1
  O  O300  1  0.48633845  0.01545483  0.11853207  1
  O  O301  1  0.54325663  -0.02516929  0.67935972  1
  O  O302  1  0.47100716  0.54714260  0.03371442  1
  O  O303  1  0.49500851  0.50144634  0.62060299  1
  O  O304  1  0.25031880  0.39573800  0.25063327  1
  O  O305  1  0.25500455  0.38732201  0.76677113  1
  O  O306  1  0.24476932  0.85459320  0.22364792  1
  O  O307  1  0.24524772  0.87184397  0.75041296  1
  O  O308  1  0.74493950  0.37714298  0.24825091  1
  O  O309  1  0.77507169  0.35050278  0.75073269  1
  O  O310  1  0.70505250  0.87698776  0.27778767  1
  O  O311  1  0.71264088  0.83777266  0.75998641  1
  O  O312  1  0.25494707  0.11217108  0.23031108  1
  O  O313  1  0.25415984  0.10457185  0.76160910  1
  O  O314  1  0.24622935  0.61809564  0.25766129  1
  O  O315  1  0.26986614  0.62834917  0.74755359  1
  O  O316  1  0.75333428  0.14553789  0.25059264  1
  O  O317  1  0.77975493  0.12552264  0.75924431  1
  O  O318  1  0.76430384  0.60137601  0.25326205  1
  O  O319  1  0.76765704  0.63700180  0.75130239  1
  O  O320  1  0.34690509  0.13359830  0.37175255  1
  O  O321  1  0.38629374  0.10398182  0.86465879  1
  O  O322  1  0.36677246  0.61624033  0.36381053  1
  O  O323  1  0.38924133  0.64662903  0.85398904  1
  O  O324  1  0.85762959  0.11705971  0.37517613  1
  O  O325  1  0.88904961  0.10537102  0.86747294  1
  O  O326  1  0.89167228  0.61786393  0.36488458  1
  O  O327  1  0.87963518  0.61106633  0.85525098  1
  O  O328  1  0.12018947  0.39143280  0.13973702  1
  O  O329  1  0.11810569  0.40072358  0.63395375  1
  O  O330  1  0.13351260  0.88307857  0.11276746  1
  O  O331  1  0.13653845  0.87322741  0.63975220  1
  O  O332  1  0.63305407  0.37518479  0.13493969  1
  O  O333  1  0.63006131  0.37182740  0.62240804  1
  O  O334  1  0.60207936  0.86636270  0.14929913  1
  O  O335  1  0.70857817  0.85311684  0.51705178  1
  O  O336  1  0.15607737  0.27029696  0.24042670  1
  O  O337  1  0.09422359  0.25150865  0.71276397  1
  O  O338  1  0.12860456  0.74426147  0.26424173  1
  O  O339  1  0.12042439  0.75347307  0.75966203  1
  O  O340  1  0.62139548  0.27209975  0.25504263  1
  O  O341  1  0.61700257  0.24422405  0.76843574  1
  O  O342  1  0.68107864  0.73852234  0.32169738  1
  O  O343  1  0.66268993  0.78120297  0.75157966  1
  O  O344  1  0.36336016  0.27341168  0.22242615  1
  O  O345  1  0.39487264  0.23266490  0.75901995  1
  O  O346  1  0.37709844  0.73576564  0.24089919  1
  O  O347  1  0.37176437  0.74768643  0.73344802  1
  O  O348  1  0.88234539  0.25631366  0.25477619  1
  O  O349  1  0.82321060  0.19022608  0.73795004  1
  O  O350  1  0.86452703  0.72241005  0.25328608  1
  O  O351  1  0.88860732  0.74634480  0.74280859  1
  O  O352  1  0.36053209  0.50087726  0.48122182  1
  O  O353  1  0.40012886  0.53836404  0.99445937  1
  O  O354  1  0.36552651  0.98385815  0.51399518  1
  O  O355  1  0.38288601  1.00795303  0.99005492  1
  O  O356  1  0.90031204  0.51074210  0.49736995  1
  O  O357  1  0.87438157  0.51844785  0.99064077  1
  O  O358  1  0.87623610  0.99807650  0.47420445  1
  O  O359  1  0.87365657  1.01642002  0.98881058  1
  O  O360  1  0.12955952  0.00991093  -0.01380795  1
  O  O361  1  0.14313180  -0.01097977  0.52158899  1
  O  O362  1  0.12233023  0.48107604  0.00854265  1
  O  O363  1  0.12435902  0.51743776  0.50980169  1
  O  O364  1  0.61011348  0.01838092  0.00262980  1
  O  O365  1  0.62499854  -0.00696881  0.53914994  1
  O  O366  1  0.70621003  0.54983603  0.00853754  1
  O  O367  1  0.63025532  0.50122861  0.52187326  1
  O  O368  1  0.37663921  0.37695684  0.11019055  1
  O  O369  1  0.38042109  0.35784072  0.64120175  1
  O  O370  1  0.37664853  0.84855574  0.13077750  1
  O  O371  1  0.36966895  0.86337014  0.62714737  1
  O  O372  1  0.86897763  0.37130283  0.11277987  1
  O  O373  1  0.89001043  0.36700868  0.59209731  1
  O  O374  1  0.83403429  0.89357136  0.11163551  1
  O  O375  1  0.88181463  0.85956611  0.62612063  1
  O  O376  1  0.14462118  0.12879239  0.36675825  1
  O  O377  1  0.09473682  0.13426159  0.88880710  1
  O  O378  1  0.13101885  0.63736431  0.38253964  1
  O  O379  1  0.11235216  0.63846655  0.87189717  1
  O  O380  1  0.63902338  0.12307090  0.35949163  1
  O  O381  1  0.61909497  0.13669216  0.89428615  1
  O  O382  1  0.61326334  0.60672540  0.39900248  1
  O  O383  1  0.64201012  0.62909256  0.84342628  1
