# generated using pymatgen
data_VZnO4
_symmetry_space_group_name_H-M   'P 1'
_cell_length_a   17.05753772
_cell_length_b   16.97877320
_cell_length_c   17.03534121
_cell_angle_alpha   90.66831428
_cell_angle_beta   90.04782826
_cell_angle_gamma   90.43767408
_symmetry_Int_Tables_number   1
_chemical_formula_structural   VZnO4
_chemical_formula_sum   'V64 Zn64 O256'
_cell_volume   4933.22680788
_cell_formula_units_Z   64
loop_
 _symmetry_equiv_pos_site_id
 _symmetry_equiv_pos_as_xyz
  1  'x, y, z'
loop_
 _atom_site_type_symbol
 _atom_site_label
 _atom_site_symmetry_multiplicity
 _atom_site_fract_x
 _atom_site_fract_y
 _atom_site_fract_z
 _atom_site_occupancy
  V  V0  1  0.12040971  0.87410156  0.76209753  1
  V  V1  1  0.53742214  0.13207621  0.12492277  1
  V  V2  1  0.86126355  0.14206159  0.26955957  1
  V  V3  1  0.12823291  0.13209919  0.52056006  1
  V  V4  1  0.26541221  0.62317901  0.85972911  1
  V  V5  1  0.13297997  0.25034131  0.88743906  1
  V  V6  1  0.36874143  0.75271222  0.63565421  1
  V  V7  1  0.49228578  0.37626993  0.37674956  1
  V  V8  1  0.88508698  0.61636775  0.23036216  1
  V  V9  1  0.13446556  0.50003985  0.13747015  1
  V  V10  1  0.10721244  0.64014115  0.50953877  1
  V  V11  1  0.13387785  0.13062931  0.00743558  1
  V  V12  1  0.37924855  0.39477937  -0.01123767  1
  V  V13  1  0.34811664  0.74059275  0.12985128  1
  V  V14  1  0.00768002  0.24157384  0.75329422  1
  V  V15  1  0.88073985  0.25278729  0.12457689  1
  V  V16  1  0.59358727  0.62896126  0.51887636  1
  V  V17  1  0.75080408  0.61966084  0.38118641  1
  V  V18  1  0.49043514  -0.01050256  0.01288088  1
  V  V19  1  0.86931352  0.25483560  0.62516884  1
  V  V20  1  0.63761319  0.38006886  0.25439768  1
  V  V21  1  0.74687066  0.74018674  0.52161639  1
  V  V22  1  -0.02625554  0.00062012  0.50506315  1
  V  V23  1  0.64100196  0.11704732  -0.01970825  1
  V  V24  1  0.00991322  0.51090107  0.00378181  1
  V  V25  1  0.49864936  0.25755067  0.23949903  1
  V  V26  1  0.74400845  0.75923656  0.01420845  1
  V  V27  1  0.11388902  0.76655191  0.36038543  1
  V  V28  1  -0.00633758  0.39002416  0.37456280  1
  V  V29  1  0.00411359  0.27358048  0.25068213  1
  V  V30  1  0.01072241  0.38062284  0.87293410  1
  V  V31  1  0.39419867  0.61851345  0.25707144  1
  V  V32  1  -0.02769913  0.86883567  0.35591049  1
  V  V33  1  0.24655035  0.76539922  0.49689946  1
  V  V34  1  0.86777961  0.01065646  0.87638250  1
  V  V35  1  -0.01634267  0.50272368  0.50368682  1
  V  V36  1  0.61174841  0.51055429  0.11167263  1
  V  V37  1  0.53451852  0.36796017  0.88584387  1
  V  V38  1  0.14542509  0.63669061  -0.00017380  1
  V  V39  1  0.87348600  0.85660198  0.53605706  1
  V  V40  1  0.75100917  0.25115129  -0.01410546  1
  V  V41  1  0.61684749  0.75484760  0.37389262  1
  V  V42  1  0.62584705  0.09908929  0.49339342  1
  V  V43  1  0.36905610  0.13281949  0.75872631  1
  V  V44  1  0.63025072  0.38634259  0.69964361  1
  V  V45  1  0.88033765  0.38553057  -0.01157767  1
  V  V46  1  0.33265002  0.08823646  0.22372182  1
  V  V47  1  0.04325235  0.08093591  0.18802166  1
  V  V48  1  0.22768311  0.14404771  0.36838137  1
  V  V49  1  0.86869075  0.12604102  0.75373949  1
  V  V50  1  0.23704659  0.89905300  0.62090413  1
  V  V51  1  -0.00545264  0.01998330  0.00379089  1
  V  V52  1  0.24694529  0.00956144  0.79001585  1
  V  V53  1  0.76372701  -0.02289150  0.24995836  1
  V  V54  1  0.24504072  0.62443379  0.37002511  1
  V  V55  1  0.12399909  0.48544950  0.62557122  1
  V  V56  1  0.64734651  0.88589402  0.75131055  1
  V  V57  1  -0.00067146  0.87511706  0.88745189  1
  V  V58  1  0.73721128  0.61893925  0.85410605  1
  V  V59  1  0.48096466  0.87805859  0.86335798  1
  V  V60  1  0.26146992  0.37562034  0.12999296  1
  V  V61  1  0.76762974  0.48957992  0.73111099  1
  V  V62  1  0.75671865  0.39722118  0.12480081  1
  V  V63  1  0.53353546  0.22668597  0.75038489  1
  Zn  Zn64  1  0.18312051  0.20788065  0.18172874  1
  Zn  Zn65  1  0.18511272  0.17855775  0.70513076  1
  Zn  Zn66  1  0.17597463  0.68438623  0.18815186  1
  Zn  Zn67  1  0.18222433  0.69905432  0.68991662  1
  Zn  Zn68  1  0.70055010  0.21061059  0.17921583  1
  Zn  Zn69  1  0.70698320  0.14611060  0.67028816  1
  Zn  Zn70  1  0.70316187  0.68584675  0.19609734  1
  Zn  Zn71  1  0.68680760  0.68241309  0.70131268  1
  Zn  Zn72  1  0.31871841  0.31598438  0.30300906  1
  Zn  Zn73  1  0.34247220  0.26463297  0.87690359  1
  Zn  Zn74  1  0.37720153  0.84040382  0.26753468  1
  Zn  Zn75  1  0.29557991  0.81363425  0.81395240  1
  Zn  Zn76  1  0.81226117  0.45568389  0.33393836  1
  Zn  Zn77  1  0.81170327  0.31891798  0.79866483  1
  Zn  Zn78  1  0.80311647  0.78923841  0.30775165  1
  Zn  Zn79  1  0.79892001  0.82889671  0.85612598  1
  Zn  Zn80  1  0.15885690  0.45731492  0.42495231  1
  Zn  Zn81  1  0.19900962  0.44235849  0.94284311  1
  Zn  Zn82  1  0.32635630  0.98482744  0.37955637  1
  Zn  Zn83  1  0.17578538  0.94342297  0.95341788  1
  Zn  Zn84  1  0.63043800  0.46456782  0.43301605  1
  Zn  Zn85  1  0.70241951  0.45999872  0.93967660  1
  Zn  Zn86  1  0.72226099  0.92069278  0.42930772  1
  Zn  Zn87  1  0.67810799  0.92946364  0.93294283  1
  Zn  Zn88  1  0.32444582  0.19795773  0.06227974  1
  Zn  Zn89  1  0.33710121  0.13537596  0.54643540  1
  Zn  Zn90  1  0.31956814  0.56078722  0.06718304  1
  Zn  Zn91  1  0.28109477  0.59233045  0.58378316  1
  Zn  Zn92  1  0.80888570  0.06358988  0.06698226  1
  Zn  Zn93  1  0.83000287  0.07148136  0.55548052  1
  Zn  Zn94  1  0.81884290  0.58407620  0.04338899  1
  Zn  Zn95  1  0.77125787  0.52106613  0.52656683  1
  Zn  Zn96  1  0.43870182  0.44424292  0.18719799  1
  Zn  Zn97  1  0.40838234  0.32709621  0.70195059  1
  Zn  Zn98  1  0.33473261  0.93395686  0.10116070  1
  Zn  Zn99  1  0.40266645  0.92372512  0.70889962  1
  Zn  Zn100  1  0.93621943  0.44992147  0.18239067  1
  Zn  Zn101  1  0.94860352  0.43592009  0.68690874  1
  Zn  Zn102  1  0.91078624  0.94959283  0.18121126  1
  Zn  Zn103  1  0.94174818  0.94295748  0.69449949  1
  Zn  Zn104  1  0.11364361  -0.00877462  0.36859375  1
  Zn  Zn105  1  0.06447799  0.06506001  0.82281894  1
  Zn  Zn106  1  0.05655046  0.57502971  0.31515934  1
  Zn  Zn107  1  0.11245744  0.54808074  0.82489544  1
  Zn  Zn108  1  0.60916927  0.07884858  0.28657048  1
  Zn  Zn109  1  0.55389988  0.05015582  0.81758639  1
  Zn  Zn110  1  0.58226928  0.56753609  0.30896399  1
  Zn  Zn111  1  0.59316997  0.52741529  0.80835144  1
  Zn  Zn112  1  0.40959712  0.18664268  0.38489833  1
  Zn  Zn113  1  0.46031840  0.18241081  0.93504713  1
  Zn  Zn114  1  0.42969706  0.70301364  0.43390329  1
  Zn  Zn115  1  0.38998702  0.71867428  0.92274394  1
  Zn  Zn116  1  0.95475893  0.19879193  0.44199960  1
  Zn  Zn117  1  0.93915006  0.19524441  0.93787359  1
  Zn  Zn118  1  0.92855417  0.68966165  0.43284022  1
  Zn  Zn119  1  0.92810749  0.68753572  0.94503569  1
  Zn  Zn120  1  0.06698265  0.32290923  0.06504163  1
  Zn  Zn121  1  0.04622870  0.31219425  0.55599867  1
  Zn  Zn122  1  0.06531668  0.82093660  0.05350990  1
  Zn  Zn123  1  0.07478455  0.84129818  0.55471434  1
  Zn  Zn124  1  0.57140879  0.31623000  0.05861055  1
  Zn  Zn125  1  0.50286969  0.26038102  0.54283974  1
  Zn  Zn126  1  0.60123274  0.74524313  -0.13008230  1
  Zn  Zn127  1  0.56818211  0.77341220  0.64294723  1
  O  O128  1  0.11064957  0.13162917  0.12476562  1
  O  O129  1  0.13210712  0.12438021  0.61860982  1
  O  O130  1  0.13383058  0.60715223  0.11409290  1
  O  O131  1  0.11694486  0.64022246  0.61087374  1
  O  O132  1  0.63769612  0.13336884  0.11304698  1
  O  O133  1  0.61878989  0.09909170  0.59870053  1
  O  O134  1  0.64350456  0.60372993  0.13891103  1
  O  O135  1  0.60118083  0.65987425  0.62022697  1
  O  O136  1  0.39404857  0.38039128  0.36281379  1
  O  O137  1  0.38190376  0.37730680  0.88773451  1
  O  O138  1  0.50903427  0.94057339  0.36418912  1
  O  O139  1  0.38097570  0.87857738  0.87017080  1
  O  O140  1  0.89062788  0.38669033  0.37353773  1
  O  O141  1  0.88950534  0.37443839  0.88507760  1
  O  O142  1  0.87653681  0.84920811  0.37898487  1
  O  O143  1  0.89404461  0.89807973  0.86902541  1
  O  O144  1  0.22543896  0.03509176  0.36939124  1
  O  O145  1  0.25214332  -0.00384532  0.88738440  1
  O  O146  1  0.23940076  0.52650952  0.38979436  1
  O  O147  1  0.22195111  0.52095439  0.86625516  1
  O  O148  1  0.76546364  -0.01011730  0.35374144  1
  O  O149  1  0.77159767  -0.00227434  0.88549958  1
  O  O150  1  0.74242395  0.50333973  0.41277391  1
  O  O151  1  0.71361722  0.49821549  0.83057027  1
  O  O152  1  0.24223585  0.49265998  0.12510726  1
  O  O153  1  0.22406712  0.50574193  0.61489500  1
  O  O154  1  0.22435451  0.90482080  0.05349222  1
  O  O155  1  0.24110385  0.99454644  0.61970726  1
  O  O156  1  0.75992006  0.49489551  0.10852656  1
  O  O157  1  0.76181799  0.48988667  0.63131612  1
  O  O158  1  0.80700906  0.98326984  0.14250497  1
  O  O159  1  0.75153504  1.04609403  0.63255371  1
  O  O160  1  -0.00592732  0.38037348  0.25605691  1
  O  O161  1  0.00236216  0.36916584  0.77083014  1
  O  O162  1  -0.03115525  0.88516138  0.25758310  1
  O  O163  1  0.01471939  0.88931732  0.76854682  1
  O  O164  1  0.51272225  0.36916131  0.24859923  1
  O  O165  1  0.55533447  0.34432966  0.76216089  1
  O  O166  1  0.54877321  0.87156525  0.20719239  1
  O  O167  1  0.49360802  0.88965978  0.76260582  1
  O  O168  1  0.53211416  0.14504425  0.23367780  1
  O  O169  1  0.48803805  0.12725372  0.75768429  1
  O  O170  1  0.49239680  0.62387407  0.26736871  1
  O  O171  1  0.42097409  0.48149669  0.65850398  1
  O  O172  1  0.98345668  0.14986802  0.23750283  1
  O  O173  1  0.99992607  0.13878028  0.76258911  1
  O  O174  1  0.97952312  0.63636560  0.25912563  1
  O  O175  1  1.00894496  0.63605936  0.80289796  1
  O  O176  1  0.38173268  0.25187065  -0.01470238  1
  O  O177  1  0.42150448  0.19272217  0.49580360  1
  O  O178  1  0.38204452  0.73616525  0.03476528  1
  O  O179  1  0.34643891  0.76328305  0.49327795  1
  O  O180  1  0.87364657  0.26638183  0.00481808  1
  O  O181  1  0.89724759  0.24801975  0.52896792  1
  O  O182  1  0.83364877  0.70104659  0.00762038  1
  O  O183  1  0.86671271  0.74941964  0.51045312  1
  O  O184  1  0.06602032  0.21237372  0.50028847  1
  O  O185  1  0.11392519  0.24096170  0.99818014  1
  O  O186  1  0.11445493  0.74893832  0.49712376  1
  O  O187  1  0.12162535  0.73222716  1.02421425  1
  O  O188  1  0.60256114  0.19979597  0.50782224  1
  O  O189  1  0.64818129  0.24430379  1.00107989  1
  O  O190  1  0.64084073  0.74070153  0.49935482  1
  O  O191  1  0.66120276  0.72194001  0.97096520  1
  O  O192  1  0.51036829  0.23810167  0.12151833  1
  O  O193  1  0.48804296  0.25496931  0.65794510  1
  O  O194  1  0.53874436  0.73896085  0.10629369  1
  O  O195  1  0.46234089  0.78032250  0.61111559  1
  O  O196  1  0.98504723  0.27463322  0.12983487  1
  O  O197  1  1.00503760  0.25853508  0.65426321  1
  O  O198  1  0.96283142  0.78280745  0.11673141  1
  O  O199  1  0.96985920  0.72590148  0.68539353  1
  O  O200  1  -0.00737528  0.26953183  0.35470510  1
  O  O201  1  0.00799790  0.26236628  0.87324272  1
  O  O202  1  0.00462091  0.76129104  0.37581163  1
  O  O203  1  -0.01646423  0.77755791  0.90108586  1
  O  O204  1  0.50149899  0.25618063  0.34591016  1
  O  O205  1  0.51085344  0.25559704  0.85688483  1
  O  O206  1  0.51621817  0.75736036  0.38629517  1
  O  O207  1  0.48809362  0.77381742  0.88981678  1
  O  O208  1  0.22983077  0.14378147  0.48764155  1
  O  O209  1  0.23054065  0.12991925  1.02128129  1
  O  O210  1  0.22859714  0.64793047  0.49429917  1
  O  O211  1  0.24673663  0.62095962  0.99683616  1
  O  O212  1  0.73384867  0.11189693  0.49768141  1
  O  O213  1  0.75156701  0.14079754  0.99882146  1
  O  O214  1  0.75189367  0.63283793  0.50027454  1
  O  O215  1  0.76092830  0.57378485  0.94448185  1
  O  O216  1  0.27214288  0.38278028  0.00317009  1
  O  O217  1  0.26126949  0.37905257  0.48045548  1
  O  O218  1  0.17631222  0.92936963  0.12318351  1
  O  O219  1  0.22057887  0.86911395  0.51610773  1
  O  O220  1  0.76928391  0.37745365  -0.00025501  1
  O  O221  1  0.75291645  0.34437010  0.50616015  1
  O  O222  1  0.75808914  0.85248985  -0.03272689  1
  O  O223  1  0.76493640  0.85154484  0.50888522  1
  O  O224  1  0.11393345  0.50928011  0.23422822  1
  O  O225  1  0.10500556  0.50150480  0.72363396  1
  O  O226  1  0.08818143  1.02888761  0.25726498  1
  O  O227  1  0.14079505  1.00016733  0.76828370  1
  O  O228  1  0.61882341  0.48078137  0.23368355  1
  O  O229  1  0.61112147  0.48636565  0.70180281  1
  O  O230  1  0.66748450  1.00465711  0.23055335  1
  O  O231  1  0.62909872  0.98713765  0.76455153  1
  O  O232  1  0.31154352  -0.00733454  0.20064877  1
  O  O233  1  0.35077938  0.01121754  0.75762849  1
  O  O234  1  0.37750850  0.51819662  0.25076084  1
  O  O235  1  0.40868021  0.44324106  0.72816412  1
  O  O236  1  0.87156710  0.03811598  0.26134655  1
  O  O237  1  0.88622093  0.01648483  0.76423044  1
  O  O238  1  0.86821564  0.51185909  0.25195713  1
  O  O239  1  0.86296188  0.47698322  0.75417147  1
  O  O240  1  0.09934679  0.37697306  0.38043207  1
  O  O241  1  0.11567092  0.36331745  0.89373669  1
  O  O242  1  0.10883951  0.86954545  0.36878395  1
  O  O243  1  0.11305671  0.88250531  0.87583228  1
  O  O244  1  0.63912023  0.37344712  0.35468564  1
  O  O245  1  0.63036044  0.36875781  0.90597431  1
  O  O246  1  0.64474307  0.85266578  0.38183487  1
  O  O247  1  0.60916726  0.86780683  0.86488566  1
  O  O248  1  0.37372753  0.12989649  0.14167439  1
  O  O249  1  0.36239736  0.12943331  0.65640375  1
  O  O250  1  0.36803444  0.62891578  0.14622168  1
  O  O251  1  0.36710160  0.65187786  0.61400330  1
  O  O252  1  0.87075462  0.15337338  0.11557631  1
  O  O253  1  0.88366853  0.13500499  0.64973664  1
  O  O254  1  0.88928530  0.60302602  0.13069786  1
  O  O255  1  0.90999831  0.68947545  0.66763286  1
  O  O256  1  0.24934910  0.26963482  0.11551856  1
  O  O257  1  0.23854875  0.24847232  0.62682828  1
  O  O258  1  0.24929097  0.74700254  0.12941577  1
  O  O259  1  0.24756740  0.75734360  0.61171093  1
  O  O260  1  0.76622804  0.27391421  0.10842885  1
  O  O261  1  0.76988644  0.23634722  0.62967194  1
  O  O262  1  0.72175873  0.76417872  0.11138920  1
  O  O263  1  0.74992279  0.73594278  0.61960307  1
  O  O264  1  0.29701377  0.22622381  0.36903545  1
  O  O265  1  0.22918928  0.25923054  0.88170903  1
  O  O266  1  0.22371112  0.75471417  0.39048740  1
  O  O267  1  0.27467266  0.73266974  0.88756543  1
  O  O268  1  0.75658160  0.29812352  0.45079713  1
  O  O269  1  0.76355617  0.26171116  0.88899937  1
  O  O270  1  0.74269345  0.72995746  0.38864163  1
  O  O271  1  0.77257908  0.71481650  0.85312174  1
  O  O272  1  0.00354092  0.12314481  0.00393984  1
  O  O273  1  -0.06754090  0.09294109  0.49495028  1
  O  O274  1  0.00214688  0.61125086  -0.00317974  1
  O  O275  1  0.00374680  0.62332778  0.49305379  1
  O  O276  1  0.52856567  0.12350615  0.00489219  1
  O  O277  1  0.53341317  0.06025093  0.48158245  1
  O  O278  1  0.53152071  0.68497503  0.05943108  1
  O  O279  1  0.49695594  0.63447001  0.49901916  1
  O  O280  1  0.50846051  0.34898904  0.47172956  1
  O  O281  1  0.49541729  0.36397794  0.98818071  1
  O  O282  1  0.44405939  0.92381462  0.50231784  1
  O  O283  1  0.51637415  0.89765087  1.02589710  1
  O  O284  1  0.99346687  0.39393667  0.49004421  1
  O  O285  1  0.99258912  0.37973995  0.99250718  1
  O  O286  1  0.97890473  0.86833235  0.50543799  1
  O  O287  1  1.01100707  0.90102263  0.99474881  1
  O  O288  1  0.52784051  0.47560297  0.37538228  1
  O  O289  1  0.51650031  0.46300371  0.85803536  1
  O  O290  1  0.51449223  0.99893131  0.32134517  1
  O  O291  1  0.50203011  0.98425988  0.90075708  1
  O  O292  1  1.00307539  0.49962680  0.38700131  1
  O  O293  1  1.02017556  0.48539739  0.88907709  1
  O  O294  1  0.99259805  0.96743692  0.39544631  1
  O  O295  1  0.99591325  1.00224091  0.89259998  1
  O  O296  1  -0.00830732  0.01341068  0.12063925  1
  O  O297  1  -0.00461442  -0.00879986  0.60323065  1
  O  O298  1  0.01848568  0.48770616  0.10822172  1
  O  O299  1  0.00441642  0.49924012  0.60947168  1
  O  O300  1  0.51025331  0.03231880  0.11710112  1
  O  O301  1  0.42212998  -0.01147586  0.53008625  1
  O  O302  1  0.51243313  0.50104234  0.12153106  1
  O  O303  1  0.44356553  0.43755131  0.60133501  1
  O  O304  1  0.25954295  0.37561518  0.23054927  1
  O  O305  1  0.24862108  0.32250798  0.65697257  1
  O  O306  1  0.37637206  0.89065032  0.36135132  1
  O  O307  1  0.23742227  0.89503600  0.75167627  1
  O  O308  1  0.74760468  0.38772507  0.23175314  1
  O  O309  1  0.73165352  0.37777117  0.73990091  1
  O  O310  1  0.77124820  0.87632894  0.24556093  1
  O  O311  1  0.74632544  0.87383739  0.76719524  1
  O  O312  1  0.24313203  0.13839622  0.24914467  1
  O  O313  1  0.25189254  0.11643582  0.77220999  1
  O  O314  1  0.23414431  0.62926662  0.27127547  1
  O  O315  1  0.24069296  0.63504824  0.76133161  1
  O  O316  1  0.76106736  0.14899027  0.25013698  1
  O  O317  1  0.77196164  0.13314809  0.76639883  1
  O  O318  1  0.71686986  0.59422431  0.29018856  1
  O  O319  1  0.75797108  0.60218599  0.74463148  1
  O  O320  1  0.38208591  0.09069822  0.31685240  1
  O  O321  1  0.38304163  0.12990213  0.86441808  1
  O  O322  1  0.35438665  0.63973282  0.36603405  1
  O  O323  1  0.36340911  0.61048461  0.87217427  1
  O  O324  1  0.87234663  0.16280129  0.36464752  1
  O  O325  1  0.88413856  0.11825659  0.87138093  1
  O  O326  1  0.85408018  0.62278553  0.37079308  1
  O  O327  1  0.88961562  0.61520555  0.85751467  1
  O  O328  1  0.14465568  0.39047638  0.11268681  1
  O  O329  1  0.11881132  0.38663809  0.60632849  1
  O  O330  1  0.12009885  0.88034905  0.14187200  1
  O  O331  1  0.12790410  0.87897801  0.64775403  1
  O  O332  1  0.64626605  0.38924756  0.11580680  1
  O  O333  1  0.61872398  0.35193198  0.61008110  1
  O  O334  1  0.61032606  0.86838126  0.17154212  1
  O  O335  1  0.62493116  0.87311852  0.65158056  1
  O  O336  1  0.10077371  0.26280141  0.23494042  1
  O  O337  1  0.11599517  0.24295232  0.77442239  1
  O  O338  1  0.11913190  0.75005116  0.26299136  1
  O  O339  1  0.13068234  0.77505045  0.76066427  1
  O  O340  1  0.62192270  0.27677007  0.22771141  1
  O  O341  1  0.62570180  0.20081775  0.73107769  1
  O  O342  1  0.63159884  0.73242051  0.27551060  1
  O  O343  1  0.62042537  0.76376199  0.75284588  1
  O  O344  1  0.39989289  0.25854425  0.23177650  1
  O  O345  1  0.36150126  0.24227600  0.76478616  1
  O  O346  1  0.37634454  0.72966639  0.24014056  1
  O  O347  1  0.36321188  0.75996049  0.73504361  1
  O  O348  1  0.88207252  0.25434445  0.23119008  1
  O  O349  1  0.89025722  0.24215369  0.75795347  1
  O  O350  1  0.82017476  0.69981438  0.23468683  1
  O  O351  1  0.94124415  0.60110654  0.79649804  1
  O  O352  1  0.32151301  0.41278229  0.50363332  1
  O  O353  1  0.38668835  0.49390524  1.00028815  1
  O  O354  1  0.35651375  1.02641288  0.48998152  1
  O  O355  1  0.39068305  0.98978478  1.02082177  1
  O  O356  1  0.88714529  0.51422048  0.50724391  1
  O  O357  1  0.89597512  0.49008422  1.00065086  1
  O  O358  1  0.86731445  0.96403560  0.51007032  1
  O  O359  1  0.88847636  1.01448832  0.99111222  1
  O  O360  1  0.10920432  0.02391371  0.00356645  1
  O  O361  1  0.08710426  0.04285979  0.48177486  1
  O  O362  1  0.11967679  0.51240535  0.00485865  1
  O  O363  1  0.10989180  0.52282835  0.50964444  1
  O  O364  1  0.64276585  0.01679788  -0.00103525  1
  O  O365  1  0.65500161  -0.00257903  0.48988032  1
  O  O366  1  0.62639244  0.50420870  0.01233740  1
  O  O367  1  0.61988529  0.52991546  0.52530796  1
  O  O368  1  0.36778177  0.38414045  0.11360261  1
  O  O369  1  0.31396013  0.35711482  0.63563688  1
  O  O370  1  0.37757810  0.84475398  0.15352288  1
  O  O371  1  0.34046102  0.87414408  0.62973248  1
  O  O372  1  0.86909621  0.37897137  0.11327182  1
  O  O373  1  0.88020361  0.35400014  0.64531161  1
  O  O374  1  0.90434873  0.82841246  0.11562222  1
  O  O375  1  0.88027556  0.86265503  0.63465436  1
  O  O376  1  0.13673239  0.17059018  0.36372629  1
  O  O377  1  0.12310737  0.13873218  0.89691755  1
  O  O378  1  0.12420581  0.64182408  0.38592422  1
  O  O379  1  0.13185194  0.63820379  0.89799099  1
  O  O380  1  0.63501832  0.11795812  0.39176235  1
  O  O381  1  0.62688180  0.12156253  0.88378285  1
  O  O382  1  0.62525679  0.63141379  0.40273209  1
  O  O383  1  0.63282756  0.62929958  0.84542634  1
