# generated using pymatgen
data_VZnO4
_symmetry_space_group_name_H-M   'P 1'
_cell_length_a   16.93060251
_cell_length_b   16.97225448
_cell_length_c   16.91506786
_cell_angle_alpha   89.83119895
_cell_angle_beta   89.58562010
_cell_angle_gamma   90.08703977
_symmetry_Int_Tables_number   1
_chemical_formula_structural   VZnO4
_chemical_formula_sum   'V64 Zn64 O256'
_cell_volume   4860.39913158
_cell_formula_units_Z   64
loop_
 _symmetry_equiv_pos_site_id
 _symmetry_equiv_pos_as_xyz
  1  'x, y, z'
loop_
 _atom_site_type_symbol
 _atom_site_label
 _atom_site_symmetry_multiplicity
 _atom_site_fract_x
 _atom_site_fract_y
 _atom_site_fract_z
 _atom_site_occupancy
  V  V0  1  0.50997124  0.39393789  0.86477871  1
  V  V1  1  0.61797826  0.25180244  0.37380707  1
  V  V2  1  0.72477327  0.11658105  0.87056548  1
  V  V3  1  0.63449856  -0.01001185  0.64125890  1
  V  V4  1  0.38009221  0.62710073  0.75552330  1
  V  V5  1  -0.00505929  0.61896824  0.13169619  1
  V  V6  1  0.33680810  0.17345498  0.79418002  1
  V  V7  1  0.87079610  0.13603423  0.25008702  1
  V  V8  1  0.88064565  0.33698657  0.00091289  1
  V  V9  1  0.25321346  0.63026111  0.87762093  1
  V  V10  1  0.51724700  0.24500345  0.75997356  1
  V  V11  1  0.49680690  0.13073763  0.62726952  1
  V  V12  1  0.11525636  0.74660037  0.85666543  1
  V  V13  1  0.64037570  0.12556075  0.49359029  1
  V  V14  1  0.12942822  0.62639448  0.48934643  1
  V  V15  1  0.64796254  0.49303730  0.62471086  1
  V  V16  1  0.11956943  0.63248612  -0.00355339  1
  V  V17  1  0.43428614  -0.00212166  -0.02196041  1
  V  V18  1  0.22803560  0.86586533  0.62112015  1
  V  V19  1  0.39336468  0.75897648  0.63121565  1
  V  V20  1  0.89598175  0.87675499  0.00768976  1
  V  V21  1  0.48645672  0.66504665  0.12381026  1
  V  V22  1  0.75235842  0.48453617  0.78537315  1
  V  V23  1  0.63045469  0.63593929  0.49303359  1
  V  V24  1  0.88150859  0.74445924  0.13505725  1
  V  V25  1  0.87354993  0.61533435  0.77296455  1
  V  V26  1  -0.01344533  0.62730566  0.62314721  1
  V  V27  1  0.48906831  0.23476960  0.23665702  1
  V  V28  1  0.87366858  0.88142036  0.48342644  1
  V  V29  1  0.25975132  -0.00556054  0.75546185  1
  V  V30  1  0.75246386  0.87700105  0.13213559  1
  V  V31  1  0.73834744  0.75848889  -0.00815036  1
  V  V32  1  0.61818507  0.00107483  0.12592404  1
  V  V33  1  0.37711530  0.35701373  -0.00225757  1
  V  V34  1  0.48571965  0.50819773  0.01061139  1
  V  V35  1  0.11384231  0.50187302  0.62098323  1
  V  V36  1  0.75324202  0.75381273  0.49516952  1
  V  V37  1  0.63519752  0.85513606  0.26082098  1
  V  V38  1  0.13172608  0.48484267  0.11498904  1
  V  V39  1  0.25476808  0.50183604  0.75173797  1
  V  V40  1  0.24491053  0.15270593  0.37419582  1
  V  V41  1  0.11468724  0.37425791  0.76371410  1
  V  V42  1  0.26756615  0.50382396  0.24562028  1
  V  V43  1  0.75793964  0.00235094  0.27570761  1
  V  V44  1  0.74494887  0.49629957  0.23695788  1
  V  V45  1  0.83551392  0.27756491  0.62082916  1
  V  V46  1  0.26427020  0.38107795  0.60892829  1
  V  V47  1  -0.00032852  0.00419689  0.49227067  1
  V  V48  1  0.72106820  0.23065063  0.00826969  1
  V  V49  1  0.51505487  0.85586423  0.37677310  1
  V  V50  1  0.37753584  0.87748929  0.50351841  1
  V  V51  1  0.50899690  0.00148583  0.49122011  1
  V  V52  1  -0.01401107  0.49336701  -0.02294342  1
  V  V53  1  0.62145904  0.62202170  -0.00742151  1
  V  V54  1  0.51527287  0.61888227  0.63624033  1
  V  V55  1  0.88112812  0.00956834  0.87712523  1
  V  V56  1  -0.01897234  0.13014908  0.64312332  1
  V  V57  1  0.10886244  -0.02012496  0.11625272  1
  V  V58  1  0.22709006  -0.01037916  0.24380427  1
  V  V59  1  0.01100845  0.87861314  0.86399000  1
  V  V60  1  0.13021993  0.02525887  0.63077874  1
  V  V61  1  0.01288844  0.24943841  0.26482570  1
  V  V62  1  0.48916573  0.37941947  0.34536250  1
  V  V63  1  0.87106418  0.76915431  0.63752879  1
  Zn  Zn64  1  0.18909135  0.17849804  0.19682035  1
  Zn  Zn65  1  0.20658788  0.19909060  0.69675629  1
  Zn  Zn66  1  0.21415852  0.68604651  0.16376980  1
  Zn  Zn67  1  0.18847243  0.68763110  0.67622086  1
  Zn  Zn68  1  0.68263294  0.17777000  0.19142712  1
  Zn  Zn69  1  0.69367620  0.16851265  0.68870727  1
  Zn  Zn70  1  0.67850169  0.68869950  0.17105692  1
  Zn  Zn71  1  0.70423911  0.68965754  0.70217453  1
  Zn  Zn72  1  0.31505932  0.32003189  0.29933943  1
  Zn  Zn73  1  0.29776193  0.34162783  0.84631203  1
  Zn  Zn74  1  0.32942769  0.91250718  0.32250641  1
  Zn  Zn75  1  0.28559249  0.79766104  0.78825755  1
  Zn  Zn76  1  0.80333438  0.30679574  0.30729578  1
  Zn  Zn77  1  0.81054700  0.29029825  0.81320850  1
  Zn  Zn78  1  0.93353579  0.79780862  0.31799653  1
  Zn  Zn79  1  0.84756700  0.79115350  0.83111905  1
  Zn  Zn80  1  0.26933546  0.49659672  0.44220628  1
  Zn  Zn81  1  0.19021096  0.44251226  0.94945091  1
  Zn  Zn82  1  0.18206128  1.02576261  0.44317530  1
  Zn  Zn83  1  0.19385689  0.91865965  0.94435687  1
  Zn  Zn84  1  0.61632979  0.47502716  0.41358389  1
  Zn  Zn85  1  0.68572311  0.41378940  0.95871976  1
  Zn  Zn86  1  0.68973745  0.93154319  0.44806563  1
  Zn  Zn87  1  0.69519666  0.94396605  0.94564112  1
  Zn  Zn88  1  0.24850208  0.05676745  0.03386197  1
  Zn  Zn89  1  0.35327458  0.09996411  0.50130307  1
  Zn  Zn90  1  0.31227648  0.56964693  0.06811869  1
  Zn  Zn91  1  0.31604225  0.58033943  0.56996899  1
  Zn  Zn92  1  0.81974793  0.06511773  0.06275674  1
  Zn  Zn93  1  0.81305363  0.05905466  0.56588066  1
  Zn  Zn94  1  0.81261646  0.57279010  0.04076910  1
  Zn  Zn95  1  0.81520344  0.55704533  0.54047159  1
  Zn  Zn96  1  0.42610091  0.43166595  0.17722272  1
  Zn  Zn97  1  0.44330731  0.43475256  0.69213305  1
  Zn  Zn98  1  0.41837424  0.94884147  0.15030893  1
  Zn  Zn99  1  0.44854143  0.94535425  0.69015887  1
  Zn  Zn100  1  0.93000177  0.43283859  0.17581868  1
  Zn  Zn101  1  0.92846945  0.43396013  0.69630196  1
  Zn  Zn102  1  0.94207954  0.94056548  0.19595387  1
  Zn  Zn103  1  0.94584718  0.94829059  0.69318471  1
  Zn  Zn104  1  0.05697019  0.07369538  0.30706293  1
  Zn  Zn105  1  0.06093536  0.05813796  0.81225735  1
  Zn  Zn106  1  0.11055077  0.61391980  0.28014265  1
  Zn  Zn107  1  0.06149109  0.56298598  0.80366507  1
  Zn  Zn108  1  0.56827018  0.06077289  0.30680536  1
  Zn  Zn109  1  0.54477183  0.04773702  0.81847343  1
  Zn  Zn110  1  0.45364938  0.56948006  0.30497402  1
  Zn  Zn111  1  0.58173345  0.56774360  0.80936440  1
  Zn  Zn112  1  0.38030323  0.09779823  0.27506697  1
  Zn  Zn113  1  0.46031509  0.17646492  0.95027397  1
  Zn  Zn114  1  0.44590064  0.68967388  0.45480144  1
  Zn  Zn115  1  0.47627295  0.68187165  0.90322573  1
  Zn  Zn116  1  0.92467689  0.18864860  0.44281383  1
  Zn  Zn117  1  0.93964372  0.21141187  0.91136018  1
  Zn  Zn118  1  0.93809591  0.64364523  0.42844343  1
  Zn  Zn119  1  0.94365350  0.69646423  0.94939313  1
  Zn  Zn120  1  0.01988807  0.31740527  0.09045146  1
  Zn  Zn121  1  0.09985872  0.28754460  0.60893507  1
  Zn  Zn122  1  0.07496441  0.80104957  0.20022980  1
  Zn  Zn123  1  0.03370306  0.78674276  0.48453685  1
  Zn  Zn124  1  0.56389890  0.31815915  0.06204996  1
  Zn  Zn125  1  0.62103443  0.28775659  0.59361265  1
  Zn  Zn126  1  0.55431289  0.85080528  0.05116955  1
  Zn  Zn127  1  0.56928307  0.81446244  0.57040720  1
  O  O128  1  0.11951015  0.11328548  0.11875468  1
  O  O129  1  0.13747339  0.12411482  0.62530820  1
  O  O130  1  0.11108981  0.61996761  0.10450043  1
  O  O131  1  0.11475371  0.61480157  0.63055650  1
  O  O132  1  0.63738681  0.09796354  0.11943674  1
  O  O133  1  0.61921168  0.11557243  0.60886819  1
  O  O134  1  0.60385875  0.64061591  0.10061911  1
  O  O135  1  0.62018938  0.62672023  0.64471523  1
  O  O136  1  0.39104929  0.37782886  0.37081070  1
  O  O137  1  0.40552555  0.36655370  0.88135246  1
  O  O138  1  0.39701947  0.86555837  0.39676613  1
  O  O139  1  0.45232123  0.83817017  0.82744484  1
  O  O140  1  0.87641352  0.35829965  0.38188988  1
  O  O141  1  0.89546290  0.31323158  0.88842300  1
  O  O142  1  0.87309548  0.87581940  0.38606457  1
  O  O143  1  0.89374542  0.87755161  0.88763440  1
  O  O144  1  0.24363111  -0.01292035  0.35589362  1
  O  O145  1  0.23589314  -0.01748716  0.85178386  1
  O  O146  1  0.24218328  0.52961899  0.33945751  1
  O  O147  1  0.24569642  0.51889971  0.86010045  1
  O  O148  1  0.74915497  -0.00285163  0.37411668  1
  O  O149  1  0.77149384  0.01094864  0.89043392  1
  O  O150  1  0.72107292  0.49305373  0.33807663  1
  O  O151  1  0.73692388  0.49021561  0.88416656  1
  O  O152  1  0.22797497  0.48258774  0.08046105  1
  O  O153  1  0.24619329  0.50532294  0.63802079  1
  O  O154  1  0.22915479  1.01546973  0.13945215  1
  O  O155  1  0.23061684  0.98346476  0.62711210  1
  O  O156  1  0.76835633  0.50960705  0.13461618  1
  O  O157  1  0.74772426  0.49929415  0.61671074  1
  O  O158  1  0.74752680  0.98167761  0.12186430  1
  O  O159  1  0.73359558  1.00777160  0.62948957  1
  O  O160  1  0.01943171  0.45004145  0.32884873  1
  O  O161  1  0.01612706  0.38775585  0.75456593  1
  O  O162  1  -0.00178865  0.86300229  0.25386172  1
  O  O163  1  0.00639261  0.87712390  0.76551684  1
  O  O164  1  0.49543993  0.36712162  0.24226149  1
  O  O165  1  0.50328241  0.36087568  0.75831810  1
  O  O166  1  0.52239779  0.86968419  0.27194430  1
  O  O167  1  0.50117170  0.86598763  0.77213230  1
  O  O168  1  0.49048987  0.12818874  0.25376094  1
  O  O169  1  0.50561010  0.12681964  0.73491889  1
  O  O170  1  0.49019097  0.64244320  0.22405489  1
  O  O171  1  0.49316685  0.62681865  0.74709924  1
  O  O172  1  0.99052152  0.14611406  0.24417385  1
  O  O173  1  1.00507539  0.12680938  0.74222543  1
  O  O174  1  0.99928423  0.61246366  0.23018295  1
  O  O175  1  0.98097865  0.61530498  0.73948725  1
  O  O176  1  0.40047135  0.26002652  0.00130352  1
  O  O177  1  0.37708305  0.26323164  0.50046531  1
  O  O178  1  0.27639754  0.78086959  0.02955840  1
  O  O179  1  0.38409777  0.76225681  0.52057039  1
  O  O180  1  0.91862224  0.24702282  0.03020522  1
  O  O181  1  0.86981977  0.24112601  0.52946277  1
  O  O182  1  0.86891558  0.76176223  0.00848317  1
  O  O183  1  0.86877385  0.77040654  0.52091504  1
  O  O184  1  0.12185829  0.29599469  0.48909872  1
  O  O185  1  0.09051096  0.22785829  1.06288411  1
  O  O186  1  0.12560105  0.72640366  0.50638182  1
  O  O187  1  0.11646970  0.73056220  0.98604441  1
  O  O188  1  0.61913581  0.23046957  0.49150875  1
  O  O189  1  0.62169783  0.23653973  0.99790795  1
  O  O190  1  0.64164729  0.74896550  0.50941125  1
  O  O191  1  0.63748851  0.76967891  0.99909960  1
  O  O192  1  0.51567737  0.25218220  0.13992516  1
  O  O193  1  0.51699546  0.23373700  0.62649626  1
  O  O194  1  0.50383816  0.76395204  0.11109615  1
  O  O195  1  0.49669084  0.74640090  0.63608236  1
  O  O196  1  0.98176216  0.33163197  0.20297200  1
  O  O197  1  1.00633296  0.22519616  0.61518783  1
  O  O198  1  0.98927236  0.73457634  0.12586898  1
  O  O199  1  0.97771067  0.73205465  0.62416425  1
  O  O200  1  -0.00825689  0.25788545  0.36290071  1
  O  O201  1  0.06467682  0.20557179  0.90312774  1
  O  O202  1  -0.01474656  0.73477988  0.39420466  1
  O  O203  1  0.00806161  0.75883231  0.87287167  1
  O  O204  1  0.50361155  0.26444744  0.34973113  1
  O  O205  1  0.51220323  0.23377811  0.85993838  1
  O  O206  1  0.50859684  0.75742489  0.38643733  1
  O  O207  1  0.48919770  0.79820077  0.88716342  1
  O  O208  1  0.24304347  0.11979433  0.48119861  1
  O  O209  1  0.23728267  0.16526956  0.98544166  1
  O  O210  1  0.23277335  0.60712331  0.49733385  1
  O  O211  1  0.23202044  0.61852611  0.98654851  1
  O  O212  1  0.73880143  0.11675358  0.49726852  1
  O  O213  1  0.75702811  0.12949824  0.99073154  1
  O  O214  1  0.73812865  0.64263944  0.51474846  1
  O  O215  1  0.73008387  0.64225309  1.00291026  1
  O  O216  1  0.27744707  0.36871937  -0.03984148  1
  O  O217  1  0.25964503  0.40720848  0.51119431  1
  O  O218  1  0.28287493  0.85086209  -0.00726779  1
  O  O219  1  0.27595099  0.88122317  0.51574994  1
  O  O220  1  0.77126424  0.32830394  -0.01872588  1
  O  O221  1  0.82902084  0.39353039  0.43821763  1
  O  O222  1  0.76064272  0.86731298  0.01146498  1
  O  O223  1  0.76351710  0.86851426  0.50622412  1
  O  O224  1  0.14370630  0.51465286  0.21710228  1
  O  O225  1  0.13866349  0.49870457  0.74538577  1
  O  O226  1  0.12050207  1.00363375  0.23656545  1
  O  O227  1  0.13465472  1.00915822  0.73676558  1
  O  O228  1  0.64720885  0.48285551  0.20795573  1
  O  O229  1  0.65005264  0.50423493  0.74025345  1
  O  O230  1  0.64560480  0.99496635  0.24677913  1
  O  O231  1  0.61392963  1.00114757  0.73954313  1
  O  O232  1  0.35966405  -0.01085945  0.23732829  1
  O  O233  1  0.36008974  -0.01443529  0.74944282  1
  O  O234  1  0.37551384  0.50572823  0.24791767  1
  O  O235  1  0.36570452  0.51626262  0.74424732  1
  O  O236  1  0.85908169  -0.00655743  0.25491545  1
  O  O237  1  0.88334127  -0.00500523  0.77835183  1
  O  O238  1  0.85179546  0.49449097  0.25193898  1
  O  O239  1  0.86336710  0.50501124  0.76588534  1
  O  O240  1  0.07116233  0.34807755  0.45812899  1
  O  O241  1  0.13780523  0.38036439  0.86148767  1
  O  O242  1  0.15141253  0.83067960  0.37640716  1
  O  O243  1  0.11888760  0.85605571  0.88100829  1
  O  O244  1  0.58921154  0.36129316  0.40046668  1
  O  O245  1  0.60512333  0.37073793  0.88541325  1
  O  O246  1  0.62567768  0.86952802  0.37349002  1
  O  O247  1  0.64103063  0.87618105  0.85065882  1
  O  O248  1  0.27204067  0.19289146  0.11047166  1
  O  O249  1  0.39871172  0.12539573  0.60469445  1
  O  O250  1  0.38903182  0.65358426  0.09669434  1
  O  O251  1  0.39171725  0.63772359  0.63294850  1
  O  O252  1  0.87542091  0.10758620  0.14897982  1
  O  O253  1  0.88194225  0.11188602  0.63844284  1
  O  O254  1  0.88447388  0.63513986  0.11131807  1
  O  O255  1  0.88549383  0.60820348  0.62125398  1
  O  O256  1  0.24361971  0.22033471  0.04071907  1
  O  O257  1  0.23858641  0.28045538  0.61537275  1
  O  O258  1  0.23710834  0.78338023  0.09883110  1
  O  O259  1  0.26446866  0.76311100  0.63005821  1
  O  O260  1  0.73693990  0.23541836  0.10806938  1
  O  O261  1  0.73053615  0.25785952  0.62140286  1
  O  O262  1  0.76035464  0.75618716  0.11692812  1
  O  O263  1  0.76872779  0.74819343  0.62651899  1
  O  O264  1  0.24701542  0.25186523  0.36369143  1
  O  O265  1  0.26350971  0.23605053  0.82718649  1
  O  O266  1  0.21356536  0.79378821  0.37701494  1
  O  O267  1  0.23248058  0.74038484  0.86932760  1
  O  O268  1  0.71568193  0.27426708  0.36954434  1
  O  O269  1  0.74035154  0.22091284  0.87874623  1
  O  O270  1  0.76572785  0.74661507  0.40045857  1
  O  O271  1  0.75901703  0.75865631  0.89328903  1
  O  O272  1  0.06528111  0.15454198  0.07413561  1
  O  O273  1  -0.01425403  0.10532644  0.51267425  1
  O  O274  1  0.00665660  0.61456279  -0.00198317  1
  O  O275  1  0.01197413  0.61614156  0.52083385  1
  O  O276  1  0.47016778  0.08458052  0.01619224  1
  O  O277  1  0.50999443  0.10509234  0.50450030  1
  O  O278  1  0.50152139  0.62299723  0.00313756  1
  O  O279  1  0.52140417  0.63930365  0.52841144  1
  O  O280  1  0.43470715  0.30467726  0.51181228  1
  O  O281  1  0.49280872  0.39637462  0.99127249  1
  O  O282  1  0.50610914  0.88079943  0.49539084  1
  O  O283  1  0.45080389  0.91473173  1.04427584  1
  O  O284  1  1.01144015  0.36577464  0.50082931  1
  O  O285  1  0.98767326  0.38746451  0.99489751  1
  O  O286  1  0.98285241  0.88499550  0.50668880  1
  O  O287  1  0.99309950  0.86710150  0.99948721  1
  O  O288  1  0.51670686  0.48425739  0.35408065  1
  O  O289  1  0.50591652  0.49616819  0.86508434  1
  O  O290  1  0.51169665  0.98937271  0.38768861  1
  O  O291  1  0.47730815  0.98611905  0.88542517  1
  O  O292  1  0.98812699  0.48158948  0.38607571  1
  O  O293  1  1.00220511  0.50150602  0.87911790  1
  O  O294  1  1.01222957  1.00520611  0.39403369  1
  O  O295  1  1.00414084  0.98311722  0.88275159  1
  O  O296  1  0.00938709  -0.00322747  0.12016813  1
  O  O297  1  0.01547561  0.01451879  0.63066436  1
  O  O298  1  -0.00095829  0.50942116  0.11241393  1
  O  O299  1  0.01060156  0.50218991  0.63571119  1
  O  O300  1  0.52387500  -0.00479295  0.15784986  1
  O  O301  1  0.51338233  0.00762470  0.61870772  1
  O  O302  1  0.49305973  0.50649822  0.10987999  1
  O  O303  1  0.51160447  0.51610767  0.63684050  1
  O  O304  1  0.26271678  0.40185853  0.23809245  1
  O  O305  1  0.25463737  0.39737713  0.75051036  1
  O  O306  1  0.23796127  0.89037373  0.23974255  1
  O  O307  1  0.24403616  0.88280720  0.73040938  1
  O  O308  1  0.75594045  0.39130303  0.23549963  1
  O  O309  1  0.75948807  0.38689260  0.76952281  1
  O  O310  1  0.74410555  0.88470839  0.24852872  1
  O  O311  1  0.68000046  0.83954207  0.79348757  1
  O  O312  1  0.25791178  0.11639728  0.26434424  1
  O  O313  1  0.26888244  0.10836516  0.73754590  1
  O  O314  1  0.27228572  0.59292928  0.17926842  1
  O  O315  1  0.26033094  0.62371329  0.75341017  1
  O  O316  1  0.75635181  0.10884649  0.25465020  1
  O  O317  1  0.74405197  0.11181440  0.77101040  1
  O  O318  1  0.73889462  0.60058731  0.24220999  1
  O  O319  1  0.76658965  0.61139184  0.75852507  1
  O  O320  1  0.35235243  0.12523443  0.38447772  1
  O  O321  1  0.38287035  0.13078073  0.87064956  1
  O  O322  1  0.39042050  0.60366107  0.40575790  1
  O  O323  1  0.36991461  0.64356085  0.86404720  1
  O  O324  1  0.88260720  0.12582240  0.35478760  1
  O  O325  1  0.90301465  0.10676862  0.89153733  1
  O  O326  1  0.85940017  0.57161366  0.43736685  1
  O  O327  1  0.88258653  0.63538583  0.86935369  1
  O  O328  1  0.10946566  0.38844834  0.11540950  1
  O  O329  1  0.14035481  0.39566419  0.63942405  1
  O  O330  1  0.11615661  0.88126815  0.12666527  1
  O  O331  1  0.13328456  0.85690429  0.61220415  1
  O  O332  1  0.64723790  0.39284661  0.06405781  1
  O  O333  1  0.62127085  0.39846410  0.61365770  1
  O  O334  1  0.63635133  0.87350374  0.14886830  1
  O  O335  1  0.62512348  0.88973936  0.62891510  1
  O  O336  1  0.11260292  0.24600317  0.24636695  1
  O  O337  1  0.12689356  0.27495074  0.73409296  1
  O  O338  1  0.13919405  0.71791917  0.23978286  1
  O  O339  1  0.12215052  0.74225242  0.75779961  1
  O  O340  1  0.61320357  0.23298028  0.26490407  1
  O  O341  1  0.61604756  0.24359272  0.74063582  1
  O  O342  1  0.64398969  0.75720924  0.25568749  1
  O  O343  1  0.64318752  0.77398483  0.76745474  1
  O  O344  1  0.38702662  0.24626101  0.24220723  1
  O  O345  1  0.39989202  0.23616058  0.74241844  1
  O  O346  1  0.36826239  0.79238745  0.24106457  1
  O  O347  1  0.37260843  0.74297196  0.73837161  1
  O  O348  1  0.86083865  0.23743395  0.24299064  1
  O  O349  1  0.85959914  0.24724230  0.71607678  1
  O  O350  1  0.86750513  0.74534424  0.23315528  1
  O  O351  1  0.87023039  0.73001394  0.74130662  1
  O  O352  1  0.38008715  0.54183684  0.46598514  1
  O  O353  1  0.38618828  0.51153872  0.99321461  1
  O  O354  1  0.39808717  0.98504861  0.50708436  1
  O  O355  1  0.33188879  1.00436160  0.97796867  1
  O  O356  1  0.86534936  0.43721055  0.48683277  1
  O  O357  1  0.88513679  0.50924492  0.98507836  1
  O  O358  1  0.88334487  0.98610112  0.50870320  1
  O  O359  1  0.87860405  0.98066762  0.99828239  1
  O  O360  1  0.14561155  -0.00575919  0.01365740  1
  O  O361  1  0.10782770  -0.00668302  0.52156258  1
  O  O362  1  0.10572192  0.50682835  -0.00191236  1
  O  O363  1  0.12281984  0.50436050  0.52149532  1
  O  O364  1  0.61314623  -0.04167943  0.02512669  1
  O  O365  1  0.62094401  0.00379789  0.50612420  1
  O  O366  1  0.61185730  0.52191543  -0.01185839  1
  O  O367  1  0.63229438  0.52504359  0.51652637  1
  O  O368  1  0.36908610  0.38279245  0.09495581  1
  O  O369  1  0.36281246  0.38686211  0.62960867  1
  O  O370  1  0.37510241  0.81736464  0.17208790  1
  O  O371  1  0.39149039  0.86667722  0.62214282  1
  O  O372  1  0.86829209  0.38539071  0.09018330  1
  O  O373  1  0.86334453  0.37607371  0.62433540  1
  O  O374  1  0.87448078  0.86403275  0.12030384  1
  O  O375  1  0.87811099  0.86748885  0.64969487  1
  O  O376  1  0.14273701  0.11783056  0.36995281  1
  O  O377  1  0.09789003  0.13775796  0.90015663  1
  O  O378  1  0.10685058  0.61015299  0.39346662  1
  O  O379  1  0.12718122  0.63281539  0.87470651  1
  O  O380  1  0.61797234  0.13364878  0.38696985  1
  O  O381  1  0.62746922  0.09660882  0.88417325  1
  O  O382  1  0.62025774  0.62773579  0.39778793  1
  O  O383  1  0.59505668  0.64897661  0.89001439  1
