# generated using pymatgen
data_VZnO4
_symmetry_space_group_name_H-M   'P 1'
_cell_length_a   16.90005557
_cell_length_b   16.89573610
_cell_length_c   16.97871264
_cell_angle_alpha   89.92103720
_cell_angle_beta   90.54565138
_cell_angle_gamma   90.14699035
_symmetry_Int_Tables_number   1
_chemical_formula_structural   VZnO4
_chemical_formula_sum   'V64 Zn64 O256'
_cell_volume   4847.84232905
_cell_formula_units_Z   64
loop_
 _symmetry_equiv_pos_site_id
 _symmetry_equiv_pos_as_xyz
  1  'x, y, z'
loop_
 _atom_site_type_symbol
 _atom_site_label
 _atom_site_symmetry_multiplicity
 _atom_site_fract_x
 _atom_site_fract_y
 _atom_site_fract_z
 _atom_site_occupancy
  V  V0  1  0.87086760  0.64704252  0.24803403  1
  V  V1  1  0.86600898  0.00087366  0.89240290  1
  V  V2  1  0.87627442  0.01054176  0.38449828  1
  V  V3  1  0.12406718  0.62917770  0.50405960  1
  V  V4  1  0.49309797  0.24509323  0.24476583  1
  V  V5  1  0.87085745  0.24334251  0.10603735  1
  V  V6  1  0.50109944  0.49914161  0.49750222  1
  V  V7  1  0.08724179  0.00584664  0.12325159  1
  V  V8  1  0.49189376  0.00586881  -0.01857509  1
  V  V9  1  -0.00108403  0.62517499  0.12961959  1
  V  V10  1  0.24123951  0.35863547  0.12017238  1
  V  V11  1  0.11559361  0.74635984  0.35346365  1
  V  V12  1  0.12728531  0.13632011  0.00871928  1
  V  V13  1  0.38351145  0.63495159  0.23292527  1
  V  V14  1  0.87422556  0.26150523  0.63543038  1
  V  V15  1  0.00483506  0.11454955  0.62443281  1
  V  V16  1  0.01098668  0.37577828  0.36537378  1
  V  V17  1  0.23483890  0.00357417  0.76272776  1
  V  V18  1  0.49677947  0.87878267  0.37729577  1
  V  V19  1  0.13463960  0.88525145  0.23959611  1
  V  V20  1  0.50475570  0.11741085  0.12509284  1
  V  V21  1  0.48627434  0.63547695  0.62235529  1
  V  V22  1  0.86235982  0.10486887  0.75183525  1
  V  V23  1  0.51668462  0.37237942  0.36869654  1
  V  V24  1  0.01109817  0.49920508  0.50747690  1
  V  V25  1  0.87960423  0.85478655  0.00844092  1
  V  V26  1  0.25535457  0.11413762  0.35119086  1
  V  V27  1  0.76164457  0.00972146  0.24627020  1
  V  V28  1  0.23606070  0.37147579  0.63112583  1
  V  V29  1  -0.00854313  0.86934216  0.86049700  1
  V  V30  1  0.13044529  0.23963970  0.38098016  1
  V  V31  1  0.38697858  0.26469674  0.62834681  1
  V  V32  1  0.25593491  0.63793718  0.36750263  1
  V  V33  1  0.37004421  0.47918917  0.36780137  1
  V  V34  1  0.86638141  0.50243479  0.36318892  1
  V  V35  1  0.62702369  0.87589716  0.24474420  1
  V  V36  1  0.49160734  0.12194694  0.64060263  1
  V  V37  1  0.61239142  0.26943286  0.88012715  1
  V  V38  1  0.33793504  0.86270315  0.53284130  1
  V  V39  1  0.00312483  0.88670402  0.38032421  1
  V  V40  1  0.86611885  0.50125576  0.88624604  1
  V  V41  1  0.63126761  0.87959994  0.75392962  1
  V  V42  1  0.63569061  0.73696880  0.87371620  1
  V  V43  1  0.36350128  0.50048214  0.89050884  1
  V  V44  1  0.86697063  0.63256671  0.72973279  1
  V  V45  1  0.75163610  0.24527071  0.50384107  1
  V  V46  1  0.60390548  0.64001590  0.02661977  1
  V  V47  1  0.62093595  0.11866589  0.50780547  1
  V  V48  1  0.63464215  0.74948700  0.37677300  1
  V  V49  1  0.64186174  0.12319216  -0.00737452  1
  V  V50  1  0.12266102  0.61054838  0.00878000  1
  V  V51  1  0.76319436  0.38514847  0.14756278  1
  V  V52  1  0.23637404  0.49102140  0.23982323  1
  V  V53  1  -0.00904206  0.22903810  0.24829452  1
  V  V54  1  0.63194943  0.62765522  0.49996288  1
  V  V55  1  0.48671224  0.85973590  0.87634004  1
  V  V56  1  0.87059439  0.38521355  0.50081214  1
  V  V57  1  0.63666249  0.24175096  0.36643713  1
  V  V58  1  0.11507748  0.74518476  0.87589941  1
  V  V59  1  0.00932110  0.37945189  0.89382214  1
  V  V60  1  0.75697412  0.86273976  0.12331113  1
  V  V61  1  0.39001450  0.36639737  0.01145537  1
  V  V62  1  0.24652744  0.76418644  0.01532764  1
  V  V63  1  0.01630110  0.26068919  0.75433919  1
  Zn  Zn64  1  0.17346517  0.18786557  0.19174688  1
  Zn  Zn65  1  0.19152145  0.19667434  0.67552526  1
  Zn  Zn66  1  0.18960065  0.68251322  0.18234468  1
  Zn  Zn67  1  0.04582708  0.71132864  0.68471898  1
  Zn  Zn68  1  0.69241684  0.18798641  0.17714035  1
  Zn  Zn69  1  0.68830348  0.18755823  0.68786250  1
  Zn  Zn70  1  0.69077932  0.68747642  0.19675029  1
  Zn  Zn71  1  0.67138544  0.68492619  0.69185876  1
  Zn  Zn72  1  0.30733462  0.30167142  0.30070512  1
  Zn  Zn73  1  0.35182606  0.34264389  0.79544257  1
  Zn  Zn74  1  0.31676009  0.81512854  0.29988590  1
  Zn  Zn75  1  0.29506231  0.82127443  0.84410995  1
  Zn  Zn76  1  0.81568093  0.31372847  0.31373687  1
  Zn  Zn77  1  0.81565963  0.32551013  0.82136456  1
  Zn  Zn78  1  0.81174991  0.82247480  0.32288593  1
  Zn  Zn79  1  0.80999450  0.80365889  0.81433504  1
  Zn  Zn80  1  0.19241645  0.43102224  0.44412618  1
  Zn  Zn81  1  0.19409205  0.42889160  0.93866415  1
  Zn  Zn82  1  0.21420820  0.92446959  0.42385333  1
  Zn  Zn83  1  0.16645576  0.93467079  0.94946675  1
  Zn  Zn84  1  0.68910015  0.44165423  0.44075139  1
  Zn  Zn85  1  0.68571131  0.45064065  0.93973381  1
  Zn  Zn86  1  0.67343246  0.95768320  0.41196355  1
  Zn  Zn87  1  0.68345430  0.93350379  0.93750192  1
  Zn  Zn88  1  0.32261332  0.08435136  0.05669077  1
  Zn  Zn89  1  0.47120784  -0.00155362  0.49484122  1
  Zn  Zn90  1  0.30510042  0.56385847  0.05926039  1
  Zn  Zn91  1  0.30906373  0.56210595  0.54127320  1
  Zn  Zn92  1  0.81939428  0.05849295  0.07260092  1
  Zn  Zn93  1  0.85210927  0.08209917  0.54349390  1
  Zn  Zn94  1  0.81495706  0.56452671  0.07316918  1
  Zn  Zn95  1  0.80723890  0.68209733  0.56227344  1
  Zn  Zn96  1  0.43131087  0.43257869  0.19250640  1
  Zn  Zn97  1  0.38703921  0.47978898  0.66013125  1
  Zn  Zn98  1  0.45120767  0.93686255  0.17907023  1
  Zn  Zn99  1  0.47969194  0.91733353  0.66810749  1
  Zn  Zn100  1  0.94157430  0.43583644  0.17845745  1
  Zn  Zn101  1  0.95658561  0.45877273  0.70373478  1
  Zn  Zn102  1  0.93625707  0.92425673  0.20109513  1
  Zn  Zn103  1  0.99861266  0.90002533  0.65189674  1
  Zn  Zn104  1  0.06778681  0.05941387  0.31248138  1
  Zn  Zn105  1  0.04008100  0.06763319  0.82231880  1
  Zn  Zn106  1  0.05473851  0.55816387  0.30622767  1
  Zn  Zn107  1  0.02011986  0.58667598  0.83102919  1
  Zn  Zn108  1  0.56743506  0.06093349  0.31115164  1
  Zn  Zn109  1  0.57851662  0.06546112  0.81812863  1
  Zn  Zn110  1  0.55688625  0.57175589  0.31528766  1
  Zn  Zn111  1  0.51077598  0.59375905  0.82887305  1
  Zn  Zn112  1  0.43036416  0.18821783  0.44401148  1
  Zn  Zn113  1  0.45784973  0.20174496  0.94151352  1
  Zn  Zn114  1  0.44038289  0.70271560  0.43779800  1
  Zn  Zn115  1  0.42742896  0.68171984  0.95180033  1
  Zn  Zn116  1  0.94233858  0.19322913  0.43831572  1
  Zn  Zn117  1  0.94202206  0.18788196  0.93390518  1
  Zn  Zn118  1  0.94579666  0.68364114  0.42570591  1
  Zn  Zn119  1  0.93381984  0.68102016  0.94317345  1
  Zn  Zn120  1  0.05843340  0.31367984  0.07262301  1
  Zn  Zn121  1  0.05992107  0.30780680  0.56046851  1
  Zn  Zn122  1  0.05932364  0.80221412  0.06932781  1
  Zn  Zn123  1  0.12305819  0.82420457  0.54122928  1
  Zn  Zn124  1  0.56827246  0.31152905  0.06089636  1
  Zn  Zn125  1  0.55261535  0.30744413  0.55633588  1
  Zn  Zn126  1  0.57160304  0.82570837  0.05239204  1
  Zn  Zn127  1  0.56053669  0.80955497  0.55982803  1
  O  O128  1  0.11522328  0.11091884  0.12378462  1
  O  O129  1  0.10235537  0.14003548  0.62560459  1
  O  O130  1  0.11397506  0.62048884  0.12057456  1
  O  O131  1  0.12971650  0.64106669  0.59978564  1
  O  O132  1  0.61559485  0.14022269  0.10459927  1
  O  O133  1  0.62179100  0.13454370  0.61090678  1
  O  O134  1  0.60854008  0.65411784  0.12587732  1
  O  O135  1  0.60832628  0.63084911  0.60326944  1
  O  O136  1  0.38202150  0.37801470  0.36564493  1
  O  O137  1  0.37116071  0.38392452  0.90075722  1
  O  O138  1  0.39940151  0.87557874  0.34859025  1
  O  O139  1  0.38673258  0.87122710  0.87864534  1
  O  O140  1  0.88632114  0.37825654  0.38690584  1
  O  O141  1  0.88621844  0.39106724  0.87256055  1
  O  O142  1  0.89884191  0.87917340  0.37559112  1
  O  O143  1  0.87566013  0.87525948  0.89174644  1
  O  O144  1  0.24078788  0.01416905  0.36671370  1
  O  O145  1  0.22232942  0.00293059  0.86824442  1
  O  O146  1  0.26281557  0.49321317  0.36568440  1
  O  O147  1  0.26412169  0.50207545  0.87620313  1
  O  O148  1  0.76876831  -0.01131189  0.36197631  1
  O  O149  1  0.76749482  -0.01245496  0.87736939  1
  O  O150  1  0.76792283  0.49306080  0.37809260  1
  O  O151  1  0.76505914  0.49227825  0.87081411  1
  O  O152  1  0.24630428  0.49990804  0.13965678  1
  O  O153  1  0.27535325  0.47927902  0.61340378  1
  O  O154  1  0.29700343  0.99401505  0.14711042  1
  O  O155  1  0.23757312  0.98359355  0.66256269  1
  O  O156  1  0.77215748  0.48533765  0.14266822  1
  O  O157  1  0.76968187  0.45823909  0.70380534  1
  O  O158  1  0.76008163  0.98724684  0.14205367  1
  O  O159  1  0.75845946  0.89573799  0.60463954  1
  O  O160  1  -0.00088210  0.37474886  0.26598646  1
  O  O161  1  0.00501555  0.36269256  0.74277621  1
  O  O162  1  0.02131278  0.88152180  0.26795691  1
  O  O163  1  -0.01929704  0.86545160  0.76240745  1
  O  O164  1  0.50139196  0.36104717  0.26139232  1
  O  O165  1  0.58948876  0.40309813  0.68669884  1
  O  O166  1  0.52209454  0.88758493  0.25356085  1
  O  O167  1  0.50462685  0.88146644  0.77617171  1
  O  O168  1  0.51456225  0.13243945  0.23731314  1
  O  O169  1  0.51610957  0.11611548  0.73727478  1
  O  O170  1  0.48190791  0.63002071  0.25623461  1
  O  O171  1  0.50797565  0.62063073  0.71891851  1
  O  O172  1  0.99683872  0.12967859  0.25366262  1
  O  O173  1  0.98412645  0.13949607  0.74544117  1
  O  O174  1  0.98494840  0.62258929  0.24538907  1
  O  O175  1  0.99483125  0.62237918  0.72839753  1
  O  O176  1  0.39052895  0.26503325  0.00655800  1
  O  O177  1  0.38905209  0.25345019  0.52305642  1
  O  O178  1  0.34366496  0.74069089  -0.00844236  1
  O  O179  1  0.36778234  0.77809779  0.48418977  1
  O  O180  1  0.87663176  0.24886170  0.00629728  1
  O  O181  1  0.86559108  0.25920730  0.50397017  1
  O  O182  1  0.86671692  0.75672532  -0.00033412  1
  O  O183  1  0.86923754  0.74627521  0.48621542  1
  O  O184  1  0.11414556  0.24521821  0.48041551  1
  O  O185  1  0.12452259  0.23547341  1.02002515  1
  O  O186  1  0.12574113  0.73034476  0.47194589  1
  O  O187  1  0.12811344  0.74511348  0.99988246  1
  O  O188  1  0.63812285  0.24697955  0.49386510  1
  O  O189  1  0.62015532  0.24235131  0.98584304  1
  O  O190  1  0.62051619  0.73830919  0.48951017  1
  O  O191  1  0.61977429  0.74274489  0.99236772  1
  O  O192  1  0.51241175  0.25366391  0.14457677  1
  O  O193  1  0.50249490  0.23682249  0.62743836  1
  O  O194  1  0.46306290  0.78516099  0.10747720  1
  O  O195  1  0.48244922  0.73359721  0.60561071  1
  O  O196  1  0.98476691  0.25665981  0.14310944  1
  O  O197  1  0.98662270  0.24727704  0.63481492  1
  O  O198  1  1.00335045  0.73094390  0.13594529  1
  O  O199  1  0.89513425  0.82392191  0.52256992  1
  O  O200  1  0.00551511  0.25880424  0.37015777  1
  O  O201  1  -0.01150232  0.26565945  0.85883554  1
  O  O202  1  0.01362912  0.75905513  0.36823354  1
  O  O203  1  -0.00100358  0.76110077  0.88642930  1
  O  O204  1  0.51337631  0.25693522  0.36988170  1
  O  O205  1  0.51416892  0.25293160  0.85848257  1
  O  O206  1  0.51563481  0.76769176  0.37521331  1
  O  O207  1  0.49603613  0.75809738  0.88707240  1
  O  O208  1  0.22789786  0.10306926  0.51640536  1
  O  O209  1  0.22805394  0.11305026  1.01056196  1
  O  O210  1  0.23417001  0.61286666  0.47262098  1
  O  O211  1  0.22705864  0.63433967  1.01069781  1
  O  O212  1  0.74924501  0.14197920  0.50449178  1
  O  O213  1  0.74000325  0.11867047  1.00751451  1
  O  O214  1  0.73105785  0.61823043  0.50334659  1
  O  O215  1  0.71517331  0.60081269  1.01015381  1
  O  O216  1  0.25949691  0.37286297  0.01600266  1
  O  O217  1  0.26195308  0.38801755  0.52144755  1
  O  O218  1  0.24202655  0.86590899  -0.00192135  1
  O  O219  1  0.22753395  0.86797240  0.52136974  1
  O  O220  1  0.71762427  0.37924210  0.03594326  1
  O  O221  1  0.76502778  0.37219252  0.49807983  1
  O  O222  1  0.75530365  0.88101684  0.01849159  1
  O  O223  1  0.72786392  0.83512944  0.57595009  1
  O  O224  1  0.13942227  0.49678899  0.25929374  1
  O  O225  1  0.17973140  0.55270109  0.74121685  1
  O  O226  1  0.12561851  0.99498541  0.23337083  1
  O  O227  1  0.12761488  1.00950764  0.76356529  1
  O  O228  1  0.59399890  0.50269042  0.21473326  1
  O  O229  1  0.60789330  0.47064489  0.71275352  1
  O  O230  1  0.64647260  0.98509124  0.26537399  1
  O  O231  1  0.63116513  0.97963581  0.76714328  1
  O  O232  1  0.34473285  -0.01524550  0.20559122  1
  O  O233  1  0.33543511  0.01658036  0.77684629  1
  O  O234  1  0.37156800  0.50866331  0.26172478  1
  O  O235  1  0.39970681  0.46832095  0.77789758  1
  O  O236  1  0.86801514  -0.00411508  0.26216324  1
  O  O237  1  0.86927428  0.00749852  0.74937727  1
  O  O238  1  0.87920858  0.48903905  0.26586980  1
  O  O239  1  0.87646130  0.51504098  0.75545284  1
  O  O240  1  0.11527309  0.36713166  0.38043608  1
  O  O241  1  0.10997019  0.37623288  0.88175034  1
  O  O242  1  0.13064127  0.86239369  0.36145130  1
  O  O243  1  0.09762065  0.86669712  0.88338571  1
  O  O244  1  0.62059499  0.36563526  0.37559038  1
  O  O245  1  0.61991827  0.37002858  0.89293389  1
  O  O246  1  0.62108197  0.86797471  0.36624663  1
  O  O247  1  0.61968035  0.85727298  0.87364431  1
  O  O248  1  0.40559853  0.13501087  0.11706486  1
  O  O249  1  0.39216060  0.13932583  0.63507059  1
  O  O250  1  0.37553600  0.61255231  0.13567303  1
  O  O251  1  0.38527646  0.60074783  0.61913994  1
  O  O252  1  0.87337558  0.14353647  0.12426162  1
  O  O253  1  0.87745767  0.13912024  0.63987320  1
  O  O254  1  0.88132739  0.63205057  0.13858395  1
  O  O255  1  0.88283327  0.63340171  0.62830445  1
  O  O256  1  0.24846458  0.25987497  0.13958440  1
  O  O257  1  0.26655701  0.26423670  0.62403453  1
  O  O258  1  0.24196707  0.75677624  0.11689339  1
  O  O259  1  0.28580738  0.74632864  0.68410373  1
  O  O260  1  0.76673126  0.25949525  0.13027358  1
  O  O261  1  0.76203118  0.25404384  0.61339840  1
  O  O262  1  0.74949735  0.76421488  0.12968846  1
  O  O263  1  0.74386136  0.75850710  0.62325083  1
  O  O264  1  0.23409028  0.24661853  0.36787181  1
  O  O265  1  0.28768877  0.20674716  0.87801064  1
  O  O266  1  0.24306438  0.73954586  0.36428171  1
  O  O267  1  0.22123006  0.75270467  0.88863699  1
  O  O268  1  0.74193530  0.25735346  0.38793648  1
  O  O269  1  0.72309122  0.25868363  0.83668191  1
  O  O270  1  0.73413167  0.76585963  0.38619461  1
  O  O271  1  0.73515864  0.73888931  0.88022420  1
  O  O272  1  0.01370158  0.12192533  -0.00782347  1
  O  O273  1  -0.02606758  0.12525882  0.52472994  1
  O  O274  1  0.00637899  0.62787238  0.01789451  1
  O  O275  1  0.01278865  0.61042905  0.48844943  1
  O  O276  1  0.50961460  0.11907819  0.00425455  1
  O  O277  1  0.51463712  0.12080599  0.49712440  1
  O  O278  1  0.50624086  0.62081386  0.01046865  1
  O  O279  1  0.50102536  0.61515546  0.49489328  1
  O  O280  1  0.50664054  0.38667734  0.47964132  1
  O  O281  1  0.48990389  0.38640436  1.02214595  1
  O  O282  1  0.51132315  0.88136094  0.48298490  1
  O  O283  1  0.51118065  0.89651421  0.98464567  1
  O  O284  1  0.99579010  0.38191201  0.49141583  1
  O  O285  1  0.99840088  0.36942359  0.99230778  1
  O  O286  1  1.03600030  0.88130271  0.47590552  1
  O  O287  1  0.98007858  0.86848315  1.00859209  1
  O  O288  1  0.49570728  0.48376873  0.36580347  1
  O  O289  1  0.47127294  0.47441551  0.82474047  1
  O  O290  1  0.51160257  0.98918404  0.37916694  1
  O  O291  1  0.49385157  1.01017909  0.88114602  1
  O  O292  1  0.99599436  0.48621753  0.38113762  1
  O  O293  1  0.99422946  0.48320867  0.87154523  1
  O  O294  1  0.99288878  0.99591997  0.37373704  1
  O  O295  1  0.97918660  0.97969390  0.86995609  1
  O  O296  1  -0.01119178  0.00148830  0.12982620  1
  O  O297  1  0.00007649  0.01236368  0.63716525  1
  O  O298  1  -0.00445235  0.51862771  0.13083863  1
  O  O299  1  0.00373215  0.49295554  0.60522602  1
  O  O300  1  0.50954380  0.01333495  0.11820576  1
  O  O301  1  0.49197787  0.01656046  0.61011073  1
  O  O302  1  0.54024316  0.49085107  0.16245657  1
  O  O303  1  0.49547292  0.49803731  0.59630189  1
  O  O304  1  0.25930367  0.38580293  0.23827797  1
  O  O305  1  0.26063922  0.38140292  0.73038990  1
  O  O306  1  0.23467698  0.87618014  0.24975385  1
  O  O307  1  0.23661499  0.89786980  0.77173945  1
  O  O308  1  0.74291561  0.36882832  0.24554558  1
  O  O309  1  0.74866974  0.39446856  0.73308231  1
  O  O310  1  0.74672843  0.87895389  0.24095014  1
  O  O311  1  0.73098882  0.86053736  0.75350972  1
  O  O312  1  0.25447183  0.12853634  0.25261416  1
  O  O313  1  0.22885552  0.10651979  0.74590049  1
  O  O314  1  0.25556192  0.61072596  0.25763733  1
  O  O315  1  0.23189319  0.60264172  0.74696365  1
  O  O316  1  0.74462712  0.10811620  0.24430564  1
  O  O317  1  0.76353818  0.12415949  0.74544259  1
  O  O318  1  0.77038863  0.62597402  0.24758940  1
  O  O319  1  0.76228580  0.62630927  0.72804093  1
  O  O320  1  0.34907849  0.13352957  0.38804042  1
  O  O321  1  0.34220935  0.15879646  0.88963629  1
  O  O322  1  0.36041436  0.62804000  0.36999506  1
  O  O323  1  0.40123909  0.60026826  0.87233308  1
  O  O324  1  0.88041516  0.11080457  0.38364609  1
  O  O325  1  0.87976948  0.10908316  0.86493110  1
  O  O326  1  0.88284477  0.61017674  0.36230906  1
  O  O327  1  0.89721804  0.60761306  0.86288993  1
  O  O328  1  0.14138660  0.37551764  0.12195521  1
  O  O329  1  0.13570209  0.36572118  0.62413227  1
  O  O330  1  0.11121159  0.88725640  0.13584960  1
  O  O331  1  0.06215697  0.80891375  0.63115035  1
  O  O332  1  0.65746994  0.38195386  0.09547103  1
  O  O333  1  0.62467149  0.38153302  0.61568302  1
  O  O334  1  0.63474569  0.87260200  0.13818396  1
  O  O335  1  0.59190898  0.86778297  0.65386452  1
  O  O336  1  0.10358289  0.24587655  0.26538648  1
  O  O337  1  0.11346660  0.24284850  0.75136600  1
  O  O338  1  0.12811696  0.75873029  0.25120225  1
  O  O339  1  0.11675655  0.73856767  0.77723959  1
  O  O340  1  0.62682855  0.24193048  0.26569352  1
  O  O341  1  0.66319591  0.26618039  0.77389544  1
  O  O342  1  0.63235682  0.76490632  0.26387456  1
  O  O343  1  0.61726204  0.75038776  0.76932726  1
  O  O344  1  0.39492303  0.24325319  0.25590062  1
  O  O345  1  0.37996640  0.25331096  0.73540159  1
  O  O346  1  0.36196308  0.73342370  0.23923710  1
  O  O347  1  0.32872884  0.74760136  0.74381426  1
  O  O348  1  0.89078617  0.24633692  0.26521484  1
  O  O349  1  0.86944593  0.26199654  0.73676483  1
  O  O350  1  0.87506674  0.74536180  0.26415885  1
  O  O351  1  0.87626350  0.73081621  0.76022602  1
  O  O352  1  0.39044811  0.50599907  0.47035348  1
  O  O353  1  0.37325565  0.49783591  0.99427360  1
  O  O354  1  0.36214161  0.94956853  0.48696459  1
  O  O355  1  0.39343841  1.00979413  1.00319359  1
  O  O356  1  0.88889498  0.48902528  0.48990660  1
  O  O357  1  0.86991085  0.51442869  0.98577540  1
  O  O358  1  0.86373019  0.98923939  0.48426440  1
  O  O359  1  0.87429698  0.99524111  0.99367387  1
  O  O360  1  0.11429309  -0.00173106  0.02468476  1
  O  O361  1  0.18100991  0.04732577  0.52008197  1
  O  O362  1  0.13031900  0.51278208  -0.00479658  1
  O  O363  1  0.11670577  0.50849743  0.49056486  1
  O  O364  1  0.61718302  0.01710567  -0.01202033  1
  O  O365  1  0.64343464  0.02080116  0.49877953  1
  O  O366  1  0.65591355  0.53787359  0.01580596  1
  O  O367  1  0.61017819  0.51513294  0.47976619  1
  O  O368  1  0.36390110  0.38339356  0.11768941  1
  O  O369  1  0.39983107  0.36630739  0.63371372  1
  O  O370  1  0.41071684  0.83898359  0.11804490  1
  O  O371  1  0.38418926  0.86850019  0.62387571  1
  O  O372  1  0.86903797  0.36103677  0.13296073  1
  O  O373  1  0.88409107  0.36653341  0.60938192  1
  O  O374  1  0.86725904  0.87183403  0.11993448  1
  O  O375  1  0.90214817  0.82266103  0.59744004  1
  O  O376  1  0.13819704  0.13127912  0.37269157  1
  O  O377  1  0.10281384  0.11840611  0.90327173  1
  O  O378  1  0.13170914  0.63615217  0.35755141  1
  O  O379  1  0.10183388  0.63711795  0.89729589  1
  O  O380  1  0.62568715  0.13869012  0.38758207  1
  O  O381  1  0.62947549  0.14109129  0.88710497  1
  O  O382  1  0.62260526  0.64088026  0.37780170  1
  O  O383  1  0.60492989  0.63547397  0.88219119  1
