# generated using pymatgen
data_VZnO4
_symmetry_space_group_name_H-M   'P 1'
_cell_length_a   17.00045524
_cell_length_b   16.86483180
_cell_length_c   17.10040977
_cell_angle_alpha   90.38721662
_cell_angle_beta   90.21367037
_cell_angle_gamma   89.91815358
_symmetry_Int_Tables_number   1
_chemical_formula_structural   VZnO4
_chemical_formula_sum   'V64 Zn64 O256'
_cell_volume   4902.70449112
_cell_formula_units_Z   64
loop_
 _symmetry_equiv_pos_site_id
 _symmetry_equiv_pos_as_xyz
  1  'x, y, z'
loop_
 _atom_site_type_symbol
 _atom_site_label
 _atom_site_symmetry_multiplicity
 _atom_site_fract_x
 _atom_site_fract_y
 _atom_site_fract_z
 _atom_site_occupancy
  V  V0  1  0.50265103  -0.00696720  0.49045637  1
  V  V1  1  0.61929807  0.51525996  0.62271930  1
  V  V2  1  0.38376222  0.75879268  0.12393902  1
  V  V3  1  0.39906118  0.62064293  0.24694890  1
  V  V4  1  0.00047763  0.76766879  0.74575378  1
  V  V5  1  0.24094580  0.50542107  0.25015941  1
  V  V6  1  0.61454391  0.13763302  0.50160044  1
  V  V7  1  0.39876233  0.50521925  0.37995626  1
  V  V8  1  0.60831158  0.62479890  0.49413254  1
  V  V9  1  0.50061542  0.87689641  0.85165814  1
  V  V10  1  0.75284312  0.51901397  0.75257449  1
  V  V11  1  0.25920110  0.24527390  -0.00026058  1
  V  V12  1  0.13061501  0.63692699  0.02867890  1
  V  V13  1  0.12065635  0.61354455  0.50227130  1
  V  V14  1  0.22631108  0.38230021  0.63768446  1
  V  V15  1  0.89493535  0.00616183  0.37151652  1
  V  V16  1  0.91316503  0.36404503  -0.01894091  1
  V  V17  1  0.64085222  -0.00883934  0.14285215  1
  V  V18  1  0.76340294  0.74779823  0.50176591  1
  V  V19  1  -0.00567439  -0.01083563  -0.00203971  1
  V  V20  1  0.75830998  0.85006559  0.11598237  1
  V  V21  1  0.39618366  0.74737729  0.63025134  1
  V  V22  1  0.87355693  0.24915818  0.13677652  1
  V  V23  1  0.25241987  0.12516280  0.36317343  1
  V  V24  1  0.37479304  0.88089560  0.49643567  1
  V  V25  1  0.23809893  0.25766645  0.48885486  1
  V  V26  1  0.25790513  0.37964421  0.12886686  1
  V  V27  1  -0.00221720  0.12692958  0.13604078  1
  V  V28  1  0.88883782  0.40495596  0.48484639  1
  V  V29  1  0.38177150  0.61246058  0.74497743  1
  V  V30  1  0.74773426  0.88170820  0.63389209  1
  V  V31  1  0.25673402  -0.01552254  0.26246320  1
  V  V32  1  0.24005033  0.61840007  0.86076165  1
  V  V33  1  0.62288254  0.76891007  0.38471558  1
  V  V34  1  0.75162457  0.51094892  0.26386955  1
  V  V35  1  0.48957123  -0.01587037  0.01212131  1
  V  V36  1  0.25060983  0.63277399  0.37633026  1
  V  V37  1  0.11685665  0.35853814  0.25307481  1
  V  V38  1  0.10401254  -0.00588367  0.61998564  1
  V  V39  1  0.73753878  0.36439917  0.08979469  1
  V  V40  1  0.62309528  0.12935810  -0.00016180  1
  V  V41  1  0.37473700  0.24010169  0.15641835  1
  V  V42  1  0.34529649  0.00614602  0.83308211  1
  V  V43  1  0.51032710  0.76773020  0.25944669  1
  V  V44  1  0.10801603  0.76170343  0.37526777  1
  V  V45  1  0.15159800  0.87391270  0.74547954  1
  V  V46  1  0.74989494  0.38232267  0.62418450  1
  V  V47  1  0.61710833  -0.00001275  0.63463091  1
  V  V48  1  0.25109586  0.75899941  0.51029179  1
  V  V49  1  0.50027339  0.12112937  0.15016961  1
  V  V50  1  0.00926128  0.51354722  0.02324894  1
  V  V51  1  0.76283361  0.25746472  0.49517342  1
  V  V52  1  0.10758471  0.88060108  0.25281784  1
  V  V53  1  0.38252013  0.36479923  0.49150132  1
  V  V54  1  0.89071096  0.62961594  0.75359662  1
  V  V55  1  0.84385296  -0.00793826  0.87355815  1
  V  V56  1  0.64486579  0.74799901  0.88819328  1
  V  V57  1  0.83431806  0.13518453  0.76411372  1
  V  V58  1  0.63681749  0.36348935  0.25063674  1
  V  V59  1  0.75238778  0.11808979  0.37208686  1
  V  V60  1  0.12587817  0.13416282  0.00311137  1
  V  V61  1  0.17679565  -0.06375171  0.07912716  1
  V  V62  1  0.51083495  0.35089152  0.36552018  1
  V  V63  1  0.88310018  0.89538166  0.50873162  1
  Zn  Zn64  1  0.18774263  0.18305013  0.18535202  1
  Zn  Zn65  1  0.11986032  0.12864232  0.50172860  1
  Zn  Zn66  1  0.19791336  0.70606544  0.20225509  1
  Zn  Zn67  1  0.18023526  0.68485070  0.68678224  1
  Zn  Zn68  1  0.69128505  0.18523940  0.18724487  1
  Zn  Zn69  1  0.71729119  0.17198881  0.65980714  1
  Zn  Zn70  1  0.72556620  0.72063728  0.21927165  1
  Zn  Zn71  1  0.69005850  0.69943934  0.68511321  1
  Zn  Zn72  1  0.30677454  0.32098338  0.32537953  1
  Zn  Zn73  1  0.21584998  0.34127544  0.82774026  1
  Zn  Zn74  1  0.32073087  0.81330049  0.31479457  1
  Zn  Zn75  1  0.32031939  0.81553210  0.80712636  1
  Zn  Zn76  1  0.81508917  0.31147315  0.31583140  1
  Zn  Zn77  1  0.85867356  0.34320720  0.78537885  1
  Zn  Zn78  1  0.80616318  0.84204555  0.32372636  1
  Zn  Zn79  1  0.81789019  0.80493129  0.81242574  1
  Zn  Zn80  1  0.19335900  0.44287329  0.42755424  1
  Zn  Zn81  1  0.19944143  0.45440601  0.96156910  1
  Zn  Zn82  1  0.11263022  0.99028106  0.39887080  1
  Zn  Zn83  1  0.18466006  0.80447786  0.92999513  1
  Zn  Zn84  1  0.68715204  0.44540464  0.43196581  1
  Zn  Zn85  1  0.87062403  0.51413990  0.89153116  1
  Zn  Zn86  1  0.69405142  0.94150005  0.44979944  1
  Zn  Zn87  1  0.66674336  0.92520777  0.95420686  1
  Zn  Zn88  1  0.31346759  0.06189179  0.07692582  1
  Zn  Zn89  1  0.30646460  0.06894018  0.55293606  1
  Zn  Zn90  1  0.29381765  0.60683863  0.08715296  1
  Zn  Zn91  1  0.31035624  0.56275078  0.56299053  1
  Zn  Zn92  1  0.80993292  0.06122618  0.05749316  1
  Zn  Zn93  1  0.80910007  0.06381323  0.56483508  1
  Zn  Zn94  1  0.85547077  0.51857577  0.11211067  1
  Zn  Zn95  1  0.80661773  0.56630970  0.55894536  1
  Zn  Zn96  1  0.43665130  0.42774006  0.19929514  1
  Zn  Zn97  1  0.42828731  0.44535806  0.67154134  1
  Zn  Zn98  1  0.43680267  0.93779573  0.19405498  1
  Zn  Zn99  1  0.43155161  0.94337919  0.67739481  1
  Zn  Zn100  1  0.96876098  0.48682107  0.23893472  1
  Zn  Zn101  1  0.92430045  0.47894132  0.65701054  1
  Zn  Zn102  1  0.92629689  0.94257652  0.18424886  1
  Zn  Zn103  1  0.92809642  0.95344139  0.69680280  1
  Zn  Zn104  1  0.06139509  0.17368886  0.32100324  1
  Zn  Zn105  1  0.13267978  0.00201773  0.85389343  1
  Zn  Zn106  1  -0.04155638  0.56272342  0.41607014  1
  Zn  Zn107  1  0.08808033  0.49678519  0.84238866  1
  Zn  Zn108  1  0.57141765  0.05968426  0.32118776  1
  Zn  Zn109  1  0.66656518  0.06076447  0.82389923  1
  Zn  Zn110  1  0.58510794  0.56285323  0.31002511  1
  Zn  Zn111  1  0.58499563  0.62122554  0.78391411  1
  Zn  Zn112  1  0.43430063  0.17753708  0.42682983  1
  Zn  Zn113  1  0.42413273  0.15025604  0.95730188  1
  Zn  Zn114  1  0.43757036  0.69363502  0.43766838  1
  Zn  Zn115  1  0.38483373  0.72119661  0.91843411  1
  Zn  Zn116  1  0.93240839  0.18668472  0.44883185  1
  Zn  Zn117  1  0.93732206  0.15775705  0.93487884  1
  Zn  Zn118  1  0.94597619  0.67636063  0.57204377  1
  Zn  Zn119  1  1.00858066  0.64136681  0.88901772  1
  Zn  Zn120  1  0.06788788  0.31236382  0.07461020  1
  Zn  Zn121  1  0.05110899  0.32777038  0.42739327  1
  Zn  Zn122  1  0.04560050  0.79972382  0.06943504  1
  Zn  Zn123  1  0.06533962  0.81277061  0.56621246  1
  Zn  Zn124  1  0.55774077  0.30183909  0.07785754  1
  Zn  Zn125  1  0.56938631  0.33369889  0.55448567  1
  Zn  Zn126  1  0.57014131  0.80334502  0.07530677  1
  Zn  Zn127  1  0.56377166  0.81565516  0.56860941  1
  O  O128  1  0.10441077  0.13381044  0.12184712  1
  O  O129  1  0.15612809  0.09781615  0.63336506  1
  O  O130  1  0.13736136  0.64129144  0.12661754  1
  O  O131  1  0.13245028  0.62708747  0.60009440  1
  O  O132  1  0.61168273  0.12110397  0.13064080  1
  O  O133  1  0.63204485  0.11343624  0.60804535  1
  O  O134  1  0.62390139  0.54456434  0.05398822  1
  O  O135  1  0.62793380  0.62306163  0.61032204  1
  O  O136  1  0.39894349  0.38736669  0.36620461  1
  O  O137  1  0.42820717  0.30313662  0.84909836  1
  O  O138  1  0.37991401  0.86684730  0.39849378  1
  O  O139  1  0.38010016  0.90476538  0.85727355  1
  O  O140  1  0.87088662  0.37442307  0.39146812  1
  O  O141  1  0.87497168  0.39311036  0.88779455  1
  O  O142  1  0.87112537  0.89654784  0.39653123  1
  O  O143  1  0.86991662  0.89579760  0.86546358  1
  O  O144  1  0.24037308  0.00490192  0.36428247  1
  O  O145  1  0.24890866  0.00865508  0.85647631  1
  O  O146  1  0.25947793  0.51306300  0.36059261  1
  O  O147  1  0.26182321  0.52292884  0.88742893  1
  O  O148  1  0.75533493  0.01416397  0.38704822  1
  O  O149  1  0.74120352  -0.00929409  0.88069817  1
  O  O150  1  0.75477147  0.50751982  0.36329479  1
  O  O151  1  0.74917624  0.51042722  0.84946961  1
  O  O152  1  0.26844626  0.48887428  0.13873380  1
  O  O153  1  0.25436042  0.47332136  0.59906140  1
  O  O154  1  0.24385712  0.99244730  0.13720498  1
  O  O155  1  0.21780605  1.04192955  0.63001959  1
  O  O156  1  0.75306666  0.46395048  0.11187460  1
  O  O157  1  0.74028842  0.49917096  0.62520290  1
  O  O158  1  0.74034286  1.00810307  0.13359129  1
  O  O159  1  0.73184428  0.99037290  0.61528507  1
  O  O160  1  0.02294920  0.37990517  0.23045024  1
  O  O161  1  -0.04661498  0.36741717  0.70762605  1
  O  O162  1  0.00965803  0.88027391  0.23903904  1
  O  O163  1  -0.01213276  0.86769934  0.74603189  1
  O  O164  1  0.51879091  0.37770089  0.25980606  1
  O  O165  1  0.49343007  0.34344095  0.71326362  1
  O  O166  1  0.49876822  0.86612120  0.26142190  1
  O  O167  1  0.50078638  0.88920173  0.75359395  1
  O  O168  1  0.50563875  0.12241137  0.24850453  1
  O  O169  1  0.49281886  0.15566202  0.74191784  1
  O  O170  1  0.49881063  0.62403864  0.25973969  1
  O  O171  1  0.48054085  0.61474423  0.74764185  1
  O  O172  1  0.99801618  0.12748195  0.23372770  1
  O  O173  1  1.03821434  0.14846363  0.77313947  1
  O  O174  1  0.89293125  0.62171955  0.32805787  1
  O  O175  1  0.99049551  0.62806329  0.74436980  1
  O  O176  1  0.36077383  0.23334900  0.01280857  1
  O  O177  1  0.37268652  0.26090382  0.48101926  1
  O  O178  1  0.39935576  0.73538402  0.02800006  1
  O  O179  1  0.36857602  0.75147979  0.51053618  1
  O  O180  1  0.92934952  0.26805319  -0.04221148  1
  O  O181  1  0.86194479  0.26063042  0.50925818  1
  O  O182  1  0.91834951  0.69591374  0.09853701  1
  O  O183  1  0.86398408  0.74996255  0.50799300  1
  O  O184  1  0.13872507  0.26792842  0.48302737  1
  O  O185  1  0.13449634  0.24108119  1.00851469  1
  O  O186  1  0.13962075  0.75829670  0.48838233  1
  O  O187  1  0.11707110  0.74021898  1.00005109  1
  O  O188  1  0.62049365  0.24016335  0.50791705  1
  O  O189  1  0.60324969  0.23069852  1.00573205  1
  O  O190  1  0.62079926  0.74450475  0.49358354  1
  O  O191  1  0.61992645  0.75878733  0.98687082  1
  O  O192  1  0.48232068  0.23796325  0.13562017  1
  O  O193  1  0.51404150  0.29549689  0.65861538  1
  O  O194  1  0.50042133  0.74982881  0.15264880  1
  O  O195  1  0.49501991  0.74283993  0.62293941  1
  O  O196  1  0.98328996  0.24311490  0.11620141  1
  O  O197  1  0.99657419  0.20172224  0.60921935  1
  O  O198  1  0.97499193  0.73608431  0.13917049  1
  O  O199  1  1.00178199  0.74897662  0.63530225  1
  O  O200  1  -0.00461282  0.24331597  0.37866987  1
  O  O201  1  0.02813906  0.20225883  0.82163633  1
  O  O202  1  0.01468543  0.74949547  0.38066392  1
  O  O203  1  0.00790548  0.74576191  0.84487774  1
  O  O204  1  0.50056613  0.25230001  0.36532130  1
  O  O205  1  0.47664511  0.26512356  0.88804582  1
  O  O206  1  0.51054274  0.75064892  0.37075637  1
  O  O207  1  0.47265048  0.78178434  0.87578490  1
  O  O208  1  0.24242595  0.14500843  0.49206684  1
  O  O209  1  0.23766979  0.13614849  1.02402471  1
  O  O210  1  0.24648132  0.63428513  0.49103449  1
  O  O211  1  0.23145928  0.62595145  0.99633578  1
  O  O212  1  0.74272582  0.14402178  0.50294061  1
  O  O213  1  0.72366583  0.12046883  1.01061570  1
  O  O214  1  0.74365132  0.64599523  0.50633871  1
  O  O215  1  0.66271982  0.59110484  1.01612508  1
  O  O216  1  0.25171242  0.36504335  0.02441152  1
  O  O217  1  0.27246830  0.36313666  0.45379326  1
  O  O218  1  0.22320531  0.88504802  0.00884658  1
  O  O219  1  0.26646185  0.86309419  0.50272298  1
  O  O220  1  0.71394815  0.36070296  -0.00212694  1
  O  O221  1  0.74403046  0.36611297  0.49726402  1
  O  O222  1  0.74794602  0.88402833  0.02050208  1
  O  O223  1  0.76427363  0.87009047  0.50879885  1
  O  O224  1  0.14558004  0.50479676  0.24187342  1
  O  O225  1  0.02027726  0.38707570  0.74925055  1
  O  O226  1  0.13426469  0.97937771  0.24836299  1
  O  O227  1  0.12376016  0.97806429  0.73864930  1
  O  O228  1  0.64199613  0.48634012  0.24943623  1
  O  O229  1  0.64080515  0.52566208  0.73167666  1
  O  O230  1  0.62444183  1.00128933  0.24144598  1
  O  O231  1  0.62011521  1.01333113  0.73198868  1
  O  O232  1  0.35556358  -0.00720610  0.25192337  1
  O  O233  1  0.35863037  0.01024725  0.73244365  1
  O  O234  1  0.38054499  0.50882719  0.26300564  1
  O  O235  1  0.36580316  0.51189698  0.73404887  1
  O  O236  1  0.87867349  -0.00388998  0.27445413  1
  O  O237  1  0.86483158  0.01797360  0.76857514  1
  O  O238  1  0.85283171  0.49501048  0.22675073  1
  O  O239  1  0.86545608  0.51130672  0.75297977  1
  O  O240  1  0.12417487  0.38248865  0.35530791  1
  O  O241  1  0.14081919  0.40378620  0.87840962  1
  O  O242  1  0.11473098  0.87317685  0.36529092  1
  O  O243  1  0.14139219  0.87575573  0.84974416  1
  O  O244  1  0.61433951  0.37594181  0.37059964  1
  O  O245  1  0.61617007  0.33300516  0.81888490  1
  O  O246  1  0.62265877  0.86807857  0.39099658  1
  O  O247  1  0.60757254  0.86195902  0.87377180  1
  O  O248  1  0.38393782  0.13117108  0.14002612  1
  O  O249  1  0.37937248  0.14143335  0.61347599  1
  O  O250  1  0.39174857  0.61370490  0.14617396  1
  O  O251  1  0.36686203  0.63668656  0.63089328  1
  O  O252  1  0.87716949  0.14458335  0.11343571  1
  O  O253  1  0.83345498  0.12425616  0.65904393  1
  O  O254  1  0.87772366  0.64691713  0.14095752  1
  O  O255  1  0.89559376  0.59141405  0.62786053  1
  O  O256  1  0.26324287  0.25426546  0.12968472  1
  O  O257  1  0.25247204  0.28446277  0.58646829  1
  O  O258  1  0.28457842  0.72424925  0.13303612  1
  O  O259  1  0.24834402  0.74648997  0.60795382  1
  O  O260  1  0.76175899  0.25623913  0.12824379  1
  O  O261  1  0.74161771  0.27422248  0.61387534  1
  O  O262  1  0.74159675  0.74952111  0.10771750  1
  O  O263  1  0.73600262  0.77041144  0.60830154  1
  O  O264  1  0.24706573  0.23315881  0.37095552  1
  O  O265  1  0.25150947  0.25995275  0.90223828  1
  O  O266  1  0.26323258  0.74161440  0.38602925  1
  O  O267  1  0.26771913  0.73931198  0.88309774  1
  O  O268  1  0.75764309  0.23952774  0.39105957  1
  O  O269  1  0.66469942  0.28496332  0.84223482  1
  O  O270  1  0.73597966  0.76185140  0.39550625  1
  O  O271  1  0.74445110  0.75946918  0.88345589  1
  O  O272  1  0.01332266  0.11699964  0.00794082  1
  O  O273  1  0.00888052  0.15231203  0.53275596  1
  O  O274  1  0.01936352  0.62385684  0.00952485  1
  O  O275  1  0.01602391  0.62942061  0.49155290  1
  O  O276  1  0.50409582  0.10849019  0.02541006  1
  O  O277  1  0.50995054  0.11942623  0.49540348  1
  O  O278  1  0.48358591  0.57480258  -0.01137911  1
  O  O279  1  0.50933112  0.62618725  0.49855603  1
  O  O280  1  0.49360442  0.36876653  0.47665624  1
  O  O281  1  0.49964145  0.40519237  1.04433951  1
  O  O282  1  0.49309958  0.88646648  0.50329131  1
  O  O283  1  0.49885547  0.88723989  1.03726597  1
  O  O284  1  0.98704990  0.39131880  0.49767601  1
  O  O285  1  1.01178084  0.39352807  1.00878818  1
  O  O286  1  0.97840768  0.86880021  0.51252117  1
  O  O287  1  0.99828556  0.89136912  1.02076568  1
  O  O288  1  0.49746741  0.50663299  0.37622487  1
  O  O289  1  0.50961756  0.44528316  0.87734041  1
  O  O290  1  0.50099586  1.00280421  0.39237849  1
  O  O291  1  0.50525768  0.97342928  0.90875315  1
  O  O292  1  1.01405072  0.52338381  0.33152586  1
  O  O293  1  0.99616536  0.52168314  0.90450283  1
  O  O294  1  0.99314659  1.01099048  0.38245158  1
  O  O295  1  1.02086624  0.99536681  0.90234050  1
  O  O296  1  -0.02520422  0.02219666  0.11442947  1
  O  O297  1  0.00728881  0.01239214  0.63885468  1
  O  O298  1  -0.00932925  0.51326258  0.12311148  1
  O  O299  1  0.03720224  0.46568847  0.73648977  1
  O  O300  1  0.50314967  0.01021933  0.13624372  1
  O  O301  1  0.51268654  0.00007519  0.61331027  1
  O  O302  1  0.49373285  0.45978162  0.09747305  1
  O  O303  1  0.52207278  0.49404945  0.62745868  1
  O  O304  1  0.24717312  0.38938427  0.25090205  1
  O  O305  1  0.25940546  0.36706210  0.73302683  1
  O  O306  1  0.24564828  0.87924613  0.26013303  1
  O  O307  1  0.24887722  0.86512524  0.73181758  1
  O  O308  1  0.74064562  0.38180611  0.26137110  1
  O  O309  1  0.76649276  0.39261803  0.72749763  1
  O  O310  1  0.74411127  0.83767093  0.23457130  1
  O  O311  1  0.75652410  0.86846210  0.73051385  1
  O  O312  1  0.23994376  0.11092198  0.25890145  1
  O  O313  1  0.33800763  0.16997804  0.67736767  1
  O  O314  1  0.26537381  0.61853041  0.25738472  1
  O  O315  1  0.24711837  0.62509118  0.75691112  1
  O  O316  1  0.74543482  0.13125782  0.27514947  1
  O  O317  1  0.73020628  0.14446724  0.77274476  1
  O  O318  1  0.73735331  0.60958012  0.24011843  1
  O  O319  1  0.76894786  0.62256459  0.73042291  1
  O  O320  1  0.35119239  0.11434981  0.38194461  1
  O  O321  1  0.38913909  0.09231163  0.87004046  1
  O  O322  1  0.37483072  0.61651038  0.37050992  1
  O  O323  1  0.36375749  0.62988630  0.84971356  1
  O  O324  1  0.86381346  0.11400917  0.39046597  1
  O  O325  1  0.86090792  0.11176809  0.87029912  1
  O  O326  1  0.87973289  0.69696749  0.34158143  1
  O  O327  1  0.88148832  0.62643920  0.85569657  1
  O  O328  1  0.15029617  0.36544432  0.14264962  1
  O  O329  1  0.13032422  0.37929853  0.63282599  1
  O  O330  1  0.12679389  0.86228277  0.13696759  1
  O  O331  1  0.12445182  0.88837505  0.62784791  1
  O  O332  1  0.63652730  0.36055206  0.13948918  1
  O  O333  1  0.64149335  0.39838656  0.61445824  1
  O  O334  1  0.64007124  0.88541387  0.13136704  1
  O  O335  1  0.63261883  0.88945371  0.62191664  1
  O  O336  1  0.12301319  0.25442480  0.25363347  1
  O  O337  1  0.05675501  0.23388248  0.63558235  1
  O  O338  1  0.12980813  0.76375319  0.26836232  1
  O  O339  1  0.11516245  0.76870732  0.73291763  1
  O  O340  1  0.63692403  0.26342538  0.25754626  1
  O  O341  1  0.55225233  0.18832307  0.76637176  1
  O  O342  1  0.61655289  0.74723645  0.27382239  1
  O  O343  1  0.62558116  0.73149685  0.77135966  1
  O  O344  1  0.36796054  0.24630975  0.25344303  1
  O  O345  1  0.36820659  0.22837267  0.71261723  1
  O  O346  1  0.39313121  0.73630653  0.25525982  1
  O  O347  1  0.37439497  0.74444412  0.73082924  1
  O  O348  1  0.87795278  0.26401512  0.23373595  1
  O  O349  1  0.86883089  0.23013159  0.77211845  1
  O  O350  1  0.86394809  0.74065963  0.27821116  1
  O  O351  1  0.88407072  0.73919358  0.74214824  1
  O  O352  1  0.37206832  0.49126900  0.47830030  1
  O  O353  1  0.42299560  0.53854657  0.97291447  1
  O  O354  1  0.38364214  0.98958710  0.51276268  1
  O  O355  1  0.38886287  1.00263212  1.01753142  1
  O  O356  1  0.87729599  0.51027823  0.48001159  1
  O  O357  1  0.89442993  0.49293225  1.00721282  1
  O  O358  1  0.88079406  0.99999514  0.50259899  1
  O  O359  1  0.88439746  1.01012827  0.97981671  1
  O  O360  1  0.11401565  0.00476517  0.03030970  1
  O  O361  1  0.11183819  0.00429707  0.51663031  1
  O  O362  1  0.11867483  0.51691745  0.01897488  1
  O  O363  1  0.12876314  0.51520887  0.48462676  1
  O  O364  1  0.61103994  0.00430829  0.02719637  1
  O  O365  1  0.61154618  0.00541905  0.50512525  1
  O  O366  1  0.57143830  0.46922534  -0.09380765  1
  O  O367  1  0.63272609  0.51769744  0.50648347  1
  O  O368  1  0.36502892  0.35662605  0.14191258  1
  O  O369  1  0.38442414  0.37820191  0.58936622  1
  O  O370  1  0.37483305  0.85706612  0.13691580  1
  O  O371  1  0.38370851  0.85630528  0.61185807  1
  O  O372  1  0.85930878  0.34581999  0.07497641  1
  O  O373  1  0.85427143  0.40132205  0.59241778  1
  O  O374  1  0.85746683  0.87036806  0.13251951  1
  O  O375  1  0.85865082  0.89519472  0.61747930  1
  O  O376  1  0.13387066  0.11156461  0.38545296  1
  O  O377  1  0.13213501  0.11097338  0.90813622  1
  O  O378  1  0.14127455  0.64739473  0.38473868  1
  O  O379  1  0.13503674  0.61443871  0.86768388  1
  O  O380  1  0.63912095  0.12025341  0.39623499  1
  O  O381  1  0.60518541  0.10970497  0.90233736  1
  O  O382  1  0.62672580  0.63326230  0.39221676  1
  O  O383  1  0.61907194  0.64499226  0.88762320  1
