# generated using pymatgen
data_VZnO4
_symmetry_space_group_name_H-M   'P 1'
_cell_length_a   16.86676215
_cell_length_b   16.97722859
_cell_length_c   16.94299256
_cell_angle_alpha   89.87716235
_cell_angle_beta   89.88045657
_cell_angle_gamma   89.85566506
_symmetry_Int_Tables_number   1
_chemical_formula_structural   VZnO4
_chemical_formula_sum   'V64 Zn64 O256'
_cell_volume   4851.60372096
_cell_formula_units_Z   64
loop_
 _symmetry_equiv_pos_site_id
 _symmetry_equiv_pos_as_xyz
  1  'x, y, z'
loop_
 _atom_site_type_symbol
 _atom_site_label
 _atom_site_symmetry_multiplicity
 _atom_site_fract_x
 _atom_site_fract_y
 _atom_site_fract_z
 _atom_site_occupancy
  V  V0  1  0.76358266  0.22277504  0.48703600  1
  V  V1  1  -0.01604703  0.62037898  0.12467894  1
  V  V2  1  0.62700898  0.23597841  0.36906077  1
  V  V3  1  0.74317516  0.25407437  -0.00267945  1
  V  V4  1  0.51552480  0.01201596  0.50257981  1
  V  V5  1  0.23905185  0.88278902  0.62543112  1
  V  V6  1  0.36307034  0.87599694  0.49700156  1
  V  V7  1  -0.00850889  0.87293313  0.37105676  1
  V  V8  1  0.24173784  0.47112685  0.74077358  1
  V  V9  1  0.37184453  0.01485258  0.38094232  1
  V  V10  1  0.51857155  0.62542846  0.61711042  1
  V  V11  1  0.87441660  0.88186203  0.50515445  1
  V  V12  1  0.36418661  0.74055288  0.61121504  1
  V  V13  1  0.13457595  0.73823330  0.36751414  1
  V  V14  1  0.14204319  0.37990209  0.23207026  1
  V  V15  1  0.50572323  0.12301107  0.11432313  1
  V  V16  1  0.13029841  0.61892201  0.49844084  1
  V  V17  1  -0.02342118  0.74128361  0.24878849  1
  V  V18  1  0.26748884  0.75301587  0.00574172  1
  V  V19  1  0.36996335  0.38031647  0.00080157  1
  V  V20  1  0.25396887  0.52137979  0.24729708  1
  V  V21  1  0.24534091  0.26464816  0.50862186  1
  V  V22  1  0.01393651  0.10607934  0.62277583  1
  V  V23  1  0.25110569  0.62112211  0.85927634  1
  V  V24  1  0.37538434  0.12778993  0.25306364  1
  V  V25  1  0.38479515  0.37067799  0.51535014  1
  V  V26  1  0.38016648  0.50204371  0.86875274  1
  V  V27  1  0.23147068  -0.00089628  0.24276244  1
  V  V28  1  -0.00492735  0.87622001  0.86630543  1
  V  V29  1  0.62362646  0.38002130  0.23877283  1
  V  V30  1  0.63264521  0.00236193  0.11727225  1
  V  V31  1  0.50811190  0.37131665  0.86735154  1
  V  V32  1  -0.01313466  0.38426694  0.36008623  1
  V  V33  1  0.12910146  0.26044533  0.37552948  1
  V  V34  1  0.48591101  0.76723123  0.74517330  1
  V  V35  1  -0.01291089  0.49195523  0.50364201  1
  V  V36  1  0.11563644  0.25590276  0.87698020  1
  V  V37  1  0.73608631  0.11624982  0.87306635  1
  V  V38  1  0.12579476  0.62112586  0.01169575  1
  V  V39  1  0.74396688  0.73688101  0.51198891  1
  V  V40  1  -0.00980220  -0.00882716  0.01306965  1
  V  V41  1  0.87649669  0.49875309  0.87015621  1
  V  V42  1  0.88542708  0.10249870  0.76921998  1
  V  V43  1  0.00027669  0.26174823  0.74674654  1
  V  V44  1  0.50573001  0.87481215  0.37491724  1
  V  V45  1  0.37135701  0.51064469  0.37883699  1
  V  V46  1  -0.00032169  0.24401042  0.23913645  1
  V  V47  1  0.76789369  0.39715803  0.12968691  1
  V  V48  1  0.86324989  0.85917985  0.00636234  1
  V  V49  1  0.18629755  0.08421152  0.43085686  1
  V  V50  1  0.25013089  0.23814900  -0.00622130  1
  V  V51  1  0.62306073  0.75938385  0.90751908  1
  V  V52  1  -0.00515656  0.64581887  0.63005410  1
  V  V53  1  0.63288873  0.88101026  0.25733333  1
  V  V54  1  0.37377611  0.25362219  0.12999037  1
  V  V55  1  0.75975278  0.02122464  0.26454001  1
  V  V56  1  0.87984961  0.22174447  0.11771277  1
  V  V57  1  0.49006494  0.36342703  0.36331860  1
  V  V58  1  0.75132690  0.37652539  0.59824336  1
  V  V59  1  0.12310149  0.10472645  0.00680281  1
  V  V60  1  0.12153273  0.74412824  0.86227161  1
  V  V61  1  0.47730726  0.13713394  0.62542399  1
  V  V62  1  0.74554068  0.88088834  0.64001940  1
  V  V63  1  0.12924479  0.88862261  0.75253805  1
  Zn  Zn64  1  0.18687366  0.18649167  0.18645465  1
  Zn  Zn65  1  0.18142061  0.19595183  0.68893643  1
  Zn  Zn66  1  0.16828535  0.74638595  0.16782741  1
  Zn  Zn67  1  0.18718499  0.68782140  0.67366594  1
  Zn  Zn68  1  0.68931053  0.19012609  0.18948841  1
  Zn  Zn69  1  0.86599379  0.23602808  0.63265967  1
  Zn  Zn70  1  0.66625668  0.68424147  0.24335739  1
  Zn  Zn71  1  0.66197102  0.74171494  0.68079508  1
  Zn  Zn72  1  0.30668146  0.30926156  0.31416370  1
  Zn  Zn73  1  0.31095807  0.31026894  0.82094472  1
  Zn  Zn74  1  0.30756191  0.82197908  0.31829079  1
  Zn  Zn75  1  0.31693966  0.80472285  0.80849558  1
  Zn  Zn76  1  0.81065336  0.29898330  0.29860309  1
  Zn  Zn77  1  0.80792017  0.29825094  0.79452859  1
  Zn  Zn78  1  0.81331788  0.81273281  0.31916247  1
  Zn  Zn79  1  0.78250419  0.83177492  0.84606785  1
  Zn  Zn80  1  0.18374151  0.44360939  0.43513523  1
  Zn  Zn81  1  0.18743649  0.43628002  0.93930377  1
  Zn  Zn82  1  0.17708040  0.91999898  0.42444434  1
  Zn  Zn83  1  0.18894715  0.91811122  1.06742461  1
  Zn  Zn84  1  0.69051305  0.39978577  0.43111277  1
  Zn  Zn85  1  0.65897516  0.48646889  0.88169155  1
  Zn  Zn86  1  0.69846307  0.94181923  0.44310610  1
  Zn  Zn87  1  0.66897116  0.93763867  0.92854462  1
  Zn  Zn88  1  0.30088237  0.07464265  0.08182214  1
  Zn  Zn89  1  0.30483365  0.06567363  0.56845871  1
  Zn  Zn90  1  0.28129315  0.55269842  0.05114997  1
  Zn  Zn91  1  0.31170370  0.54924440  0.56028248  1
  Zn  Zn92  1  0.80804124  0.06100787  0.05339321  1
  Zn  Zn93  1  0.82369116  0.05827272  0.57260473  1
  Zn  Zn94  1  0.77148389  0.60782254  0.11141708  1
  Zn  Zn95  1  0.81879885  0.56345402  0.55877542  1
  Zn  Zn96  1  0.42547788  0.44046623  0.19189154  1
  Zn  Zn97  1  0.44636088  0.44877402  0.69058323  1
  Zn  Zn98  1  0.44289044  0.95728454  0.19851874  1
  Zn  Zn99  1  0.43726499  0.94360125  0.67105092  1
  Zn  Zn100  1  0.97407531  0.41799916  0.14252822  1
  Zn  Zn101  1  0.90134968  0.43239129  0.67796579  1
  Zn  Zn102  1  0.92526419  0.92248591  0.18504305  1
  Zn  Zn103  1  0.93742964  0.93002626  0.68274592  1
  Zn  Zn104  1  0.03681575  0.06528070  0.30973024  1
  Zn  Zn105  1  0.06725537  0.06462695  0.82423375  1
  Zn  Zn106  1  0.06608506  0.56420149  0.30095338  1
  Zn  Zn107  1  0.06861927  0.55603339  0.80049431  1
  Zn  Zn108  1  0.55961343  0.06013366  0.30653281  1
  Zn  Zn109  1  0.55876333  0.19020572  0.79633091  1
  Zn  Zn110  1  0.57539933  0.53103773  0.35187841  1
  Zn  Zn111  1  0.56707150  0.62257429  0.79456209  1
  Zn  Zn112  1  0.43601940  0.19390904  0.44354801  1
  Zn  Zn113  1  0.46102337  0.20955344  0.95453805  1
  Zn  Zn114  1  0.44923631  0.68931124  0.44003773  1
  Zn  Zn115  1  0.44331675  0.69420795  0.92120830  1
  Zn  Zn116  1  0.94658548  0.16992956  0.43359316  1
  Zn  Zn117  1  0.94073717  0.18216807  0.94157685  1
  Zn  Zn118  1  0.94662873  0.70012921  0.45820026  1
  Zn  Zn119  1  0.94318122  0.68836326  0.94063735  1
  Zn  Zn120  1  0.06719209  0.31157889  0.05417976  1
  Zn  Zn121  1  0.05032806  0.31412040  0.55929121  1
  Zn  Zn122  1  0.05288803  0.79949026  0.05346920  1
  Zn  Zn123  1  0.06533084  0.80845009  0.55502182  1
  Zn  Zn124  1  0.55992619  0.31487800  0.05798408  1
  Zn  Zn125  1  0.57479612  0.30758456  0.55611790  1
  Zn  Zn126  1  0.66939801  0.79070266  0.10548386  1
  Zn  Zn127  1  0.56265188  0.81646060  0.55754151  1
  O  O128  1  0.12840175  0.13114995  0.10399836  1
  O  O129  1  0.11469331  0.11971321  0.64178068  1
  O  O130  1  0.13124003  0.63808322  0.11066731  1
  O  O131  1  0.11477614  0.62893382  0.60698425  1
  O  O132  1  0.61080664  0.12308479  0.13311763  1
  O  O133  1  0.63299716  0.12035723  0.62479698  1
  O  O134  1  0.55605284  0.63455595  0.22890984  1
  O  O135  1  0.61635696  0.64272491  0.63876576  1
  O  O136  1  0.38440038  0.36452901  0.37579384  1
  O  O137  1  0.37864977  0.37995573  0.88380494  1
  O  O138  1  0.37976490  0.89018498  0.38369471  1
  O  O139  1  0.36219089  0.92827876  0.82034559  1
  O  O140  1  0.88964681  0.36941975  0.34598566  1
  O  O141  1  0.85925383  0.39687815  0.84681874  1
  O  O142  1  0.88322867  0.87460354  0.38310792  1
  O  O143  1  0.89562950  0.86511074  0.86265553  1
  O  O144  1  0.24979110  0.01718650  0.37324622  1
  O  O145  1  0.31863992  0.00169842  0.93239967  1
  O  O146  1  0.26379765  0.49449989  0.36635576  1
  O  O147  1  0.25349109  0.50680787  0.86623624  1
  O  O148  1  0.74756763  0.00586502  0.36396669  1
  O  O149  1  0.73040144  0.01673556  0.87305166  1
  O  O150  1  0.77280759  0.47432275  0.36669687  1
  O  O151  1  0.77389953  0.51718549  0.88175170  1
  O  O152  1  0.27806446  0.50382857  0.14772116  1
  O  O153  1  0.26012229  0.49885700  0.64576952  1
  O  O154  1  0.24857348  0.99101056  0.13667696  1
  O  O155  1  0.24902214  0.98232640  0.62320945  1
  O  O156  1  0.75474577  0.49598355  0.12553724  1
  O  O157  1  0.79081397  0.47114024  0.61897518  1
  O  O158  1  0.73546024  1.01828075  0.13346595  1
  O  O159  1  0.75564191  0.98031721  0.62435565  1
  O  O160  1  0.01967148  0.36795231  0.24695065  1
  O  O161  1  -0.00918476  0.35904976  0.73998748  1
  O  O162  1  -0.01367503  0.85446623  0.25929682  1
  O  O163  1  0.01559076  0.87875298  0.75719936  1
  O  O164  1  0.50127626  0.37138974  0.25775933  1
  O  O165  1  0.50232112  0.38505565  0.76795488  1
  O  O166  1  0.50420910  0.89559646  0.27123449  1
  O  O167  1  0.49664957  0.86506571  0.72156440  1
  O  O168  1  0.48180164  0.11995617  0.24125480  1
  O  O169  1  0.50298601  0.12753533  0.72368322  1
  O  O170  1  0.52062485  0.62150347  0.29655535  1
  O  O171  1  0.47990222  0.65150714  0.72531572  1
  O  O172  1  1.02838890  0.14996013  0.23095385  1
  O  O173  1  0.99772389  0.12088879  0.74897899  1
  O  O174  1  0.99384387  0.63296721  0.24033017  1
  O  O175  1  1.01307963  0.61717456  0.72664659  1
  O  O176  1  0.36393481  0.25052703  0.00446803  1
  O  O177  1  0.35698262  0.26158626  0.49710110  1
  O  O178  1  0.36705545  0.73884830  -0.01100955  1
  O  O179  1  0.37756288  0.77153481  0.49662736  1
  O  O180  1  0.88084059  0.24648929  0.01573312  1
  O  O181  1  0.86690243  0.23586618  0.48179790  1
  O  O182  1  0.87253920  0.75962786  -0.01011762  1
  O  O183  1  0.85317433  0.75800563  0.48480236  1
  O  O184  1  0.12858744  0.26155728  0.48268368  1
  O  O185  1  0.13684103  0.24410562  0.99683905  1
  O  O186  1  0.11615063  0.72961412  0.48437179  1
  O  O187  1  0.13558730  0.73740082  0.98121564  1
  O  O188  1  0.64220555  0.25545156  0.47618529  1
  O  O189  1  0.64250597  0.24972436  1.00829925  1
  O  O190  1  0.64408204  0.76157261  0.49733442  1
  O  O191  1  0.62748957  0.76180035  1.00861462  1
  O  O192  1  0.48421526  0.23836107  0.11769476  1
  O  O193  1  0.50814943  0.23170158  0.60591910  1
  O  O194  1  0.41927304  0.73988367  0.20234533  1
  O  O195  1  0.48285367  0.75137060  0.61839603  1
  O  O196  1  0.99096192  0.25974647  0.13040330  1
  O  O197  1  0.99729123  0.24332901  0.63873098  1
  O  O198  1  0.99666514  0.73762237  0.13965539  1
  O  O199  1  0.99984336  0.74608223  0.62602780  1
  O  O200  1  0.01277612  0.26123669  0.35691462  1
  O  O201  1  0.01062785  0.25084431  0.87624569  1
  O  O202  1  -0.00513780  0.74529807  0.36148189  1
  O  O203  1  0.01562085  0.75654502  0.87752178  1
  O  O204  1  0.50942740  0.25675992  0.37823832  1
  O  O205  1  0.49866584  0.26126989  0.86399420  1
  O  O206  1  0.49483169  0.77627242  0.38038183  1
  O  O207  1  0.43367048  0.77670432  0.83664150  1
  O  O208  1  0.24429956  0.13879635  0.49741542  1
  O  O209  1  0.24385223  0.13119981  0.99905966  1
  O  O210  1  0.22945011  0.60543452  0.50052302  1
  O  O211  1  0.24214682  0.63264805  0.98298486  1
  O  O212  1  0.75669655  0.12413256  0.49948370  1
  O  O213  1  0.76034564  0.13788185  0.97991371  1
  O  O214  1  0.74719353  0.63688992  0.51403671  1
  O  O215  1  0.70394675  0.60537631  0.99692027  1
  O  O216  1  0.26342359  0.35938677  -0.00451237  1
  O  O217  1  0.25453587  0.36766665  0.49635272  1
  O  O218  1  0.25189666  0.85264421  -0.00516633  1
  O  O219  1  0.25668769  0.88051648  0.50114279  1
  O  O220  1  0.75076469  0.35904903  0.03196420  1
  O  O221  1  0.77478385  0.37178072  0.49745999  1
  O  O222  1  0.77046225  0.87947503  -0.03894566  1
  O  O223  1  0.76086622  0.87089406  0.50665562  1
  O  O224  1  0.14352539  0.48930803  0.25210544  1
  O  O225  1  0.14272129  0.48535861  0.75829148  1
  O  O226  1  0.13451330  1.01771909  0.25733083  1
  O  O227  1  0.13449830  0.98568437  0.76343574  1
  O  O228  1  0.62417568  0.47871702  0.25841510  1
  O  O229  1  0.64564228  0.54668697  0.79295059  1
  O  O230  1  0.63567812  0.99905902  0.24539379  1
  O  O231  1  0.65619412  1.07877445  0.67957805  1
  O  O232  1  0.36432336  0.00869000  0.26602566  1
  O  O233  1  0.36264677  -0.02211452  0.76366070  1
  O  O234  1  0.36936915  0.50308214  0.26893854  1
  O  O235  1  0.36349579  0.49004920  0.76647040  1
  O  O236  1  0.85458151  -0.00834140  0.23958299  1
  O  O237  1  0.88138818  0.00410183  0.75296866  1
  O  O238  1  0.86282321  0.54404078  0.27344111  1
  O  O239  1  0.87229247  0.50811640  0.76421222  1
  O  O240  1  0.12225433  0.36771870  0.36265027  1
  O  O241  1  0.12885130  0.35502411  0.88690545  1
  O  O242  1  0.10533381  0.84599549  0.38438156  1
  O  O243  1  0.12481038  0.85802523  0.85851091  1
  O  O244  1  0.60830563  0.36578811  0.36260638  1
  O  O245  1  0.60450754  0.39053987  0.89438645  1
  O  O246  1  0.61300084  0.88874244  0.37188477  1
  O  O247  1  0.60226078  0.85842219  0.88672588  1
  O  O248  1  0.38522473  0.13275914  0.13078340  1
  O  O249  1  0.37612257  0.13288240  0.62158502  1
  O  O250  1  0.45907830  0.57507722  0.10183430  1
  O  O251  1  0.36870087  0.64130308  0.59893006  1
  O  O252  1  0.88676988  0.12379671  0.11663318  1
  O  O253  1  0.88693369  0.12318151  0.64480701  1
  O  O254  1  0.88596088  0.61832289  0.10593878  1
  O  O255  1  0.89577560  0.62295270  0.61956955  1
  O  O256  1  0.26603527  0.24166040  0.11172275  1
  O  O257  1  0.23342319  0.25441034  0.60666197  1
  O  O258  1  0.26337716  0.73413803  0.10572214  1
  O  O259  1  0.25624989  0.76297939  0.61142881  1
  O  O260  1  0.77030652  0.23594805  0.11794016  1
  O  O261  1  0.75245855  0.25429769  0.58895875  1
  O  O262  1  0.71944181  0.69861121  0.14775820  1
  O  O263  1  0.75606127  0.75985696  0.61662131  1
  O  O264  1  0.23525666  0.24955133  0.38170564  1
  O  O265  1  0.24323128  0.24438640  0.88941033  1
  O  O266  1  0.23479523  0.75089116  0.36796153  1
  O  O267  1  0.24648997  0.73553921  0.87282440  1
  O  O268  1  0.74154175  0.24955096  0.37558518  1
  O  O269  1  0.76343028  0.26506150  0.89673243  1
  O  O270  1  0.74650020  0.73222072  0.38112978  1
  O  O271  1  0.71773731  0.74074050  0.87254199  1
  O  O272  1  0.00924305  0.09839338  -0.00056597  1
  O  O273  1  0.00314710  0.13345714  0.52511291  1
  O  O274  1  0.01546591  0.63255266  0.01244233  1
  O  O275  1  0.00478942  0.61331364  0.51242397  1
  O  O276  1  0.49761806  0.12235382  0.01383255  1
  O  O277  1  0.49630538  0.11601166  0.50378889  1
  O  O278  1  0.50323469  0.62346419  0.06483872  1
  O  O279  1  0.51306668  0.63546007  0.51377431  1
  O  O280  1  0.48713030  0.36320892  0.48994968  1
  O  O281  1  0.47853300  0.36109660  0.98853308  1
  O  O282  1  0.48990106  0.89414552  0.49382385  1
  O  O283  1  0.44308182  0.84620179  1.07693597  1
  O  O284  1  0.99656084  0.38326005  0.47200955  1
  O  O285  1  1.00175675  0.39724415  1.03325209  1
  O  O286  1  0.98381587  0.85575855  0.48669821  1
  O  O287  1  0.98564657  0.87278642  0.98880308  1
  O  O288  1  0.48102187  0.47497951  0.37994573  1
  O  O289  1  0.47989295  0.49250924  0.87986901  1
  O  O290  1  0.48957071  1.00251389  0.38838686  1
  O  O291  1  0.48653744  1.01501763  0.88032040  1
  O  O292  1  1.00065786  0.48500947  0.35672134  1
  O  O293  1  0.98212281  0.49353660  0.85975265  1
  O  O294  1  1.01506241  0.96828818  0.36725707  1
  O  O295  1  1.01407956  0.97675589  0.88924970  1
  O  O296  1  0.00118004  -0.02560230  0.11073307  1
  O  O297  1  0.00264923  0.00593840  0.62608691  1
  O  O298  1  0.01029482  0.52480635  0.14061405  1
  O  O299  1  -0.02124168  0.47275660  0.60278956  1
  O  O300  1  0.51089108  0.01441416  0.12780032  1
  O  O301  1  0.49375108  0.01716872  0.60865276  1
  O  O302  1  0.49708663  0.50660193  0.12722740  1
  O  O303  1  0.49891983  0.52631625  0.63066380  1
  O  O304  1  0.24411726  0.37585654  0.24745170  1
  O  O305  1  0.25414567  0.37074556  0.74685301  1
  O  O306  1  0.24510293  0.90065526  0.26735448  1
  O  O307  1  0.23957159  0.86676563  0.73439712  1
  O  O308  1  0.73550301  0.36536545  0.23205537  1
  O  O309  1  0.67729485  0.31626095  0.76337229  1
  O  O310  1  0.73533061  0.87924962  0.26546648  1
  O  O311  1  0.76291324  0.86426914  0.73879470  1
  O  O312  1  0.26365416  0.11408016  0.23877475  1
  O  O313  1  0.28313178  0.15600780  0.75406151  1
  O  O314  1  0.24442508  0.61632805  0.25361811  1
  O  O315  1  0.24646112  0.62338476  0.75914896  1
  O  O316  1  0.75446380  0.12132707  0.25443626  1
  O  O317  1  0.77878429  0.13822596  0.77582667  1
  O  O318  1  0.69207666  0.68089884  0.35440784  1
  O  O319  1  0.82143031  0.68137522  0.74457025  1
  O  O320  1  0.37757915  0.12296725  0.36938383  1
  O  O321  1  0.44385104  0.07157941  0.86382349  1
  O  O322  1  0.38288593  0.60789870  0.39307860  1
  O  O323  1  0.36251240  0.60935162  0.87968245  1
  O  O324  1  0.93688713  0.10396069  0.34726862  1
  O  O325  1  0.89000117  0.10841019  0.87258516  1
  O  O326  1  0.81466895  0.59686799  0.26041420  1
  O  O327  1  0.88992229  0.59998600  0.88737867  1
  O  O328  1  0.13348626  0.37087212  0.13358054  1
  O  O329  1  0.11765623  0.38817886  0.60898263  1
  O  O330  1  0.12771110  0.84439438  0.12361250  1
  O  O331  1  0.13158635  0.86977275  0.63245831  1
  O  O332  1  0.61371442  0.37523594  0.13737796  1
  O  O333  1  0.64958767  0.38131173  0.60373268  1
  O  O334  1  0.62973100  0.89505372  0.14107281  1
  O  O335  1  0.64193322  0.86182437  0.63205709  1
  O  O336  1  0.12959082  0.26257302  0.25416607  1
  O  O337  1  0.11420457  0.24450866  0.76839275  1
  O  O338  1  0.11139076  0.73878434  0.26532816  1
  O  O339  1  0.13087513  0.74630971  0.75967355  1
  O  O340  1  0.62871380  0.26034643  0.26186727  1
  O  O341  1  0.63243747  0.26857150  0.72749931  1
  O  O342  1  0.60926647  0.78531967  0.24079828  1
  O  O343  1  0.59003474  0.74765077  0.76953191  1
  O  O344  1  0.36556001  0.24502287  0.23525980  1
  O  O345  1  0.34152018  0.20294223  0.76656638  1
  O  O346  1  0.37402410  0.73146584  0.26039734  1
  O  O347  1  0.36722653  0.75813203  0.71282442  1
  O  O348  1  0.89184245  0.24204631  0.23592295  1
  O  O349  1  0.89953121  0.23206332  0.76666795  1
  O  O350  1  0.87566225  0.74189773  0.25271286  1
  O  O351  1  0.87260086  0.71903098  0.77968535  1
  O  O352  1  0.36459916  0.47562424  0.48730836  1
  O  O353  1  0.36023931  0.48420927  0.99119199  1
  O  O354  1  0.36973863  0.99661344  0.49115493  1
  O  O355  1  0.35892719  0.99923872  0.99419537  1
  O  O356  1  0.89348259  0.51619613  0.47680865  1
  O  O357  1  0.88383361  0.46825809  0.96757218  1
  O  O358  1  0.87587565  0.98161296  0.49981257  1
  O  O359  1  0.88655957  0.98702659  1.00293499  1
  O  O360  1  0.12693250  0.00184389  0.00683982  1
  O  O361  1  0.13569714  0.01524397  0.48106073  1
  O  O362  1  0.14105084  0.51985087  0.00101926  1
  O  O363  1  0.10303572  0.51012950  0.48471356  1
  O  O364  1  0.62971329  -0.00295565  0.01846178  1
  O  O365  1  0.61350568  0.00201728  0.49808962  1
  O  O366  1  0.65642733  0.54829826  -0.01084872  1
  O  O367  1  0.66150104  0.52096059  0.42845851  1
  O  O368  1  0.38112260  0.36155399  0.11361839  1
  O  O369  1  0.38951383  0.37885310  0.61330737  1
  O  O370  1  0.39037790  0.88119355  0.11554542  1
  O  O371  1  0.36239363  0.87660558  0.60662014  1
  O  O372  1  0.86579886  0.37993441  0.14548061  1
  O  O373  1  0.82694727  0.34076319  0.68017826  1
  O  O374  1  0.85536731  0.86726226  0.10574974  1
  O  O375  1  0.87196132  0.86883740  0.61141741  1
  O  O376  1  0.12014825  0.14150933  0.37372971  1
  O  O377  1  0.12193557  0.13602468  0.89719844  1
  O  O378  1  0.11688282  0.63014675  0.38214072  1
  O  O379  1  0.13173179  0.62901760  0.87392554  1
  O  O380  1  0.61547459  0.13806483  0.36745003  1
  O  O381  1  0.64124278  0.14734094  0.86106991  1
  O  O382  1  0.73278972  0.53787269  0.37839221  1
  O  O383  1  0.55199852  0.67466377  0.90060657  1
