# generated using pymatgen
data_VZnO4
_symmetry_space_group_name_H-M   'P 1'
_cell_length_a   16.89308387
_cell_length_b   16.91072567
_cell_length_c   16.84370733
_cell_angle_alpha   90.29763149
_cell_angle_beta   90.32322315
_cell_angle_gamma   89.66063841
_symmetry_Int_Tables_number   1
_chemical_formula_structural   VZnO4
_chemical_formula_sum   'V64 Zn64 O256'
_cell_volume   4811.58935742
_cell_formula_units_Z   64
loop_
 _symmetry_equiv_pos_site_id
 _symmetry_equiv_pos_as_xyz
  1  'x, y, z'
loop_
 _atom_site_type_symbol
 _atom_site_label
 _atom_site_symmetry_multiplicity
 _atom_site_fract_x
 _atom_site_fract_y
 _atom_site_fract_z
 _atom_site_occupancy
  V  V0  1  0.12664524  0.64826222  -0.01705455  1
  V  V1  1  0.53958622  0.85347917  0.35555431  1
  V  V2  1  0.86211892  0.12531459  0.25406977  1
  V  V3  1  0.63860630  0.36749350  0.73602650  1
  V  V4  1  0.62206347  0.49308882  0.14200470  1
  V  V5  1  0.35647968  0.73586806  0.62229741  1
  V  V6  1  -0.00816704  0.38387905  0.38104402  1
  V  V7  1  0.37514112  0.88603475  0.49459404  1
  V  V8  1  0.48769229  0.50665660  -0.01651876  1
  V  V9  1  0.86764040  0.01811191  0.88985556  1
  V  V10  1  0.25678063  0.50390294  0.23712538  1
  V  V11  1  0.23642850  0.26454075  0.49083929  1
  V  V12  1  0.67769196  0.57655051  -0.06140214  1
  V  V13  1  0.00016783  0.38105341  0.87859810  1
  V  V14  1  0.24955686  0.62409345  0.38036039  1
  V  V15  1  0.73437526  0.01118124  0.76482292  1
  V  V16  1  0.87589011  0.61195458  0.25928158  1
  V  V17  1  0.23320850  0.12920598  0.37242498  1
  V  V18  1  0.86959738  0.87187759  -0.00976080  1
  V  V19  1  0.87303672  0.27007087  0.61862020  1
  V  V20  1  0.50013220  0.86957005  0.87710706  1
  V  V21  1  0.87652916  0.11799114  0.73831238  1
  V  V22  1  0.49852985  0.13055126  0.14010985  1
  V  V23  1  0.23336918  0.86963528  0.12833866  1
  V  V24  1  0.49760277  0.63466610  0.12228043  1
  V  V25  1  0.86777166  0.38383272  -0.00690609  1
  V  V26  1  0.21881589  -0.00691609  0.25295662  1
  V  V27  1  0.13114964  0.37543497  0.25272461  1
  V  V28  1  0.37476341  0.65087637  0.23808492  1
  V  V29  1  0.47506874  0.24803815  0.73486190  1
  V  V30  1  0.74638402  -0.00936484  0.27607950  1
  V  V31  1  0.74929837  0.36940151  0.13909831  1
  V  V32  1  0.74132525  0.86790315  0.13260699  1
  V  V33  1  0.87624665  0.61707302  0.75765452  1
  V  V34  1  0.00173279  0.24764566  0.75885710  1
  V  V35  1  0.76999541  0.88218102  0.62802751  1
  V  V36  1  0.14938656  0.87661648  0.77275671  1
  V  V37  1  0.13344525  0.75892132  0.35694755  1
  V  V38  1  0.39167656  0.36500941  0.48858419  1
  V  V39  1  0.00164837  0.60997540  0.11859154  1
  V  V40  1  0.12906357  0.49088721  0.10504369  1
  V  V41  1  0.38514186  0.09026667  0.26416545  1
  V  V42  1  0.37079260  0.86501350  0.01146498  1
  V  V43  1  0.15341645  0.14309192  -0.00145634  1
  V  V44  1  0.24897977  0.90252370  0.62330550  1
  V  V45  1  0.74388571  0.24344892  -0.00552442  1
  V  V46  1  0.73483418  0.74740199  -0.00359509  1
  V  V47  1  0.24876519  0.38072407  0.63733327  1
  V  V48  1  0.11248638  0.11444893  0.51034239  1
  V  V49  1  0.63334316  0.10255314  0.49254026  1
  V  V50  1  -0.00006641  0.00801193  0.01750612  1
  V  V51  1  0.75801783  0.24014294  0.48743711  1
  V  V52  1  0.49273029  0.74263788  0.74098233  1
  V  V53  1  0.62324869  0.00004672  0.13063911  1
  V  V54  1  0.49963572  0.11692157  0.61812522  1
  V  V55  1  -0.00290116  0.25143550  0.23660680  1
  V  V56  1  0.89060350  0.75198891  0.13153945  1
  V  V57  1  0.49495176  0.00592586  0.00120276  1
  V  V58  1  0.11046699  0.49777701  0.62479957  1
  V  V59  1  0.61944161  0.52515826  0.62907491  1
  V  V60  1  0.48889431  0.36498916  0.86463949  1
  V  V61  1  -0.00215042  0.65149619  0.62514959  1
  V  V62  1  0.50721121  0.51851281  0.49130816  1
  V  V63  1  0.61731527  0.87592598  0.74796290  1
  Zn  Zn64  1  0.15279167  0.16178644  0.19558345  1
  Zn  Zn65  1  0.17641082  0.20662373  0.67167265  1
  Zn  Zn66  1  0.18064544  0.68915036  0.18160406  1
  Zn  Zn67  1  0.17467251  0.69170554  0.70044273  1
  Zn  Zn68  1  0.68762909  0.18700902  0.19232788  1
  Zn  Zn69  1  0.68542761  0.18769061  0.67482743  1
  Zn  Zn70  1  0.69845247  0.66542448  0.17819180  1
  Zn  Zn71  1  0.68805780  0.69827054  0.69272491  1
  Zn  Zn72  1  0.35014044  0.35792104  0.28455609  1
  Zn  Zn73  1  0.32077852  0.47047379  0.80039451  1
  Zn  Zn74  1  0.30546287  0.81710953  0.31441879  1
  Zn  Zn75  1  0.34005507  0.84911302  0.79663099  1
  Zn  Zn76  1  0.82136761  0.31243744  0.32146352  1
  Zn  Zn77  1  0.81197519  0.30573865  0.81400919  1
  Zn  Zn78  1  0.82993195  0.81453481  0.30799891  1
  Zn  Zn79  1  0.79703514  0.78939065  0.80279941  1
  Zn  Zn80  1  0.17572224  0.45764386  0.43336205  1
  Zn  Zn81  1  0.18440419  0.42690977  0.91595868  1
  Zn  Zn82  1  0.18866059  0.94005622  0.43867742  1
  Zn  Zn83  1  0.20409995  0.97439996  0.95682984  1
  Zn  Zn84  1  0.70221841  0.41362240  0.54518667  1
  Zn  Zn85  1  0.67377985  0.41595216  0.93565985  1
  Zn  Zn86  1  0.68236004  0.90597327  0.46032271  1
  Zn  Zn87  1  0.67811932  1.06761871  0.94676344  1
  Zn  Zn88  1  0.31443640  0.05798548  0.07850862  1
  Zn  Zn89  1  0.31051291  0.06652416  0.55816320  1
  Zn  Zn90  1  0.30850064  0.57239970  0.04971376  1
  Zn  Zn91  1  0.32446972  0.54748429  0.56486251  1
  Zn  Zn92  1  0.81217755  0.06760361  0.07792049  1
  Zn  Zn93  1  0.80660455  0.03909744  0.55738567  1
  Zn  Zn94  1  0.80961929  0.55767110  0.07189879  1
  Zn  Zn95  1  0.82451224  0.54950440  0.60858603  1
  Zn  Zn96  1  0.43806669  0.42638309  0.15079117  1
  Zn  Zn97  1  0.43939982  0.42175659  0.66114968  1
  Zn  Zn98  1  0.44679882  0.91201887  0.19937551  1
  Zn  Zn99  1  0.47096699  0.90858536  0.64211917  1
  Zn  Zn100  1  0.93712782  0.43046812  0.18251231  1
  Zn  Zn101  1  0.93428279  0.43754087  0.69868846  1
  Zn  Zn102  1  0.91396181  0.95573082  0.17853643  1
  Zn  Zn103  1  0.92512142  0.90119654  0.74690305  1
  Zn  Zn104  1  0.03819614  0.06715258  0.32072422  1
  Zn  Zn105  1  0.05225111  0.06122939  0.83215110  1
  Zn  Zn106  1  0.06781310  0.56548767  0.30311521  1
  Zn  Zn107  1  0.06474754  0.55923064  0.80347266  1
  Zn  Zn108  1  0.56385150  0.04082247  0.32740302  1
  Zn  Zn109  1  0.54526869  0.07127978  0.81186984  1
  Zn  Zn110  1  0.53139295  0.41993229  0.30746595  1
  Zn  Zn111  1  0.50334981  0.53344512  0.76775378  1
  Zn  Zn112  1  0.41588778  0.16358750  0.46600053  1
  Zn  Zn113  1  0.61973522  0.23922801  0.87062064  1
  Zn  Zn114  1  0.42411338  0.69447923  0.43116419  1
  Zn  Zn115  1  0.43489545  0.68866393  0.93436059  1
  Zn  Zn116  1  0.94308959  0.19701187  0.42404468  1
  Zn  Zn117  1  0.93102577  0.19417311  0.95110479  1
  Zn  Zn118  1  0.95131664  0.56100202  0.44513247  1
  Zn  Zn119  1  0.93411610  0.68376041  0.93853208  1
  Zn  Zn120  1  0.06654737  0.30889468  0.05194110  1
  Zn  Zn121  1  0.06093422  0.31077544  0.56594628  1
  Zn  Zn122  1  0.06035925  0.82418206  0.05115095  1
  Zn  Zn123  1  0.06622960  0.82998737  0.57472035  1
  Zn  Zn124  1  0.55527965  0.31288656  0.06066592  1
  Zn  Zn125  1  0.57142825  0.28736091  0.55475690  1
  Zn  Zn126  1  0.56104834  0.81821547  0.06441991  1
  Zn  Zn127  1  0.54335938  0.78044885  0.53293958  1
  O  O128  1  0.12689079  0.11771823  0.09433623  1
  O  O129  1  0.12522054  0.12542696  0.61111272  1
  O  O130  1  0.11229077  0.61922104  0.11404931  1
  O  O131  1  0.10519300  0.62048874  0.64163529  1
  O  O132  1  0.61287848  0.10778420  0.14412359  1
  O  O133  1  0.61238088  0.12514633  0.61314751  1
  O  O134  1  0.61060172  0.60961679  0.13554361  1
  O  O135  1  0.62301262  0.62541652  0.63602255  1
  O  O136  1  0.36578957  0.38387216  0.39260891  1
  O  O137  1  0.39299354  0.38638245  0.85608343  1
  O  O138  1  0.37218664  0.85951357  0.39527235  1
  O  O139  1  0.38578136  0.88708472  0.89219713  1
  O  O140  1  0.89162381  0.39017467  0.36564567  1
  O  O141  1  0.87212331  0.37372543  0.88696306  1
  O  O142  1  0.91811990  0.86455587  0.36875358  1
  O  O143  1  0.85374767  0.88488483  0.89107109  1
  O  O144  1  0.24452357  0.00741884  0.35881169  1
  O  O145  1  0.22249907  0.07905276  0.77400489  1
  O  O146  1  0.24320928  0.51567768  0.34922269  1
  O  O147  1  0.24972694  0.50264371  0.87619896  1
  O  O148  1  0.74398128  -0.01957893  0.37280897  1
  O  O149  1  0.75309934  0.00496430  0.87285112  1
  O  O150  1  0.78324258  0.55004183  0.44736500  1
  O  O151  1  0.73378966  0.50937161  0.88866686  1
  O  O152  1  0.23560331  0.50950727  0.12480515  1
  O  O153  1  0.24602508  0.48453414  0.61783334  1
  O  O154  1  0.25164884  0.99197713  0.14854067  1
  O  O155  1  0.24966831  1.00234419  0.62782024  1
  O  O156  1  0.73153644  0.49221827  0.12873610  1
  O  O157  1  0.72502231  0.49931471  0.62050728  1
  O  O158  1  0.73993078  0.98549429  0.12962089  1
  O  O159  1  0.75520550  0.98652946  0.65760208  1
  O  O160  1  0.01272760  0.37462825  0.25070499  1
  O  O161  1  -0.01677764  0.35770657  0.76652404  1
  O  O162  1  -0.03015788  0.90883189  0.32646730  1
  O  O163  1  0.03858557  0.90677529  0.76359667  1
  O  O164  1  0.45575641  0.36575249  0.24553852  1
  O  O165  1  0.50417771  0.35978241  0.74262144  1
  O  O166  1  0.51363373  0.84062289  0.25666965  1
  O  O167  1  0.49455384  0.87936318  0.76370427  1
  O  O168  1  0.49077620  0.10581331  0.25684074  1
  O  O169  1  0.49580357  0.13871722  0.73554613  1
  O  O170  1  0.47847851  0.62582164  0.23252920  1
  O  O171  1  0.50270296  0.64674470  0.75471465  1
  O  O172  1  1.03909654  0.15636866  0.24032410  1
  O  O173  1  0.98039262  0.13004869  0.76127305  1
  O  O174  1  0.99489041  0.62300979  0.22551548  1
  O  O175  1  0.98350765  0.62445249  0.74394303  1
  O  O176  1  0.30103283  0.29653071  -0.03331803  1
  O  O177  1  0.35155719  0.25965704  0.48590020  1
  O  O178  1  0.37219793  0.76650273  -0.00578421  1
  O  O179  1  0.37042749  0.75763938  0.51871785  1
  O  O180  1  0.85263854  0.25978361  0.00494534  1
  O  O181  1  0.87950621  0.23822659  0.51733635  1
  O  O182  1  0.86686115  0.75922743  0.01032785  1
  O  O183  1  0.83503230  0.75026513  0.46866916  1
  O  O184  1  0.13378903  0.23853960  0.49904628  1
  O  O185  1  0.15156940  0.24505172  1.00831301  1
  O  O186  1  0.09031861  0.75591759  0.47470254  1
  O  O187  1  0.11521425  0.74887204  0.98750839  1
  O  O188  1  0.65200549  0.23175293  0.49415903  1
  O  O189  1  0.63589206  0.26323457  0.99371769  1
  O  O190  1  0.66134326  0.79713652  0.53274735  1
  O  O191  1  0.63631094  0.75474424  1.00654706  1
  O  O192  1  0.51061255  0.22639019  0.14197194  1
  O  O193  1  0.49885077  0.24198535  0.63106248  1
  O  O194  1  0.50905380  0.73273260  0.11741028  1
  O  O195  1  0.48906356  0.75656863  0.63566522  1
  O  O196  1  0.99715461  0.26989226  0.13710539  1
  O  O197  1  0.98319895  0.25734755  0.64251647  1
  O  O198  1  0.99027456  0.75416959  0.12032756  1
  O  O199  1  1.00791575  0.75158525  0.63245179  1
  O  O200  1  -0.00139102  0.27258162  0.35245362  1
  O  O201  1  -0.01856465  0.25102884  0.86365322  1
  O  O202  1  0.03458542  0.75399476  0.41535637  1
  O  O203  1  -0.03102167  0.77498748  0.86061039  1
  O  O204  1  0.61118249  0.25091441  0.25957560  1
  O  O205  1  0.49394655  0.26047946  0.85585048  1
  O  O206  1  0.51177164  0.76950863  0.41761655  1
  O  O207  1  0.49060840  0.76487594  0.86432250  1
  O  O208  1  0.24125698  0.12848726  0.48502243  1
  O  O209  1  0.24583797  0.08470721  0.98921693  1
  O  O210  1  0.26747172  0.60888759  0.47661801  1
  O  O211  1  0.22636797  0.63273514  1.00083300  1
  O  O212  1  0.74399043  0.11848501  0.50698135  1
  O  O213  1  0.74608565  0.13634571  1.01502482  1
  O  O214  1  0.75531759  0.61150138  0.47890599  1
  O  O215  1  0.74498468  0.63559551  1.00823044  1
  O  O216  1  0.26819291  0.36498301  -0.01110219  1
  O  O217  1  0.23514453  0.36543282  0.48234173  1
  O  O218  1  0.26474759  0.89289001  0.01853059  1
  O  O219  1  0.25431152  0.88042635  0.51694599  1
  O  O220  1  0.75417982  0.36656338  0.00507577  1
  O  O221  1  0.75756831  0.34300297  0.48213626  1
  O  O222  1  0.75675809  0.86294440  0.02162228  1
  O  O223  1  0.77815117  0.91317699  0.53030609  1
  O  O224  1  0.13250448  0.49459004  0.23063571  1
  O  O225  1  0.13187799  0.50327481  0.73028932  1
  O  O226  1  0.12028618  1.00283310  0.25091988  1
  O  O227  1  0.08224399  0.97960425  0.74913257  1
  O  O228  1  0.60718046  0.48326455  0.23952420  1
  O  O229  1  0.60777585  0.48408795  0.72979792  1
  O  O230  1  0.64090929  0.99695062  0.24581595  1
  O  O231  1  0.63232487  0.99750178  0.76693455  1
  O  O232  1  0.38057653  -0.00888653  0.26204837  1
  O  O233  1  0.34819056  0.05152732  0.84919316  1
  O  O234  1  0.35648382  0.49419397  0.22269947  1
  O  O235  1  0.39902168  0.50285224  0.73015942  1
  O  O236  1  0.85363892  0.00255171  0.25941265  1
  O  O237  1  0.86673207  0.00355888  0.77348107  1
  O  O238  1  0.87838325  0.51407439  0.23426526  1
  O  O239  1  0.85581545  0.51851842  0.73261702  1
  O  O240  1  0.12228240  0.38461697  0.35511812  1
  O  O241  1  0.09904423  0.36026858  0.89006914  1
  O  O242  1  0.14712251  0.85825061  0.37022526  1
  O  O243  1  0.17268204  0.90868631  0.86610470  1
  O  O244  1  0.60797673  0.33822228  0.36137428  1
  O  O245  1  0.60843418  0.37495780  0.84967969  1
  O  O246  1  0.64164596  0.84980944  0.36873676  1
  O  O247  1  0.60092487  0.88139554  0.86793649  1
  O  O248  1  0.38657485  0.11522498  0.15369860  1
  O  O249  1  0.39675744  0.13338847  0.58523845  1
  O  O250  1  0.38280447  0.62755386  0.12568970  1
  O  O251  1  0.36902566  0.63673696  0.62192969  1
  O  O252  1  0.88590915  0.10813636  0.15647076  1
  O  O253  1  0.87745194  0.09851894  0.64162065  1
  O  O254  1  0.88631660  0.63691299  0.11909946  1
  O  O255  1  0.88764085  0.63896820  0.63746873  1
  O  O256  1  0.28517554  0.24861134  0.16019965  1
  O  O257  1  0.24342655  0.26759929  0.60459232  1
  O  O258  1  0.24471130  0.76934917  0.13051131  1
  O  O259  1  0.25564025  0.74664012  0.63745357  1
  O  O260  1  0.73493155  0.26335303  0.11904244  1
  O  O261  1  0.76932237  0.23970302  0.61274049  1
  O  O262  1  0.75279646  0.75636891  0.12657142  1
  O  O263  1  0.70898565  0.79083202  0.60357912  1
  O  O264  1  0.24120971  0.23235751  0.37726824  1
  O  O265  1  0.27787071  0.26490219  0.90171075  1
  O  O266  1  0.24258134  0.73557298  0.36908006  1
  O  O267  1  0.29434141  0.66601241  0.83340705  1
  O  O268  1  0.79223932  0.22394836  0.38988991  1
  O  O269  1  0.74570196  0.24706106  0.88920512  1
  O  O270  1  0.78636585  0.76827408  0.41497172  1
  O  O271  1  0.74924809  0.75619984  0.89896315  1
  O  O272  1  -0.02140384  0.10827838  0.01051553  1
  O  O273  1  0.01546601  0.13366179  0.48831725  1
  O  O274  1  0.00628233  0.63308509  0.01171785  1
  O  O275  1  -0.00612865  0.62668830  0.52677606  1
  O  O276  1  0.49421471  0.10788450  0.03302905  1
  O  O277  1  0.51988025  0.13073038  0.50457669  1
  O  O278  1  0.49225496  0.61844529  0.00696696  1
  O  O279  1  0.49483501  0.61816602  0.48805610  1
  O  O280  1  0.49043681  0.34499440  0.49267920  1
  O  O281  1  0.50953183  0.39109645  0.97039814  1
  O  O282  1  0.47651673  0.87993641  0.52685433  1
  O  O283  1  0.49431246  0.88184739  0.99494277  1
  O  O284  1  1.00691295  0.36636673  0.47964048  1
  O  O285  1  0.97866720  0.36203887  0.99084294  1
  O  O286  1  0.98427242  0.89181640  0.51396244  1
  O  O287  1  0.97309271  0.88366937  1.00252891  1
  O  O288  1  0.51749827  0.48746341  0.39557170  1
  O  O289  1  0.49532047  0.50941378  0.88113885  1
  O  O290  1  0.51572563  0.95106396  0.37623721  1
  O  O291  1  0.50106963  1.00137959  0.89747107  1
  O  O292  1  1.01424740  0.49313234  0.37610954  1
  O  O293  1  0.99881356  0.47956308  0.86425500  1
  O  O294  1  1.00821116  0.96041461  0.37198015  1
  O  O295  1  0.97085310  0.99928995  0.89295793  1
  O  O296  1  -0.00199584  -0.01273151  0.11862456  1
  O  O297  1  -0.03999665  -0.03953391  0.54748690  1
  O  O298  1  0.00874001  0.50611152  0.11618133  1
  O  O299  1  0.00710736  0.49001052  0.62713603  1
  O  O300  1  0.51622421  -0.01367701  0.13203123  1
  O  O301  1  0.49087730  0.02028896  0.63997719  1
  O  O302  1  0.51220589  0.50480556  0.10633333  1
  O  O303  1  0.51294090  0.49966947  0.61018401  1
  O  O304  1  0.24195899  0.39312955  0.24775999  1
  O  O305  1  0.26187736  0.37685353  0.73466257  1
  O  O306  1  0.24570540  0.88491701  0.24203368  1
  O  O307  1  0.25407906  0.89048804  0.73825884  1
  O  O308  1  0.75496683  0.36324063  0.23927200  1
  O  O309  1  0.73692514  0.37267000  0.75339701  1
  O  O310  1  0.75858987  0.88038248  0.24382692  1
  O  O311  1  0.72966537  0.87545396  0.74986122  1
  O  O312  1  0.24768653  0.10992983  0.25621067  1
  O  O313  1  0.25178898  0.14283002  0.75192783  1
  O  O314  1  0.26030112  0.61963303  0.23897700  1
  O  O315  1  0.25684397  0.62659760  0.77777218  1
  O  O316  1  0.75540521  0.11416261  0.25902340  1
  O  O317  1  0.75544987  0.11274903  0.74827929  1
  O  O318  1  0.77436075  0.63329221  0.25310956  1
  O  O319  1  0.78851689  0.68836736  0.74279479  1
  O  O320  1  0.36433942  0.12779898  0.36171803  1
  O  O321  1  0.36365915  0.12106071  0.86171297  1
  O  O322  1  0.36219934  0.63518182  0.34990628  1
  O  O323  1  0.35700531  0.62590344  0.86479512  1
  O  O324  1  0.92598143  0.11051719  0.33823141  1
  O  O325  1  0.86476776  0.11852490  0.87658640  1
  O  O326  1  0.89947927  0.62084707  0.35688906  1
  O  O327  1  0.87849738  0.62561964  0.85952552  1
  O  O328  1  0.12111168  0.38921023  0.12318814  1
  O  O329  1  0.13490359  0.38261829  0.62423104  1
  O  O330  1  0.13497218  0.87975739  0.11708093  1
  O  O331  1  0.14606446  0.87546959  0.64064741  1
  O  O332  1  0.63216991  0.38700097  0.11692505  1
  O  O333  1  0.63024141  0.36285830  0.62742159  1
  O  O334  1  0.63629949  0.87875614  0.13135135  1
  O  O335  1  0.59974658  0.89721654  0.65294986  1
  O  O336  1  0.13116828  0.27432678  0.23337502  1
  O  O337  1  0.10070249  0.23873429  0.75134733  1
  O  O338  1  0.11454158  0.74807196  0.25789068  1
  O  O339  1  0.14041099  0.77653769  0.77480106  1
  O  O340  1  0.64796300  0.28310674  0.32379948  1
  O  O341  1  0.62727982  0.25855309  0.74804623  1
  O  O342  1  0.61642472  0.67958903  0.31200636  1
  O  O343  1  0.60714096  0.76893824  0.74644161  1
  O  O344  1  0.33068967  0.25036412  0.21949733  1
  O  O345  1  0.37948866  0.25201105  0.73764858  1
  O  O346  1  0.36927077  0.74933159  0.23998726  1
  O  O347  1  0.38404259  0.75852745  0.73945520  1
  O  O348  1  0.88642719  0.23407574  0.24839663  1
  O  O349  1  0.86854712  0.23149857  0.73582215  1
  O  O350  1  0.88203941  0.74210556  0.23488919  1
  O  O351  1  0.92414022  0.78596140  0.79589017  1
  O  O352  1  0.40308114  0.48200453  0.50665706  1
  O  O353  1  0.38873323  0.50075598  1.00412678  1
  O  O354  1  0.36550297  0.98656427  0.49302045  1
  O  O355  1  0.39341730  0.99198161  1.01736646  1
  O  O356  1  0.85150048  0.51458299  0.49583157  1
  O  O357  1  0.86771128  0.48388758  1.00511444  1
  O  O358  1  0.91074219  1.00081235  0.50211202  1
  O  O359  1  0.86359558  0.99137013  1.00151649  1
  O  O360  1  0.09568870  -0.00943694  -0.00540650  1
  O  O361  1  0.12253009  0.01336026  0.49532385  1
  O  O362  1  0.12929094  0.49752882  0.00497003  1
  O  O363  1  0.12744087  0.50868243  0.52139565  1
  O  O364  1  0.61522968  0.00071535  0.02222302  1
  O  O365  1  0.63298141  0.00267367  0.50521683  1
  O  O366  1  0.61425557  0.50941112  -0.00539713  1
  O  O367  1  0.61655557  0.49944547  0.51675681  1
  O  O368  1  0.44401317  0.34263143  0.07352638  1
  O  O369  1  0.35530437  0.37220738  0.59761881  1
  O  O370  1  0.38127407  0.86996236  0.11491970  1
  O  O371  1  0.35679947  0.87152750  0.62366093  1
  O  O372  1  0.85468809  0.37915929  0.11656615  1
  O  O373  1  0.86698088  0.36940834  0.62565721  1
  O  O374  1  0.86515228  0.86322413  0.12595489  1
  O  O375  1  0.86338471  0.85886145  0.65887197  1
  O  O376  1  0.13118243  0.12036362  0.37690641  1
  O  O377  1  0.10867676  0.12313011  0.90688865  1
  O  O378  1  0.14132939  0.63347520  0.36577616  1
  O  O379  1  0.10832767  0.62423285  0.88620254  1
  O  O380  1  0.62305310  0.11334175  0.39064386  1
  O  O381  1  0.61514749  0.12733061  0.87797612  1
  O  O382  1  0.64189482  0.64682941  0.37156762  1
  O  O383  1  0.62910830  0.63091338  0.87467989  1
