# generated using pymatgen
data_VZnO4
_symmetry_space_group_name_H-M   'P 1'
_cell_length_a   17.05712533
_cell_length_b   16.93135058
_cell_length_c   16.98162129
_cell_angle_alpha   89.45032518
_cell_angle_beta   90.43679595
_cell_angle_gamma   90.65749903
_symmetry_Int_Tables_number   1
_chemical_formula_structural   VZnO4
_chemical_formula_sum   'V64 Zn64 O256'
_cell_volume   4903.60806416
_cell_formula_units_Z   64
loop_
 _symmetry_equiv_pos_site_id
 _symmetry_equiv_pos_as_xyz
  1  'x, y, z'
loop_
 _atom_site_type_symbol
 _atom_site_label
 _atom_site_symmetry_multiplicity
 _atom_site_fract_x
 _atom_site_fract_y
 _atom_site_fract_z
 _atom_site_occupancy
  V  V0  1  0.53733824  0.25575251  0.18518495  1
  V  V1  1  0.00612905  -0.00684610  0.02516681  1
  V  V2  1  0.23543674  0.65053151  0.84439535  1
  V  V3  1  0.76680041  0.15140390  0.38184702  1
  V  V4  1  -0.01186649  0.36772830  0.88110676  1
  V  V5  1  0.12304123  0.49517904  0.64125481  1
  V  V6  1  0.23586574  -0.03723702  0.25902350  1
  V  V7  1  0.10573015  0.35222048  0.74403023  1
  V  V8  1  0.62002905  0.76969578  0.36516638  1
  V  V9  1  0.73441720  0.62195224  0.37724570  1
  V  V10  1  0.74354605  0.12197945  0.86316227  1
  V  V11  1  0.85906801  -0.03049137  0.42524913  1
  V  V12  1  0.61886373  0.48821603  0.61968197  1
  V  V13  1  0.25579016  0.11879928  0.87274753  1
  V  V14  1  0.49896677  0.63544367  0.62556999  1
  V  V15  1  0.75249654  0.37543080  0.60229055  1
  V  V16  1  0.25817407  0.37141999  0.62722523  1
  V  V17  1  0.87115060  0.00140673  0.84552152  1
  V  V18  1  0.12317390  0.65540095  -0.01958454  1
  V  V19  1  0.64081759  0.64054366  -0.00491798  1
  V  V20  1  0.03499475  0.84050377  0.38020118  1
  V  V21  1  0.89917746  0.25926990  0.11202282  1
  V  V22  1  0.62790312  0.49766715  0.11871399  1
  V  V23  1  0.90058447  0.75304069  0.13411712  1
  V  V24  1  0.14517894  0.41008454  0.24379991  1
  V  V25  1  0.48467871  0.61329099  0.12886915  1
  V  V26  1  0.89408333  0.63312745  0.25090221  1
  V  V27  1  0.30596953  0.78202370  0.50988548  1
  V  V28  1  -0.00596082  0.49345935  0.50382394  1
  V  V29  1  0.86596024  0.76164069  0.61098284  1
  V  V30  1  0.48821623  0.00503830  0.50518678  1
  V  V31  1  0.12404780  0.51572248  0.10028637  1
  V  V32  1  0.33607034  0.49935691  0.87038096  1
  V  V33  1  0.00133226  0.74680312  0.75026285  1
  V  V34  1  0.90395349  0.13423593  0.25168657  1
  V  V35  1  0.49287185  0.35930933  0.40031025  1
  V  V36  1  0.88008056  0.49751741  0.37274800  1
  V  V37  1  0.00365547  0.87551925  0.87307980  1
  V  V38  1  0.02665912  0.26779823  0.23827574  1
  V  V39  1  0.74649885  0.86830094  0.13811627  1
  V  V40  1  0.49705157  0.50369701  -0.02512521  1
  V  V41  1  0.77317184  0.01185974  0.24334548  1
  V  V42  1  0.25872809  0.11995911  0.35543247  1
  V  V43  1  0.76229015  0.37915083  0.10604811  1
  V  V44  1  0.24827411  0.23399744  0.50560214  1
  V  V45  1  0.63197347  0.02706968  0.13246294  1
  V  V46  1  0.10904910  0.88285889  0.72531201  1
  V  V47  1  0.45309463  -0.01237594  0.00181510  1
  V  V48  1  0.87353349  0.87411262  0.00651706  1
  V  V49  1  0.12405534  0.01372680  0.60439291  1
  V  V50  1  0.75013528  0.48342831  0.76707637  1
  V  V51  1  0.12491066  0.11699678  0.02039065  1
  V  V52  1  0.01723316  0.38559700  0.37266640  1
  V  V53  1  0.11267282  0.22895111  0.87461390  1
  V  V54  1  0.86408310  0.61754099  0.76582292  1
  V  V55  1  -0.00728547  0.12754908  0.64009042  1
  V  V56  1  0.51232988  0.24066099  0.79822687  1
  V  V57  1  0.30719310  0.34398637  0.00488627  1
  V  V58  1  0.47779351  0.73366304  0.25393696  1
  V  V59  1  0.49586744  0.15771986  0.62553454  1
  V  V60  1  0.75841507  0.23522064  -0.00520020  1
  V  V61  1  0.75563261  0.49569124  0.24294680  1
  V  V62  1  0.13472565  0.62589798  0.50813869  1
  V  V63  1  -0.01259633  0.61713348  0.62771927  1
  Zn  Zn64  1  0.11704003  0.09510301  0.23981500  1
  Zn  Zn65  1  0.19115343  0.18350658  0.68804562  1
  Zn  Zn66  1  0.22340263  0.60357453  0.20421776  1
  Zn  Zn67  1  0.23211701  0.76065042  0.71146855  1
  Zn  Zn68  1  0.71248742  0.19799105  0.19160118  1
  Zn  Zn69  1  0.67228269  0.21050136  0.69812399  1
  Zn  Zn70  1  0.68222474  0.68151400  0.19640059  1
  Zn  Zn71  1  0.69642694  0.66325824  0.66262675  1
  Zn  Zn72  1  0.30594880  0.31409880  0.33589257  1
  Zn  Zn73  1  0.28743614  0.31702095  0.82160141  1
  Zn  Zn74  1  0.27342614  0.75527432  0.31057044  1
  Zn  Zn75  1  0.24670901  0.98820641  0.74605450  1
  Zn  Zn76  1  0.83358550  0.31939440  0.29604128  1
  Zn  Zn77  1  0.82004050  0.29414841  0.79561693  1
  Zn  Zn78  1  0.80923656  0.80718390  0.31598733  1
  Zn  Zn79  1  0.83064696  0.81313700  0.80254511  1
  Zn  Zn80  1  0.18871846  0.45339800  0.45153685  1
  Zn  Zn81  1  0.16898702  0.43069744  0.92543085  1
  Zn  Zn82  1  0.21125843  0.93246796  0.44164198  1
  Zn  Zn83  1  0.18150253  0.94284788  0.93198230  1
  Zn  Zn84  1  0.66794203  0.44475084  0.42917334  1
  Zn  Zn85  1  0.68692541  0.43239967  0.93977596  1
  Zn  Zn86  1  0.65421919  0.98455434  0.36587521  1
  Zn  Zn87  1  0.70765394  0.97243217  0.96857972  1
  Zn  Zn88  1  0.29626053  0.05247303  0.07853652  1
  Zn  Zn89  1  0.32052778  0.06369698  0.57502408  1
  Zn  Zn90  1  0.30417500  0.57759164  0.03555663  1
  Zn  Zn91  1  0.28841339  0.62461968  0.62990259  1
  Zn  Zn92  1  0.83612021  0.06945499  0.07202971  1
  Zn  Zn93  1  0.81968345  0.18552741  0.59362229  1
  Zn  Zn94  1  0.81788270  0.57754122  0.05507345  1
  Zn  Zn95  1  0.80867508  0.55293072  0.55941717  1
  Zn  Zn96  1  0.45450722  0.39191873  0.11866574  1
  Zn  Zn97  1  0.41181217  0.48512220  0.67679434  1
  Zn  Zn98  1  0.52656836  0.89603377  0.15607716  1
  Zn  Zn99  1  0.38137915  1.10149911  0.75818744  1
  Zn  Zn100  1  0.93074356  0.46804059  0.14986920  1
  Zn  Zn101  1  0.92625292  0.42816758  0.69317115  1
  Zn  Zn102  1  0.94764707  0.92844385  0.20697041  1
  Zn  Zn103  1  0.89690550  0.97846552  0.61926636  1
  Zn  Zn104  1  0.05870210  0.03729560  0.41679044  1
  Zn  Zn105  1  0.05182090  0.05647904  0.80163334  1
  Zn  Zn106  1  0.09523487  0.66500684  0.31351440  1
  Zn  Zn107  1  0.05607142  0.55831691  0.81344758  1
  Zn  Zn108  1  0.56461857  0.16674871  0.33099101  1
  Zn  Zn109  1  0.53343644  0.10066443  0.88763327  1
  Zn  Zn110  1  0.56212709  0.53427929  0.30294801  1
  Zn  Zn111  1  0.58669851  0.57178991  0.80727924  1
  Zn  Zn112  1  0.42227975  0.19569125  0.43789975  1
  Zn  Zn113  1  0.43379193  0.18584746  1.03157661  1
  Zn  Zn114  1  0.44560188  0.66673575  0.43783025  1
  Zn  Zn115  1  0.42309403  0.65848329  0.79606265  1
  Zn  Zn116  1  1.11453133  0.22086478  0.38646696  1
  Zn  Zn117  1  0.93959488  0.17271974  0.93527908  1
  Zn  Zn118  1  0.94215052  0.68311339  0.43772631  1
  Zn  Zn119  1  0.98463959  0.51263413  0.97812731  1
  Zn  Zn120  1  0.09478580  0.32279991  0.05474845  1
  Zn  Zn121  1  0.06410719  0.30421913  0.55510890  1
  Zn  Zn122  1  -0.06484375  0.69441824  -0.05732779  1
  Zn  Zn123  1  0.04868932  0.80534573  0.55676806  1
  Zn  Zn124  1  0.55780257  0.29837023  -0.02129846  1
  Zn  Zn125  1  0.52151447  0.34630482  0.61209624  1
  Zn  Zn126  1  0.51200267  0.78338949  0.02652179  1
  Zn  Zn127  1  0.51446531  0.79721407  0.52491549  1
  O  O128  1  0.13049059  0.12042351  0.11773637  1
  O  O129  1  0.11478119  0.11676598  0.62613748  1
  O  O130  1  0.12481528  0.62577696  0.08383848  1
  O  O131  1  0.10248915  0.60074491  0.63389907  1
  O  O132  1  0.64442081  0.12606121  0.13180812  1
  O  O133  1  0.59628335  0.14732444  0.64359750  1
  O  O134  1  0.63398702  0.60813780  0.11867442  1
  O  O135  1  0.60724189  0.60330729  0.63173014  1
  O  O136  1  0.39856743  0.37330125  0.36498152  1
  O  O137  1  0.32740207  0.38821719  0.90821076  1
  O  O138  1  0.43130163  0.93770861  0.34138652  1
  O  O139  1  0.42285940  0.80197011  0.88303248  1
  O  O140  1  0.90114509  0.39272782  0.35400704  1
  O  O141  1  0.89127957  0.35109995  0.86730392  1
  O  O142  1  0.84759030  0.87343973  0.39769807  1
  O  O143  1  0.87461914  0.88769023  0.88470485  1
  O  O144  1  0.25407857  0.00756303  0.36159290  1
  O  O145  1  0.23468541  0.01279735  0.86165551  1
  O  O146  1  0.26841560  0.51174663  0.38510926  1
  O  O147  1  0.23504451  0.50244675  0.86429558  1
  O  O148  1  0.77703094  0.01722287  0.36407136  1
  O  O149  1  0.76566294  0.00896663  0.88057993  1
  O  O150  1  0.76075478  0.49794381  0.36095400  1
  O  O151  1  0.75158969  0.49004157  0.86663326  1
  O  O152  1  0.23451298  0.53382028  0.11815661  1
  O  O153  1  0.22380143  0.48458740  0.63892368  1
  O  O154  1  0.28138200  0.99037074  0.17264132  1
  O  O155  1  0.22857293  1.01020356  0.62906349  1
  O  O156  1  0.75725523  0.49489149  0.12437068  1
  O  O157  1  0.73951445  0.49112817  0.62849278  1
  O  O158  1  0.75887210  1.00564163  0.13491865  1
  O  O159  1  0.66595610  0.96335904  0.62477955  1
  O  O160  1  0.02835118  0.38060588  0.25291957  1
  O  O161  1  0.00175797  0.36304151  0.75501898  1
  O  O162  1  -0.01126379  0.88238388  0.29879812  1
  O  O163  1  0.00114911  0.86731570  0.75709563  1
  O  O164  1  0.48827895  0.34042340  0.21373366  1
  O  O165  1  0.45584989  0.33622119  0.80740349  1
  O  O166  1  0.48484148  0.83348445  0.23683455  1
  O  O167  1  0.52631046  0.89073124  0.79259785  1
  O  O168  1  0.50230535  0.17412209  0.23550009  1
  O  O169  1  0.49051312  0.13709335  0.77678528  1
  O  O170  1  0.50197066  0.60958983  0.23645773  1
  O  O171  1  0.51246907  0.62915696  0.74447313  1
  O  O172  1  1.01024074  0.15055747  0.24547335  1
  O  O173  1  0.99273305  0.13031925  0.73975656  1
  O  O174  1  0.99121316  0.62875903  0.25693101  1
  O  O175  1  0.98558606  0.62725861  0.74733176  1
  O  O176  1  0.34596736  0.25224395  0.00157454  1
  O  O177  1  0.34046822  0.26730114  0.48247318  1
  O  O178  1  0.45411313  0.74278895  -0.07071730  1
  O  O179  1  0.40607603  0.76313554  0.49111311  1
  O  O180  1  0.88628835  0.24585528  0.01005862  1
  O  O181  1  0.87904301  0.27195603  0.50720280  1
  O  O182  1  0.88461589  0.76329636  0.01909311  1
  O  O183  1  0.88281946  0.74076816  0.51396739  1
  O  O184  1  0.14248009  0.25745393  0.49123058  1
  O  O185  1  0.11290630  0.22114445  0.98836074  1
  O  O186  1  0.12092395  0.72437825  0.52520230  1
  O  O187  1  0.11880021  0.75095345  0.98235287  1
  O  O188  1  0.63557271  0.24077956  0.50674983  1
  O  O189  1  0.66277491  0.24371289  1.00302202  1
  O  O190  1  0.60360687  0.75545780  0.46517998  1
  O  O191  1  0.61334150  0.73627789  1.01486786  1
  O  O192  1  0.51677338  0.25313839  0.07976554  1
  O  O193  1  0.49109636  0.25656790  0.67576237  1
  O  O194  1  0.49124837  0.71851047  0.13156273  1
  O  O195  1  0.50139933  0.73516036  0.62257069  1
  O  O196  1  1.00582163  0.27473069  0.12665493  1
  O  O197  1  1.00301332  0.22237670  0.60304549  1
  O  O198  1  0.99459929  0.75316380  0.13736008  1
  O  O199  1  0.98571276  0.73549220  0.63283583  1
  O  O200  1  0.01758924  0.27624721  0.35409428  1
  O  O201  1  0.00867954  0.24665513  0.87528205  1
  O  O202  1  0.02317884  0.73506357  0.37238569  1
  O  O203  1  -0.01782620  0.76918189  0.86325343  1
  O  O204  1  0.50939017  0.25771474  0.38077535  1
  O  O205  1  0.50755388  0.21617506  0.90584784  1
  O  O206  1  0.50679555  0.72729735  0.35851825  1
  O  O207  1  0.40794462  0.77886666  0.81005042  1
  O  O208  1  0.25399512  0.13241138  0.50032009  1
  O  O209  1  0.22645438  0.10694389  0.98975790  1
  O  O210  1  0.23091462  0.60568841  0.53264923  1
  O  O211  1  0.23327278  0.63511191  0.96554662  1
  O  O212  1  0.77881212  0.14767072  0.48116123  1
  O  O213  1  0.77110540  0.13215569  0.99979918  1
  O  O214  1  0.75750829  0.61289407  0.47471215  1
  O  O215  1  0.74175718  0.63817058  1.00464849  1
  O  O216  1  0.20397953  0.35016831  0.00569776  1
  O  O217  1  0.23966747  0.38212674  0.52604654  1
  O  O218  1  0.27063399  0.85610425  -0.04352611  1
  O  O219  1  0.28534833  0.88096996  0.50894281  1
  O  O220  1  0.76804055  0.36841425  0.00440168  1
  O  O221  1  0.74251667  0.38676331  0.50248957  1
  O  O222  1  0.76614780  0.88756255  0.02675807  1
  O  O223  1  0.68407571  0.91152641  0.57876173  1
  O  O224  1  0.15259996  0.51006879  0.24700459  1
  O  O225  1  0.10708375  0.47847981  0.74303270  1
  O  O226  1  0.13769626  0.97959728  0.24439381  1
  O  O227  1  0.11500699  0.98910368  0.73491532  1
  O  O228  1  0.64810900  0.49972141  0.23025227  1
  O  O229  1  0.64841023  0.50072882  0.74501474  1
  O  O230  1  0.67029320  1.01157132  0.25129783  1
  O  O231  1  0.55514981  0.93890121  0.74672864  1
  O  O232  1  0.41256283  -0.01386603  0.29115445  1
  O  O233  1  0.36427513  -0.01862581  0.75848399  1
  O  O234  1  0.39850490  0.48356469  0.25451941  1
  O  O235  1  0.37695778  0.47407109  0.78520348  1
  O  O236  1  0.88821809  0.02550093  0.23494886  1
  O  O237  1  0.86469700  -0.01053290  0.74877197  1
  O  O238  1  0.87455135  0.51690050  0.24789896  1
  O  O239  1  0.86591137  0.51041166  0.75301282  1
  O  O240  1  0.12022646  0.40459941  0.36611371  1
  O  O241  1  0.11382939  0.35306063  0.85790776  1
  O  O242  1  0.13154444  0.86938336  0.38563148  1
  O  O243  1  0.10385379  0.88442191  0.86691648  1
  O  O244  1  0.64624482  0.28171763  0.44795306  1
  O  O245  1  0.61037681  0.36238696  0.90300078  1
  O  O246  1  0.63121401  0.86983840  0.35650834  1
  O  O247  1  0.69427810  0.84116286  0.85171327  1
  O  O248  1  0.35674374  0.14577551  0.12638193  1
  O  O249  1  0.39112066  0.12366191  0.64530711  1
  O  O250  1  0.38813000  0.59728578  0.11617438  1
  O  O251  1  0.39585082  0.59749632  0.65405708  1
  O  O252  1  0.88958252  0.15098392  0.13317958  1
  O  O253  1  0.89360993  0.10227197  0.61204834  1
  O  O254  1  0.87274016  0.64525990  0.14085118  1
  O  O255  1  0.88112540  0.61786124  0.63118705  1
  O  O256  1  0.30943971  0.20571272  0.16084911  1
  O  O257  1  0.24614174  0.25727068  0.61529277  1
  O  O258  1  0.16912081  0.81917727  0.12491611  1
  O  O259  1  0.28199380  0.74473435  0.60779518  1
  O  O260  1  0.77519060  0.26331927  0.11289721  1
  O  O261  1  0.74018851  0.26392120  0.62099280  1
  O  O262  1  0.74931345  0.76813372  0.14704388  1
  O  O263  1  0.76717033  0.74029172  0.62427078  1
  O  O264  1  0.23576053  0.23026378  0.37816572  1
  O  O265  1  0.22433904  0.23047345  0.87206585  1
  O  O266  1  0.26371322  0.74275203  0.42725501  1
  O  O267  1  0.24474768  0.74748707  0.84764612  1
  O  O268  1  0.77218613  0.25017721  0.35873804  1
  O  O269  1  0.77096424  0.23115849  0.88578144  1
  O  O270  1  0.72796060  0.73200349  0.36200916  1
  O  O271  1  0.73578182  0.77740339  0.87481578  1
  O  O272  1  0.00865353  0.10023463  0.00290196  1
  O  O273  1  -0.07608526  0.23444414  0.46519763  1
  O  O274  1  0.01878305  0.62413069  -0.03549314  1
  O  O275  1  0.00332726  0.61072866  0.51373897  1
  O  O276  1  0.47442325  0.08005007  0.03924477  1
  O  O277  1  0.48774814  0.18726672  0.53038854  1
  O  O278  1  0.51448465  0.60401233  0.02022481  1
  O  O279  1  0.48694209  0.61002169  0.52808273  1
  O  O280  1  0.49580429  0.36312659  0.50005396  1
  O  O281  1  0.49599777  0.40481804  1.00740488  1
  O  O282  1  0.50482120  0.90665878  0.51455969  1
  O  O283  1  0.48612413  0.89275662  1.04722807  1
  O  O284  1  1.01045450  0.38039204  0.48079236  1
  O  O285  1  1.01113181  0.36506173  0.98080711  1
  O  O286  1  0.99820493  0.86212665  0.47235603  1
  O  O287  1  0.99268187  0.88735348  0.98355245  1
  O  O288  1  0.56554023  0.43350557  0.36674966  1
  O  O289  1  0.51647359  0.50494785  0.87923901  1
  O  O290  1  0.51767206  1.06729039  0.40640436  1
  O  O291  1  0.48513448  0.99762052  0.90589530  1
  O  O292  1  0.99502710  0.49763623  0.38644569  1
  O  O293  1  1.00003818  0.47441368  0.86998393  1
  O  O294  1  0.95254555  1.00830218  0.41261716  1
  O  O295  1  0.98167551  0.98750390  0.86330527  1
  O  O296  1  0.01040509  -0.01953266  0.12255603  1
  O  O297  1  0.01270680  0.01802362  0.61135537  1
  O  O298  1  0.03277569  0.51548623  0.14094761  1
  O  O299  1  -0.00707107  0.49632459  0.62030213  1
  O  O300  1  0.54027113  0.00851067  0.16896054  1
  O  O301  1  0.50971114  0.04132519  0.59615767  1
  O  O302  1  0.52399932  0.49591104  0.13256882  1
  O  O303  1  0.51797823  0.46312381  0.64453038  1
  O  O304  1  0.23504861  0.37377780  0.26811625  1
  O  O305  1  0.22280722  0.35864808  0.73537781  1
  O  O306  1  0.25975726  0.86638952  0.27725081  1
  O  O307  1  0.21140015  0.86978200  0.74055813  1
  O  O308  1  0.76821991  0.39108814  0.23293307  1
  O  O309  1  0.75880093  0.38358813  0.74827420  1
  O  O310  1  0.78203828  0.89876596  0.24034897  1
  O  O311  1  0.72768163  0.87697017  0.78738319  1
  O  O312  1  0.23918989  0.12212885  0.25843028  1
  O  O313  1  0.25739832  0.12419938  0.76131651  1
  O  O314  1  0.32849818  0.49825239  0.24821649  1
  O  O315  1  0.23957165  0.64382038  0.73730055  1
  O  O316  1  0.78250386  0.12521189  0.24663969  1
  O  O317  1  0.73795561  0.13380259  0.76503220  1
  O  O318  1  0.75927496  0.61361233  0.25949908  1
  O  O319  1  0.76233398  0.61624632  0.74723187  1
  O  O320  1  0.35786164  0.13620315  0.36450455  1
  O  O321  1  0.35239209  0.12424032  0.88291298  1
  O  O322  1  0.36722124  0.59792574  0.38040649  1
  O  O323  1  0.34099222  0.61148108  0.85537889  1
  O  O324  1  0.88367797  0.13986121  0.34953429  1
  O  O325  1  0.87453053  0.10509330  0.86728878  1
  O  O326  1  0.87304246  0.61764670  0.36332018  1
  O  O327  1  0.87181904  0.63376391  0.86356451  1
  O  O328  1  0.13583404  0.40106683  0.13718983  1
  O  O329  1  0.10952252  0.37585360  0.63606831  1
  O  O330  1  0.12496886  0.81985666  0.18104263  1
  O  O331  1  0.10162766  0.88964824  0.62244627  1
  O  O332  1  0.65590644  0.39097910  0.11202747  1
  O  O333  1  0.64101608  0.38053027  0.62907292  1
  O  O334  1  0.64974861  0.88973637  0.14364953  1
  O  O335  1  0.62879147  0.81552020  0.69314448  1
  O  O336  1  0.12306992  0.25859092  0.23416335  1
  O  O337  1  0.11463341  0.24670963  0.75486769  1
  O  O338  1  0.19352480  0.68752594  0.26313880  1
  O  O339  1  0.10291199  0.76343980  0.73354526  1
  O  O340  1  0.63186894  0.26755639  0.22307150  1
  O  O341  1  0.60886571  0.25694923  0.78172432  1
  O  O342  1  0.60781777  0.73569622  0.26081291  1
  O  O343  1  0.62313690  0.75465606  0.73384700  1
  O  O344  1  0.34810923  0.25237896  0.20548341  1
  O  O345  1  0.39558019  0.28232716  0.79350269  1
  O  O346  1  0.37906510  0.71968555  0.26665777  1
  O  O347  1  0.39426500  0.87406285  0.67834941  1
  O  O348  1  0.90239072  0.25148360  0.23409610  1
  O  O349  1  0.84658578  0.23385890  0.70593026  1
  O  O350  1  0.87657917  0.74230584  0.24839597  1
  O  O351  1  0.88131999  0.73621191  0.73793729  1
  O  O352  1  0.33550056  0.53544317  0.41936593  1
  O  O353  1  0.38754890  0.51843477  0.96820584  1
  O  O354  1  0.38841269  1.02162302  0.49576361  1
  O  O355  1  0.35198867  0.98565616  1.00458464  1
  O  O356  1  0.88475962  0.50167361  0.48578327  1
  O  O357  1  0.89796386  0.50502019  1.04374462  1
  O  O358  1  0.83383758  0.97690307  0.52064563  1
  O  O359  1  0.89362414  0.98925934  1.01174389  1
  O  O360  1  0.11265895  -0.00029010  0.00198395  1
  O  O361  1  0.13097059  0.00064467  0.50239893  1
  O  O362  1  0.11047277  0.49372666  0.00085920  1
  O  O363  1  0.10877855  0.49967599  0.52238960  1
  O  O364  1  0.62535411  0.00123053  0.03202922  1
  O  O365  1  0.58476048  0.03104377  0.44448136  1
  O  O366  1  0.62619429  0.50907485  0.00802062  1
  O  O367  1  0.62064456  0.49639991  0.52070565  1
  O  O368  1  0.34626584  0.39394828  0.08305970  1
  O  O369  1  0.35457146  0.38900262  0.63934256  1
  O  O370  1  0.28069628  0.81396498  0.01605174  1
  O  O371  1  0.39880427  0.94736509  0.68268283  1
  O  O372  1  0.87529098  0.36666943  0.12704164  1
  O  O373  1  0.85261123  0.38301053  0.61914908  1
  O  O374  1  0.87907772  0.86433430  0.12710667  1
  O  O375  1  0.87976262  0.86040356  0.62716984  1
  O  O376  1  0.12550979  0.11012630  0.36346807  1
  O  O377  1  0.11641851  0.12487951  0.86988527  1
  O  O378  1  0.12941455  0.60864374  0.40952814  1
  O  O379  1  0.13077257  0.63009194  0.86211241  1
  O  O380  1  0.66664760  0.13217545  0.36119311  1
  O  O381  1  0.64879614  0.10954069  0.89029594  1
  O  O382  1  0.63754363  0.59807920  0.37087814  1
  O  O383  1  0.62448959  0.63077174  0.89624373  1
