# generated using pymatgen
data_VZnO4
_symmetry_space_group_name_H-M   'P 1'
_cell_length_a   17.02281325
_cell_length_b   17.04316572
_cell_length_c   17.04615352
_cell_angle_alpha   90.05830748
_cell_angle_beta   89.96721194
_cell_angle_gamma   91.42429108
_symmetry_Int_Tables_number   1
_chemical_formula_structural   VZnO4
_chemical_formula_sum   'V64 Zn64 O256'
_cell_volume   4943.94359885
_cell_formula_units_Z   64
loop_
 _symmetry_equiv_pos_site_id
 _symmetry_equiv_pos_as_xyz
  1  'x, y, z'
loop_
 _atom_site_type_symbol
 _atom_site_label
 _atom_site_symmetry_multiplicity
 _atom_site_fract_x
 _atom_site_fract_y
 _atom_site_fract_z
 _atom_site_occupancy
  V  V0  1  0.64002847  0.46486247  0.58974430  1
  V  V1  1  0.60559113  0.63849038  -0.00071796  1
  V  V2  1  0.48063317  0.36464821  0.37494931  1
  V  V3  1  -0.01495714  0.39426943  0.38149035  1
  V  V4  1  0.11552434  -0.02651226  0.10669045  1
  V  V5  1  0.63059260  0.89607139  0.75564009  1
  V  V6  1  0.66100095  0.12332478  0.00215166  1
  V  V7  1  0.49404489  0.76756539  0.75800699  1
  V  V8  1  0.25258136  0.26764498  0.50461358  1
  V  V9  1  0.36776390  0.11621065  0.25340809  1
  V  V10  1  0.72966788  0.11795974  0.38039459  1
  V  V11  1  0.62067353  -0.01143109  0.11563505  1
  V  V12  1  0.38763305  0.60120627  0.74547651  1
  V  V13  1  0.61181693  0.86840651  0.25306657  1
  V  V14  1  0.64025354  0.36158916  0.23779414  1
  V  V15  1  0.01845922  0.12553800  0.13390681  1
  V  V16  1  0.62369789  0.24341815  0.37976747  1
  V  V17  1  0.48133181  0.12216594  0.61552563  1
  V  V18  1  0.75336928  0.74785786  -0.02731615  1
  V  V19  1  0.85878850  0.50921714  0.85809860  1
  V  V20  1  0.13327911  0.62271327  0.49545423  1
  V  V21  1  0.74644587  0.00544703  0.24374336  1
  V  V22  1  0.25320239  0.75606414  0.47697037  1
  V  V23  1  0.49787724  0.11338697  0.11040389  1
  V  V24  1  0.66262140  0.24983780  0.88297164  1
  V  V25  1  0.87254863  0.77270507  0.62151119  1
  V  V26  1  0.49750659  0.24081089  0.24253784  1
  V  V27  1  0.12299970  0.87048853  0.71383093  1
  V  V28  1  0.50108093  0.92327923  0.88055024  1
  V  V29  1  0.87147254  0.01607415  0.42923044  1
  V  V30  1  0.74398870  0.51673407  0.24754983  1
  V  V31  1  0.20278133  0.42917604  0.11764860  1
  V  V32  1  0.13041296  0.27687724  0.36128710  1
  V  V33  1  0.22845646  0.11392997  0.38614854  1
  V  V34  1  0.66659643  0.74823590  0.35850285  1
  V  V35  1  0.00401078  0.75214509  0.76007476  1
  V  V36  1  0.63114353  0.02320749  0.61749285  1
  V  V37  1  0.40403741  0.75156104  0.12045575  1
  V  V38  1  0.76385387  0.03020603  0.75255366  1
  V  V39  1  0.63555888  0.64083615  0.49940627  1
  V  V40  1  0.86740130  0.24735504  0.13138815  1
  V  V41  1  0.75457857  0.86048945  0.12016399  1
  V  V42  1  0.01895153  0.82739800  0.34343838  1
  V  V43  1  0.61934739  0.48684103  0.11084622  1
  V  V44  1  0.19736557  0.72875828  0.89767937  1
  V  V45  1  0.16334235  0.50590224  0.63588586  1
  V  V46  1  0.47153597  0.23979417  0.74882643  1
  V  V47  1  0.13922079  0.37857097  0.74566681  1
  V  V48  1  0.49504546  0.35478185  0.88531499  1
  V  V49  1  -0.00883179  0.24969094  0.75060633  1
  V  V50  1  0.24357361  0.01291055  0.75418995  1
  V  V51  1  -0.01519301  0.61703965  0.13992566  1
  V  V52  1  -0.01405856  0.61452693  0.63035273  1
  V  V53  1  0.84331164  0.50424654  0.39768794  1
  V  V54  1  0.23928943  -0.02106759  0.24445980  1
  V  V55  1  0.36485765  0.24031340  0.10869208  1
  V  V56  1  0.36397211  0.79402546  0.62244057  1
  V  V57  1  0.01758059  0.40022642  0.88294766  1
  V  V58  1  0.88797270  0.28836265  0.60353209  1
  V  V59  1  0.12910403  0.23998748  0.87482381  1
  V  V60  1  0.36809646  0.88675268  0.00022729  1
  V  V61  1  0.86960075  -0.02136271  0.88293129  1
  V  V62  1  0.38246329  -0.01379805  0.38400134  1
  V  V63  1  0.11465811  0.02001145  0.61044837  1
  Zn  Zn64  1  0.18426874  0.17570543  0.18686486  1
  Zn  Zn65  1  0.18750224  0.18926131  0.68608594  1
  Zn  Zn66  1  0.16166063  0.80400836  0.21489719  1
  Zn  Zn67  1  0.20408749  0.68702642  0.71392651  1
  Zn  Zn68  1  0.69000840  0.18662559  0.17922500  1
  Zn  Zn69  1  0.74221342  0.23201613  0.71654860  1
  Zn  Zn70  1  0.66748919  0.67947431  0.17619011  1
  Zn  Zn71  1  0.67606970  0.73220284  0.66889217  1
  Zn  Zn72  1  0.28206589  0.39556318  0.30686259  1
  Zn  Zn73  1  0.30970974  0.31362715  0.82270968  1
  Zn  Zn74  1  0.32526016  0.80416581  0.30537040  1
  Zn  Zn75  1  0.32168781  0.85810082  0.80273217  1
  Zn  Zn76  1  0.81831437  0.29951334  0.31966003  1
  Zn  Zn77  1  0.82599163  0.33865380  0.82329761  1
  Zn  Zn78  1  0.81749562  0.86214057  0.32114876  1
  Zn  Zn79  1  0.80961211  0.80616668  0.79214357  1
  Zn  Zn80  1  0.16547309  0.42773425  0.45854665  1
  Zn  Zn81  1  0.21794649  0.26897095  1.01019726  1
  Zn  Zn82  1  0.18299928  0.93831069  0.43688174  1
  Zn  Zn83  1  0.18119773  0.92178788  0.92708396  1
  Zn  Zn84  1  0.63353647  0.46474129  0.39440162  1
  Zn  Zn85  1  0.65026394  0.46558139  0.89599650  1
  Zn  Zn86  1  0.69619783  0.92710273  0.44528694  1
  Zn  Zn87  1  0.69685016  0.93685709  0.93638535  1
  Zn  Zn88  1  0.30919658  0.04696977  0.06810270  1
  Zn  Zn89  1  0.30301736  0.03849521  0.56570853  1
  Zn  Zn90  1  0.24199455  0.63882982  0.09151433  1
  Zn  Zn91  1  0.31558926  0.58234600  0.56480150  1
  Zn  Zn92  1  0.87020395  0.08221392  0.04011126  1
  Zn  Zn93  1  0.79484008  0.11246633  0.57752900  1
  Zn  Zn94  1  0.78766521  0.57238694  0.06464495  1
  Zn  Zn95  1  0.80300937  0.55606876  0.57640550  1
  Zn  Zn96  1  0.43936338  0.42177590  0.17925676  1
  Zn  Zn97  1  0.50293675  0.44897819  0.73812250  1
  Zn  Zn98  1  0.43305742  0.93123535  0.18810025  1
  Zn  Zn99  1  0.43557439  0.95827646  0.69388004  1
  Zn  Zn100  1  0.92807597  0.42888834  0.21959848  1
  Zn  Zn101  1  0.94144081  0.44067573  0.70183507  1
  Zn  Zn102  1  0.93620778  0.92390215  0.18764732  1
  Zn  Zn103  1  0.94275257  0.94169341  0.69117662  1
  Zn  Zn104  1  0.04845073  0.02305249  0.31824420  1
  Zn  Zn105  1  0.06163790  0.06659756  0.78687791  1
  Zn  Zn106  1  -0.00199961  0.61279411  0.36249452  1
  Zn  Zn107  1  0.08145151  0.57521563  0.80224918  1
  Zn  Zn108  1  0.55763573  0.05435642  0.30493372  1
  Zn  Zn109  1  0.58323474  0.09498063  0.80343764  1
  Zn  Zn110  1  0.48249784  0.53438954  0.45433682  1
  Zn  Zn111  1  0.49978259  0.56452450  0.89343626  1
  Zn  Zn112  1  0.42757994  0.18377775  0.43619540  1
  Zn  Zn113  1  0.43794670  0.17088642  0.93215219  1
  Zn  Zn114  1  0.49452192  0.66194303  0.60083801  1
  Zn  Zn115  1  0.39564276  0.71336066  0.91341306  1
  Zn  Zn116  1  0.89196077  0.12601332  0.26469526  1
  Zn  Zn117  1  0.98369223  0.20422732  0.96475442  1
  Zn  Zn118  1  0.85823986  0.71253476  0.42326874  1
  Zn  Zn119  1  0.94507939  0.69237532  0.94965869  1
  Zn  Zn120  1  0.02197805  0.33533685  0.08908600  1
  Zn  Zn121  1  0.06950757  0.32185830  0.55556833  1
  Zn  Zn122  1  0.12197012  0.76818023  0.05540590  1
  Zn  Zn123  1  0.05613280  0.79368589  0.54815110  1
  Zn  Zn124  1  0.57027168  0.29896154  0.05710711  1
  Zn  Zn125  1  0.53992302  0.28872327  0.55478592  1
  Zn  Zn126  1  0.55119853  0.81026903  0.04113605  1
  Zn  Zn127  1  0.55903607  0.84424248  0.57687524  1
  O  O128  1  0.12012122  0.09504079  0.12971911  1
  O  O129  1  0.12103774  0.12015793  0.62174354  1
  O  O130  1  0.08502053  0.60115502  0.14623944  1
  O  O131  1  0.14908112  0.60742231  0.64472721  1
  O  O132  1  0.61754106  0.11343427  0.11469232  1
  O  O133  1  0.61785729  0.12184280  0.61795035  1
  O  O134  1  0.62151883  0.60152149  0.10358378  1
  O  O135  1  0.61410714  0.67221627  0.59898977  1
  O  O136  1  0.38368774  0.36860835  0.35364974  1
  O  O137  1  0.39685350  0.36910752  0.87337755  1
  O  O138  1  0.37308737  0.88891688  0.36334130  1
  O  O139  1  0.39475825  0.89352312  0.88896528  1
  O  O140  1  0.87939205  0.38013101  0.37345221  1
  O  O141  1  0.90263662  0.40916537  0.87315187  1
  O  O142  1  0.81422263  0.92471720  0.42014952  1
  O  O143  1  0.87556557  0.88183178  0.86142548  1
  O  O144  1  0.25903134  0.00172082  0.35888173  1
  O  O145  1  0.21499861  -0.00240989  0.85241205  1
  O  O146  1  0.27011589  0.49366718  0.38528407  1
  O  O147  1  0.38897603  0.51401982  0.98538681  1
  O  O148  1  0.71163800  0.01280830  0.35280788  1
  O  O149  1  0.76330404  0.00114118  0.86364103  1
  O  O150  1  0.73666726  0.48675983  0.35554642  1
  O  O151  1  0.76033072  0.48628840  0.87312624  1
  O  O152  1  0.22092342  0.52826552  0.09742147  1
  O  O153  1  0.26053130  0.49792989  0.62974946  1
  O  O154  1  0.23743541  0.99538955  0.13793373  1
  O  O155  1  0.22647183  1.00087835  0.63919878  1
  O  O156  1  0.73422788  0.50110282  0.13911605  1
  O  O157  1  0.71651415  0.50898841  0.63653983  1
  O  O158  1  0.73059085  0.99045387  0.13393872  1
  O  O159  1  0.74228538  1.02791639  0.64282123  1
  O  O160  1  0.01910290  0.42257038  0.29141146  1
  O  O161  1  0.01329700  0.37498597  0.76292641  1
  O  O162  1  0.00884002  0.91550941  0.27388310  1
  O  O163  1  0.02035708  0.86714208  0.75283328  1
  O  O164  1  0.50331174  0.35156557  0.25122005  1
  O  O165  1  0.51167566  0.33738173  0.75983196  1
  O  O166  1  0.51406255  0.87415746  0.24905506  1
  O  O167  1  0.50442093  0.89588068  0.76807616  1
  O  O168  1  0.49026633  0.12419386  0.23889812  1
  O  O169  1  0.49754367  0.13684324  0.74297217  1
  O  O170  1  0.40998314  0.55931220  0.26152056  1
  O  O171  1  0.49125915  0.66627694  0.73533735  1
  O  O172  1  0.99845564  0.09413400  0.23742110  1
  O  O173  1  0.99960082  0.15135021  0.74080112  1
  O  O174  1  0.97434970  0.61920788  0.24358401  1
  O  O175  1  1.01483193  0.64185088  0.73211774  1
  O  O176  1  0.37893944  0.23042103  0.01016170  1
  O  O177  1  0.34924888  0.24191868  0.48723091  1
  O  O178  1  0.39755141  0.77725606  0.00451706  1
  O  O179  1  0.35164465  0.75544475  0.52186802  1
  O  O180  1  0.89919142  0.24348109  0.03237330  1
  O  O181  1  0.90232779  0.28786308  0.50827707  1
  O  O182  1  0.85141341  0.74745283  -0.01286950  1
  O  O183  1  0.84715430  0.75051981  0.52708861  1
  O  O184  1  0.13512995  0.26378740  0.47675417  1
  O  O185  1  0.10699798  0.24035599  0.97701272  1
  O  O186  1  0.14439770  0.73338528  0.50510662  1
  O  O187  1  0.19742731  0.68823994  0.99078570  1
  O  O188  1  0.61524171  0.24526850  0.47626519  1
  O  O189  1  0.63805434  0.22813073  0.99998835  1
  O  O190  1  0.64021510  0.75751762  0.46837262  1
  O  O191  1  0.62597814  0.74095711  0.99141395  1
  O  O192  1  0.49833209  0.22622757  0.12593116  1
  O  O193  1  0.48900104  0.23578166  0.63896338  1
  O  O194  1  0.50578162  0.74313129  0.12295221  1
  O  O195  1  0.47923863  0.77784106  0.62107366  1
  O  O196  1  1.03521205  0.22451020  0.13424650  1
  O  O197  1  0.99247885  0.27442101  0.63563019  1
  O  O198  1  0.99144655  0.71936083  0.14676288  1
  O  O199  1  0.98252102  0.74489259  0.62513309  1
  O  O200  1  0.02742488  0.29165278  0.36695784  1
  O  O201  1  0.00985745  0.25860116  0.86352952  1
  O  O202  1  -0.03691673  0.71935441  0.37743384  1
  O  O203  1  0.00328576  0.73141339  0.85609229  1
  O  O204  1  0.50266614  0.24574684  0.36002818  1
  O  O205  1  0.49620458  0.24065824  0.86518152  1
  O  O206  1  0.48191639  0.80364370  0.43011792  1
  O  O207  1  0.49202522  0.76619974  0.85696510  1
  O  O208  1  0.24898484  0.10306329  0.48236800  1
  O  O209  1  0.28063801  0.10437526  0.95803247  1
  O  O210  1  0.24219752  0.63681632  0.50025447  1
  O  O211  1  0.27090479  0.53560261  0.90120225  1
  O  O212  1  0.73024246  0.11557504  0.47731331  1
  O  O213  1  0.75734677  0.11881207  1.01427864  1
  O  O214  1  0.73198771  0.62707580  0.51393508  1
  O  O215  1  0.73381096  0.64485639  1.00155134  1
  O  O216  1  0.23543693  0.37664585  0.03721463  1
  O  O217  1  0.25513855  0.36820190  0.49878094  1
  O  O218  1  0.26942582  0.88031240  -0.00712133  1
  O  O219  1  0.23952312  0.85471700  0.48398118  1
  O  O220  1  0.82522879  0.40378360  0.03067140  1
  O  O221  1  0.68478438  0.37671960  0.53939169  1
  O  O222  1  0.73514030  0.85726662  0.01091398  1
  O  O223  1  0.65757699  0.82491534  0.51649860  1
  O  O224  1  0.18109811  0.53432700  0.26673086  1
  O  O225  1  0.13759129  0.48935260  0.74510498  1
  O  O226  1  0.14097826  0.99034247  0.24915050  1
  O  O227  1  0.12167335  0.98896311  0.73201589  1
  O  O228  1  0.63556449  0.46991869  0.24191573  1
  O  O229  1  0.65168569  0.57354036  0.75884661  1
  O  O230  1  0.62324527  0.98521562  0.23646420  1
  O  O231  1  0.64498803  1.01330119  0.75016425  1
  O  O232  1  0.36598953  0.00540469  0.24471093  1
  O  O233  1  0.34145096  -0.02280500  0.75515802  1
  O  O234  1  0.36467521  0.49372343  0.22933623  1
  O  O235  1  0.40429759  0.50330211  0.74292449  1
  O  O236  1  0.84608095  -0.00831627  0.24966702  1
  O  O237  1  0.86141524  -0.00431492  0.75128895  1
  O  O238  1  0.84415344  0.49347649  0.25913559  1
  O  O239  1  0.87785698  0.51817924  0.76054288  1
  O  O240  1  0.17516917  0.37145270  0.35446293  1
  O  O241  1  0.12105612  0.36709831  0.85889573  1
  O  O242  1  0.08919462  0.90128666  0.38160680  1
  O  O243  1  0.14420062  0.81402027  0.90591898  1
  O  O244  1  0.61556554  0.35100327  0.35447279  1
  O  O245  1  0.62444482  0.34439211  0.88578291  1
  O  O246  1  0.63509572  0.85981534  0.35803231  1
  O  O247  1  0.61269714  0.90217598  0.86359175  1
  O  O248  1  0.38616226  0.11737239  0.12837210  1
  O  O249  1  0.38428557  0.10149927  0.62481907  1
  O  O250  1  0.35281253  0.66482956  0.10016700  1
  O  O251  1  0.39208137  0.62496585  0.63522719  1
  O  O252  1  0.88954322  0.13617565  0.14079953  1
  O  O253  1  0.98995261  0.13750321  0.53588261  1
  O  O254  1  0.88026018  0.61874135  0.11898650  1
  O  O255  1  0.88541996  0.61968179  0.61930673  1
  O  O256  1  0.25939817  0.21924315  0.10896475  1
  O  O257  1  0.23587507  0.24597617  0.60135498  1
  O  O258  1  0.17733309  0.71933409  0.14238078  1
  O  O259  1  0.27119474  0.75934708  0.64937963  1
  O  O260  1  0.76737195  0.25049786  0.12421864  1
  O  O261  1  0.80756925  0.21539482  0.62145142  1
  O  O262  1  0.73851885  0.76165485  0.13076160  1
  O  O263  1  0.78083006  0.75759823  0.67656541  1
  O  O264  1  0.23371345  0.22066202  0.38631666  1
  O  O265  1  0.23317217  0.25972197  0.89018029  1
  O  O266  1  0.26679674  0.73999285  0.37906084  1
  O  O267  1  0.29271314  0.75524792  0.86688418  1
  O  O268  1  0.73216291  0.23102562  0.36557574  1
  O  O269  1  0.76034126  0.26565014  0.89006928  1
  O  O270  1  0.76744553  0.75856108  0.35994390  1
  O  O271  1  0.74398644  0.75533160  0.87370863  1
  O  O272  1  -0.01254630  0.10917504  0.03164016  1
  O  O273  1  0.01463662  0.15790568  0.47218411  1
  O  O274  1  -0.00455631  0.61673133  0.03553645  1
  O  O275  1  0.03374643  0.63095965  0.53693388  1
  O  O276  1  0.50127139  0.11668564  0.01171852  1
  O  O277  1  0.49282689  0.13892188  0.51648583  1
  O  O278  1  0.50514329  0.63147259  -0.00285991  1
  O  O279  1  0.52079329  0.62973649  0.49231533  1
  O  O280  1  0.48915187  0.35140368  0.47463691  1
  O  O281  1  0.50361259  0.35338396  0.98495043  1
  O  O282  1  0.49993467  0.86559299  0.46459259  1
  O  O283  1  0.51336653  0.89573024  0.98005525  1
  O  O284  1  1.04530935  0.40316684  0.46816326  1
  O  O285  1  1.01402343  0.37597852  0.97987577  1
  O  O286  1  1.00335220  0.82285920  0.45021325  1
  O  O287  1  1.02120620  0.76270183  1.01008839  1
  O  O288  1  0.51642096  0.46709586  0.37206745  1
  O  O289  1  0.53249767  0.45997324  0.85600225  1
  O  O290  1  0.48181862  1.00517058  0.36989049  1
  O  O291  1  0.50392525  1.02137897  0.87190167  1
  O  O292  1  0.95311911  0.50871866  0.39333145  1
  O  O293  1  1.03493930  0.49946663  0.87560715  1
  O  O294  1  0.96538914  1.00953787  0.40258022  1
  O  O295  1  0.97702687  1.02348251  0.86661820  1
  O  O296  1  0.01379651  -0.01708678  0.12195995  1
  O  O297  1  0.01359850  0.00158956  0.62780039  1
  O  O298  1  -0.03197395  0.51350766  0.14544249  1
  O  O299  1  0.00403688  0.51634361  0.63862125  1
  O  O300  1  0.51242026  0.00660336  0.13133945  1
  O  O301  1  0.51390587  0.01902670  0.63286761  1
  O  O302  1  0.51981777  0.48092704  0.12448959  1
  O  O303  1  0.55595825  0.47955828  0.64382190  1
  O  O304  1  0.25205080  0.39769987  0.20065246  1
  O  O305  1  0.23738473  0.36825414  0.75391475  1
  O  O306  1  0.24599706  0.87670706  0.25239425  1
  O  O307  1  0.21811403  0.87790662  0.75363588  1
  O  O308  1  0.73727883  0.35413863  0.24910011  1
  O  O309  1  0.75116873  0.34273058  0.73980503  1
  O  O310  1  0.73349952  0.88397230  0.23627390  1
  O  O311  1  0.72965764  0.88661539  0.75718668  1
  O  O312  1  0.26078341  0.11160785  0.25361890  1
  O  O313  1  0.24646767  0.11354012  0.74836585  1
  O  O314  1  0.20770516  0.60142989  0.27132535  1
  O  O315  1  0.29052723  0.61707291  0.75121689  1
  O  O316  1  0.74060866  0.10927471  0.24536728  1
  O  O317  1  0.77355427  0.12654195  0.76283255  1
  O  O318  1  0.73292577  0.61525326  0.24769656  1
  O  O319  1  0.70228429  0.62622066  0.76227342  1
  O  O320  1  0.37073476  0.11409007  0.35822511  1
  O  O321  1  0.33504717  0.10503393  0.90628265  1
  O  O322  1  0.37064087  0.61877530  0.27482143  1
  O  O323  1  0.40962964  0.61748731  0.85386908  1
  O  O324  1  0.84116298  0.10341600  0.37080459  1
  O  O325  1  0.92443178  0.08549967  0.87633576  1
  O  O326  1  0.83936264  0.60354384  0.39293746  1
  O  O327  1  0.89180950  0.59241426  0.90792309  1
  O  O328  1  0.10446170  0.40340104  0.12791239  1
  O  O329  1  0.12431309  0.39248647  0.63684253  1
  O  O330  1  0.12482031  0.87133601  0.12326962  1
  O  O331  1  0.11634985  0.87556052  0.61383488  1
  O  O332  1  0.62423982  0.36703902  0.13346229  1
  O  O333  1  0.63563951  0.35206803  0.60290230  1
  O  O334  1  0.62118078  0.88151616  0.12763796  1
  O  O335  1  0.61333671  0.91142997  0.65035709  1
  O  O336  1  0.13881705  0.23558111  0.27025120  1
  O  O337  1  0.11843865  0.26330770  0.75090767  1
  O  O338  1  0.08606891  0.77289814  0.29483161  1
  O  O339  1  0.11413984  0.76416242  0.72529662  1
  O  O340  1  0.61361980  0.24759020  0.24287379  1
  O  O341  1  0.64565125  0.21834389  0.78505623  1
  O  O342  1  0.62985410  0.75658282  0.25625551  1
  O  O343  1  0.60363525  0.78763433  0.73823469  1
  O  O344  1  0.38153710  0.22211526  0.23249194  1
  O  O345  1  0.37301122  0.24309192  0.75710731  1
  O  O346  1  0.37797483  0.76325856  0.21889948  1
  O  O347  1  0.39116845  0.78939966  0.73684623  1
  O  O348  1  0.87311496  0.23681892  0.24513733  1
  O  O349  1  0.89231784  0.26331238  0.75792020  1
  O  O350  1  0.91990523  0.83112551  0.28866089  1
  O  O351  1  0.90282648  0.75969649  0.74365916  1
  O  O352  1  0.33031549  0.53917994  0.40328000  1
  O  O353  1  0.36854482  0.45283346  1.01776217  1
  O  O354  1  0.36740575  0.99616628  0.48172113  1
  O  O355  1  0.38656833  0.98644055  1.01733047  1
  O  O356  1  0.82392979  0.48214100  0.49269826  1
  O  O357  1  0.84337623  0.47248003  1.01239008  1
  O  O358  1  0.86976565  1.04558511  0.52462975  1
  O  O359  1  0.86169014  0.98509852  0.98319630  1
  O  O360  1  0.12826625  -0.01892181  0.00889441  1
  O  O361  1  0.12842951  0.00102188  0.51288820  1
  O  O362  1  0.22904328  0.47906619  -0.08156842  1
  O  O363  1  0.14345320  0.51587487  0.52704378  1
  O  O364  1  0.63698323  0.00789091  0.01301362  1
  O  O365  1  0.64025915  -0.00914147  0.52208902  1
  O  O366  1  0.63625071  0.46994210  0.01543730  1
  O  O367  1  0.62179803  0.51993933  0.49836668  1
  O  O368  1  0.38333630  0.33654081  0.12568155  1
  O  O369  1  0.36792294  0.51751908  0.47758586  1
  O  O370  1  0.38565015  0.86515682  0.10996865  1
  O  O371  1  0.36863383  0.89305826  0.61526956  1
  O  O372  1  0.91876884  0.34560979  0.14566212  1
  O  O373  1  0.86740089  0.38203718  0.63415499  1
  O  O374  1  0.85206976  0.87739500  0.12593110  1
  O  O375  1  0.88394667  0.87142311  0.62132143  1
  O  O376  1  0.13147992  0.09455574  0.37259974  1
  O  O377  1  0.12022499  0.14328998  0.85300244  1
  O  O378  1  0.10814442  0.60809441  0.40044621  1
  O  O379  1  0.15836826  0.65763702  0.83170889  1
  O  O380  1  0.62022816  0.13555442  0.35919476  1
  O  O381  1  0.64320164  0.12459310  0.90051568  1
  O  O382  1  0.63680749  0.65255363  0.38364965  1
  O  O383  1  0.61800599  0.58578478  0.91099093  1
