# generated using pymatgen
data_VZnO4
_symmetry_space_group_name_H-M   'P 1'
_cell_length_a   16.99528093
_cell_length_b   17.15654502
_cell_length_c   16.88717679
_cell_angle_alpha   90.23165074
_cell_angle_beta   89.37694841
_cell_angle_gamma   89.67481308
_symmetry_Int_Tables_number   1
_chemical_formula_structural   VZnO4
_chemical_formula_sum   'V64 Zn64 O256'
_cell_volume   4923.55619813
_cell_formula_units_Z   64
loop_
 _symmetry_equiv_pos_site_id
 _symmetry_equiv_pos_as_xyz
  1  'x, y, z'
loop_
 _atom_site_type_symbol
 _atom_site_label
 _atom_site_symmetry_multiplicity
 _atom_site_fract_x
 _atom_site_fract_y
 _atom_site_fract_z
 _atom_site_occupancy
  V  V0  1  0.38680381  0.62388298  0.74163685  1
  V  V1  1  0.61869294  0.62747454  0.50836913  1
  V  V2  1  0.60687799  0.74459496  0.36513101  1
  V  V3  1  0.25059903  0.61695573  0.36138211  1
  V  V4  1  0.60379879  0.35661907  0.73843590  1
  V  V5  1  0.35643810  0.25570493  0.13981509  1
  V  V6  1  0.74866577  0.87808870  0.13312925  1
  V  V7  1  0.87650814  0.75579580  0.61188750  1
  V  V8  1  0.13205294  0.61368855  0.50380267  1
  V  V9  1  0.25524547  0.75319244  0.50898459  1
  V  V10  1  0.61534595  0.87622427  0.25512067  1
  V  V11  1  0.00367303  0.61668028  0.11048746  1
  V  V12  1  0.87156704  0.25133285  0.11543544  1
  V  V13  1  0.62904426  -0.00013632  0.64441091  1
  V  V14  1  0.48081006  0.87002474  0.86804830  1
  V  V15  1  0.87953849  0.75322497  0.12999356  1
  V  V16  1  0.46314142  0.09491726  0.63548036  1
  V  V17  1  0.24299243  0.48067754  0.24478117  1
  V  V18  1  0.00924266  0.74559587  0.24895397  1
  V  V19  1  0.00568482  0.89396633  0.87002835  1
  V  V20  1  0.87914895  0.61682657  0.25524530  1
  V  V21  1  0.50346263  0.50166474  0.52414870  1
  V  V22  1  0.74871299  0.00505143  0.26258360  1
  V  V23  1  0.27016316  0.13087612  0.86399871  1
  V  V24  1  0.23322615  0.38630126  0.62954625  1
  V  V25  1  0.00028342  0.38957763  0.87607760  1
  V  V26  1  0.74994691  0.86579151  0.61728178  1
  V  V27  1  0.86492653  0.39705185  -0.00386860  1
  V  V28  1  0.39249551  0.75307133  0.62372406  1
  V  V29  1  0.88038366  0.62845843  0.76811871  1
  V  V30  1  0.13402622  0.75109232  0.88374094  1
  V  V31  1  0.00939234  0.12753388  0.63448563  1
  V  V32  1  0.88642130  0.27155183  0.62008097  1
  V  V33  1  0.23030583  0.51508243  0.74519140  1
  V  V34  1  0.35173105  0.52339741  0.89158535  1
  V  V35  1  0.39654742  0.13201750  0.27873599  1
  V  V36  1  0.74849617  0.11208785  0.40557722  1
  V  V37  1  0.37790564  0.38123923  0.49881372  1
  V  V38  1  0.00946453  0.76905160  0.74546080  1
  V  V39  1  0.75430976  0.62692406  0.38131394  1
  V  V40  1  0.38610021  0.50105809  0.35851399  1
  V  V41  1  0.25954047  0.00260941  0.73547650  1
  V  V42  1  0.07628996  0.11360125  -0.00665257  1
  V  V43  1  0.23712987  0.25595995  0.48822802  1
  V  V44  1  0.00644957  0.62230537  0.62722284  1
  V  V45  1  0.62355927  0.26724145  0.38528902  1
  V  V46  1  0.11920414  0.48868438  0.11363288  1
  V  V47  1  0.09177553  0.36403832  0.25892335  1
  V  V48  1  0.73851172  0.49783551  0.74883961  1
  V  V49  1  0.10358695  0.24416484  0.86294576  1
  V  V50  1  0.51452699  0.45083529  -0.01909438  1
  V  V51  1  0.13202840  0.75096458  0.36842502  1
  V  V52  1  0.63305595  0.84140751  0.75928938  1
  V  V53  1  0.40400664  -0.01970910  0.38838272  1
  V  V54  1  0.74413785  0.74353431  -0.00139812  1
  V  V55  1  -0.00298434  0.87017376  0.38270951  1
  V  V56  1  -0.01480805  0.50022485  0.48813384  1
  V  V57  1  0.37460475  0.76550110  0.13173368  1
  V  V58  1  0.76019649  0.28085397  0.50252731  1
  V  V59  1  0.75104611  0.48587312  0.24895448  1
  V  V60  1  0.87418772  0.88500718  -0.01521016  1
  V  V61  1  0.12938511  -0.01363398  0.61422526  1
  V  V62  1  0.37769480  0.26088120  0.63546618  1
  V  V63  1  0.89875218  0.12683515  0.26153928  1
  Zn  Zn64  1  0.05476590  0.18316459  0.18237858  1
  Zn  Zn65  1  0.19069892  0.19060109  0.68108719  1
  Zn  Zn66  1  0.18619335  0.68464726  0.17553709  1
  Zn  Zn67  1  0.18707625  0.69313183  0.69205832  1
  Zn  Zn68  1  0.68975240  0.19742402  0.19629520  1
  Zn  Zn69  1  0.68915281  0.19741409  0.67626100  1
  Zn  Zn70  1  0.69669802  0.69184809  0.19787005  1
  Zn  Zn71  1  0.70172016  0.66917963  0.69304626  1
  Zn  Zn72  1  0.32272027  0.31541572  0.31369008  1
  Zn  Zn73  1  0.28434587  0.31201063  0.80947659  1
  Zn  Zn74  1  0.32070512  0.81545102  0.32822433  1
  Zn  Zn75  1  0.31061092  0.81474714  0.79771601  1
  Zn  Zn76  1  0.79739459  0.28697976  0.29535363  1
  Zn  Zn77  1  0.85128285  0.34813697  0.78285451  1
  Zn  Zn78  1  0.80942394  0.80152255  0.32165575  1
  Zn  Zn79  1  0.81215345  0.80408104  0.80715160  1
  Zn  Zn80  1  0.18155546  0.42568381  0.43482325  1
  Zn  Zn81  1  0.18460424  0.43237872  0.92033545  1
  Zn  Zn82  1  0.23137483  0.95558525  0.45642495  1
  Zn  Zn83  1  0.17639076  0.96173114  0.91451327  1
  Zn  Zn84  1  0.69022458  0.44787431  0.43619671  1
  Zn  Zn85  1  0.69875058  0.42946458  0.90907278  1
  Zn  Zn86  1  0.69231142  0.91999339  0.43763188  1
  Zn  Zn87  1  0.60048153  0.96828529  0.90534298  1
  Zn  Zn88  1  0.20406746  0.19162403  0.04559468  1
  Zn  Zn89  1  0.29975973  0.07945533  0.55215338  1
  Zn  Zn90  1  0.29665891  0.58584419  0.08249578  1
  Zn  Zn91  1  0.31619559  0.56329500  0.56312487  1
  Zn  Zn92  1  0.84491524  0.04618658  0.09764482  1
  Zn  Zn93  1  0.82086865  0.05862706  0.59782104  1
  Zn  Zn94  1  0.80834416  0.56319879  0.06738139  1
  Zn  Zn95  1  0.81168508  0.56794853  0.57192929  1
  Zn  Zn96  1  0.43012781  0.44719266  0.16518851  1
  Zn  Zn97  1  0.42155611  0.43397414  0.69680782  1
  Zn  Zn98  1  0.42473579  0.94911047  0.20291156  1
  Zn  Zn99  1  0.44502227  0.92274241  0.69538041  1
  Zn  Zn100  1  0.92818712  0.43313939  0.17816815  1
  Zn  Zn101  1  0.94534344  0.44913251  0.68635145  1
  Zn  Zn102  1  0.91240988  0.91443850  0.24356443  1
  Zn  Zn103  1  0.93597835  0.94762861  0.68016466  1
  Zn  Zn104  1  0.10577487  0.01826321  0.30571867  1
  Zn  Zn105  1  0.06865827  0.06608503  0.79536915  1
  Zn  Zn106  1  0.06470676  0.55828911  0.30859424  1
  Zn  Zn107  1  0.05295894  0.57640604  0.82643760  1
  Zn  Zn108  1  0.56912626  0.06639234  0.32713435  1
  Zn  Zn109  1  0.44128979  0.06546916  0.80396885  1
  Zn  Zn110  1  0.58093011  0.55230769  0.30722760  1
  Zn  Zn111  1  0.53272465  0.51098502  0.79971804  1
  Zn  Zn112  1  0.45005907  0.19059921  0.46646198  1
  Zn  Zn113  1  0.37899687  0.12362571  0.99524069  1
  Zn  Zn114  1  0.43519573  0.67787453  0.43929493  1
  Zn  Zn115  1  0.40424254  0.70573287  0.93023114  1
  Zn  Zn116  1  0.91973388  0.16139459  0.46085558  1
  Zn  Zn117  1  0.91879969  0.19756043  0.92969096  1
  Zn  Zn118  1  0.94423154  0.68152213  0.43625125  1
  Zn  Zn119  1  0.94501806  0.70426721  0.93902079  1
  Zn  Zn120  1  0.05157626  0.31063744  0.05375812  1
  Zn  Zn121  1  0.05592554  0.32092782  0.56016979  1
  Zn  Zn122  1  0.05211807  0.81677953  0.05705143  1
  Zn  Zn123  1  0.07181570  0.81027171  0.55622952  1
  Zn  Zn124  1  0.51482588  0.26653197  0.04854028  1
  Zn  Zn125  1  0.57130049  0.31924444  0.56648647  1
  Zn  Zn126  1  0.56290920  0.82586385  0.04762912  1
  Zn  Zn127  1  0.57495892  0.80556526  0.56227137  1
  O  O128  1  0.10977678  0.13198951  0.09414607  1
  O  O129  1  0.11024612  0.13728528  0.61677474  1
  O  O130  1  0.10709871  0.60560156  0.13331368  1
  O  O131  1  0.11819863  0.63628226  0.61080792  1
  O  O132  1  0.64260174  0.15550730  0.09642121  1
  O  O133  1  0.65006754  0.09630564  0.63886372  1
  O  O134  1  0.60606005  0.62529160  0.14907964  1
  O  O135  1  0.62233482  0.64246899  0.60448116  1
  O  O136  1  0.37285470  0.39713703  0.38312818  1
  O  O137  1  0.35913566  0.41100621  0.89895222  1
  O  O138  1  0.39619071  0.88095201  0.37890640  1
  O  O139  1  0.38130757  0.88100897  0.86057727  1
  O  O140  1  1.08316946  0.16494947  0.38577685  1
  O  O141  1  0.88457043  0.36964073  0.88884332  1
  O  O142  1  0.89404213  0.86661828  0.35870651  1
  O  O143  1  0.87683285  0.87960871  0.88150290  1
  O  O144  1  0.22110059  -0.03914473  0.33366787  1
  O  O145  1  0.24816281  0.02220925  0.85184771  1
  O  O146  1  0.25067494  0.50549864  0.36164668  1
  O  O147  1  0.24727552  0.50778417  0.85748296  1
  O  O148  1  0.74949080  -0.00018050  0.37387637  1
  O  O149  1  0.70726451  0.02981048  0.90796151  1
  O  O150  1  0.74801858  0.52173230  0.36702294  1
  O  O151  1  0.76021218  0.50750128  0.84800802  1
  O  O152  1  0.23706947  0.50420436  0.14017586  1
  O  O153  1  0.25045353  0.49525667  0.63157427  1
  O  O154  1  0.24760467  0.95648629  0.06822907  1
  O  O155  1  0.24351166  1.01327570  0.62670044  1
  O  O156  1  0.76800047  0.49725497  0.14870731  1
  O  O157  1  0.74599191  0.56420531  0.66158110  1
  O  O158  1  0.75389782  0.98315222  0.14179281  1
  O  O159  1  0.73704444  0.97139858  0.61321510  1
  O  O160  1  -0.00635990  0.38390753  0.25691855  1
  O  O161  1  -0.02373480  0.38257027  0.77285915  1
  O  O162  1  0.00608151  0.84792867  0.25288637  1
  O  O163  1  -0.00945466  0.87271364  0.75358208  1
  O  O164  1  0.51458120  0.39330202  0.23219931  1
  O  O165  1  0.50703972  0.39793686  0.76098691  1
  O  O166  1  0.51925481  0.89347883  0.24093469  1
  O  O167  1  0.51885257  0.85970880  0.76063525  1
  O  O168  1  0.49421382  0.11725138  0.25459894  1
  O  O169  1  0.49492140  0.13518183  0.72015566  1
  O  O170  1  0.54928979  0.60741045  0.19611862  1
  O  O171  1  0.48363840  0.60989934  0.75482852  1
  O  O172  1  0.99751160  0.10735498  0.25214669  1
  O  O173  1  0.99303806  0.12831799  0.73277590  1
  O  O174  1  0.99653549  0.63183492  0.24787263  1
  O  O175  1  1.00893488  0.64022006  0.73372585  1
  O  O176  1  0.41770887  0.20644599  0.06503712  1
  O  O177  1  0.36673748  0.27165934  0.50596629  1
  O  O178  1  0.35929481  0.75970761  0.02754074  1
  O  O179  1  0.36317756  0.73298747  0.51141383  1
  O  O180  1  0.85036144  0.23292528  0.01895080  1
  O  O181  1  0.86693965  0.25727102  0.49877553  1
  O  O182  1  0.87946280  0.76631574  0.01555637  1
  O  O183  1  0.88826203  0.74698262  0.51294957  1
  O  O184  1  0.13915365  0.27801011  0.49600740  1
  O  O185  1  0.11198468  0.23442503  0.98545071  1
  O  O186  1  0.13862867  0.73621185  0.48756761  1
  O  O187  1  0.12108996  0.76651432  0.98363529  1
  O  O188  1  0.65103304  0.26085615  0.50269622  1
  O  O189  1  0.62845237  0.20656065  1.04178698  1
  O  O190  1  0.61419422  0.73334748  0.47991793  1
  O  O191  1  0.64568821  0.75841566  1.01287122  1
  O  O192  1  0.55151691  0.28651588  0.16161911  1
  O  O193  1  0.47550770  0.27291102  0.61823994  1
  O  O194  1  0.47825520  0.77223261  0.11348791  1
  O  O195  1  0.49041888  0.74598764  0.61015108  1
  O  O196  1  0.97748132  0.24887965  0.12350095  1
  O  O197  1  0.99194629  0.24232826  0.61080629  1
  O  O198  1  0.99968434  0.73858085  0.13046211  1
  O  O199  1  1.00000568  0.75393447  0.63175779  1
  O  O200  1  0.02856501  0.12133230  0.42356084  1
  O  O201  1  0.00017918  0.25144153  0.86915446  1
  O  O202  1  0.01615619  0.74605165  0.36941678  1
  O  O203  1  0.00756492  0.76923822  0.85970962  1
  O  O204  1  0.52686399  0.24640226  0.40469156  1
  O  O205  1  0.57293743  0.22010642  0.88573801  1
  O  O206  1  0.50753427  0.73353323  0.36748999  1
  O  O207  1  0.48471914  0.77047462  0.89063217  1
  O  O208  1  0.24183854  0.15799884  0.49968195  1
  O  O209  1  0.26305282  0.12005934  0.97671764  1
  O  O210  1  0.24190128  0.62590458  0.49339048  1
  O  O211  1  0.22480905  0.66908534  1.06976798  1
  O  O212  1  0.76485843  0.10240868  0.50328147  1
  O  O213  1  0.71832165  0.07994969  0.96121066  1
  O  O214  1  0.73353200  0.61781235  0.48758266  1
  O  O215  1  0.75748792  0.64570662  1.01647326  1
  O  O216  1  0.28969048  0.36886813  -0.08565969  1
  O  O217  1  0.25958515  0.38596830  0.51029836  1
  O  O218  1  0.25988722  0.92462956  0.00259524  1
  O  O219  1  0.25357243  0.84803674  0.48517501  1
  O  O220  1  0.76620166  0.38038808  -0.01249334  1
  O  O221  1  0.76173898  0.37850520  0.49509071  1
  O  O222  1  0.76743293  0.86514292  0.02549017  1
  O  O223  1  0.74133651  0.85271588  0.51619532  1
  O  O224  1  0.13132643  0.48792130  0.24330142  1
  O  O225  1  0.13203261  0.51683955  0.75223452  1
  O  O226  1  0.13757077  0.99344533  0.19306577  1
  O  O227  1  0.14508200  1.01187842  0.72907407  1
  O  O228  1  0.65039724  0.48440139  0.25297875  1
  O  O229  1  0.63515368  0.50191264  0.75438663  1
  O  O230  1  0.63931781  0.98403451  0.26449832  1
  O  O231  1  0.63323116  0.97788717  0.74004263  1
  O  O232  1  0.38174123  0.01324388  0.28745594  1
  O  O233  1  0.37265739  0.01509724  0.71971277  1
  O  O234  1  0.36080688  0.49337414  0.25201977  1
  O  O235  1  0.36186007  0.51545800  0.75796381  1
  O  O236  1  0.86054967  0.01282385  0.24803722  1
  O  O237  1  0.86095802  0.02638818  0.69591743  1
  O  O238  1  0.88335782  0.51701057  0.25024164  1
  O  O239  1  0.88201677  0.53085815  0.73920385  1
  O  O240  1  0.11899963  0.37960089  0.35588896  1
  O  O241  1  0.10909311  0.35576926  0.88123701  1
  O  O242  1  0.12229709  0.84751562  0.37642833  1
  O  O243  1  0.10845864  0.87822148  0.87387167  1
  O  O244  1  0.63062353  0.36641959  0.38430870  1
  O  O245  1  0.65923529  0.36140859  0.82489889  1
  O  O246  1  0.62519551  0.85584968  0.36563752  1
  O  O247  1  0.64136818  0.86965470  0.85665705  1
  O  O248  1  0.33987307  0.12401725  0.16915547  1
  O  O249  1  0.36678812  0.14983040  0.61882413  1
  O  O250  1  0.37514935  0.66148302  0.13490426  1
  O  O251  1  0.37598793  0.63000922  0.63404991  1
  O  O252  1  0.87167531  0.13650565  0.15279593  1
  O  O253  1  0.91805466  0.12338552  0.57290599  1
  O  O254  1  0.88941786  0.63336598  0.13448895  1
  O  O255  1  0.89742686  0.64248892  0.62937044  1
  O  O256  1  0.25936993  0.25509292  0.11762243  1
  O  O257  1  0.25454098  0.27272024  0.61751323  1
  O  O258  1  0.27074695  0.77512689  0.15005638  1
  O  O259  1  0.24768515  0.74894677  0.61058412  1
  O  O260  1  0.78179356  0.26017381  0.17284710  1
  O  O261  1  0.76856262  0.24889418  0.60684821  1
  O  O262  1  0.76411312  0.75820365  0.13111636  1
  O  O263  1  0.77340814  0.74520796  0.62689450  1
  O  O264  1  0.25568902  0.27049839  0.38976622  1
  O  O265  1  0.23149333  0.22910723  0.86989158  1
  O  O266  1  0.24918172  0.73301577  0.37487627  1
  O  O267  1  0.23208854  0.76659394  0.86296837  1
  O  O268  1  0.75004408  0.23366307  0.39673024  1
  O  O269  1  0.79069531  0.17596216  0.82284327  1
  O  O270  1  0.73457619  0.73252195  0.36763185  1
  O  O271  1  0.76678513  0.75852534  0.90158006  1
  O  O272  1  -0.02329807  0.11652838  -0.00934513  1
  O  O273  1  -0.08456132  0.00380684  0.46201975  1
  O  O274  1  0.00013425  0.63238012  0.01328234  1
  O  O275  1  0.01546349  0.62407522  0.50778765  1
  O  O276  1  0.52065318  0.11201790  -0.02501537  1
  O  O277  1  0.50376999  0.13062432  0.54995628  1
  O  O278  1  0.48549821  0.64028562  0.00680225  1
  O  O279  1  0.50841314  0.60945008  0.49357834  1
  O  O280  1  0.49200106  0.39549964  0.50582795  1
  O  O281  1  0.50869293  0.35104012  0.97804285  1
  O  O282  1  0.54803116  0.90892438  0.51021144  1
  O  O283  1  0.52610610  0.89628182  0.96879391  1
  O  O284  1  1.00671027  0.40473086  0.50154667  1
  O  O285  1  0.98251507  0.36970912  0.98607894  1
  O  O286  1  1.00336863  0.86395123  0.48234367  1
  O  O287  1  0.98457355  0.87714896  0.98265147  1
  O  O288  1  0.48401111  0.51317172  0.35054177  1
  O  O289  1  0.46640173  0.50452308  0.89718132  1
  O  O290  1  0.49892702  1.00834012  0.39922379  1
  O  O291  1  0.50140672  0.98567376  0.85148204  1
  O  O292  1  0.99658417  0.51948333  0.38935087  1
  O  O293  1  1.01928622  0.48591876  0.88320927  1
  O  O294  1  1.02228732  0.96294755  0.35398437  1
  O  O295  1  0.99929494  0.99005912  0.85372496  1
  O  O296  1  0.08559815  -0.04931981  0.15248193  1
  O  O297  1  0.02332465  0.01289650  0.62575470  1
  O  O298  1  0.00501517  0.50877375  0.12091371  1
  O  O299  1  0.00485210  0.52176693  0.61733166  1
  O  O300  1  0.45323991  0.01640330  0.10746592  1
  O  O301  1  0.51306570  -0.00170636  0.63639215  1
  O  O302  1  0.47988740  0.48469703  0.07129178  1
  O  O303  1  0.49188801  0.50500564  0.62100090  1
  O  O304  1  0.24764022  0.38269909  0.24881939  1
  O  O305  1  0.24739159  0.39495725  0.73680747  1
  O  O306  1  0.24409556  0.90028402  0.28809134  1
  O  O307  1  0.26102419  0.90515556  0.74718382  1
  O  O308  1  0.78363793  0.39471712  0.27604024  1
  O  O309  1  0.77551979  0.40716101  0.72224659  1
  O  O310  1  0.74958926  0.88003520  0.24998065  1
  O  O311  1  0.74340134  0.85714641  0.73471660  1
  O  O312  1  0.28972461  0.11445707  0.23204225  1
  O  O313  1  0.25593586  0.12630019  0.75547550  1
  O  O314  1  0.24330794  0.61536794  0.25988125  1
  O  O315  1  0.25392433  0.61552504  0.73750692  1
  O  O316  1  0.73913230  0.10496335  0.25640967  1
  O  O317  1  0.75126109  0.13601322  0.76995110  1
  O  O318  1  0.76169099  0.61707073  0.25709806  1
  O  O319  1  0.78463713  0.65425456  0.78050508  1
  O  O320  1  0.38947234  0.14316564  0.37856051  1
  O  O321  1  0.37494632  0.13281746  0.87252792  1
  O  O322  1  0.35901621  0.60939264  0.37756366  1
  O  O323  1  0.36353233  0.62731407  0.86039093  1
  O  O324  1  0.85738084  0.11693661  0.36893714  1
  O  O325  1  0.84391213  0.13319297  0.86283166  1
  O  O326  1  0.86140447  0.63792728  0.37044977  1
  O  O327  1  0.92086809  0.62645013  0.86165634  1
  O  O328  1  0.10569047  0.38746719  0.13533820  1
  O  O329  1  0.13540656  0.38176797  0.62331078  1
  O  O330  1  0.11785951  0.88268499  0.12604223  1
  O  O331  1  0.12515292  0.88760474  0.62008548  1
  O  O332  1  0.56727877  0.36132130  0.18206523  1
  O  O333  1  0.62674409  0.38566194  0.64143874  1
  O  O334  1  0.64272333  0.86751803  0.14057715  1
  O  O335  1  0.63732176  0.86080717  0.63926542  1
  O  O336  1  0.10378506  0.26666028  0.24035472  1
  O  O337  1  0.12356730  0.24319569  0.76389442  1
  O  O338  1  0.12523143  0.73445085  0.26000910  1
  O  O339  1  0.11244207  0.75869075  0.74979611  1
  O  O340  1  0.64154451  0.24272510  0.28657783  1
  O  O341  1  0.60416221  0.25639041  0.72199982  1
  O  O342  1  0.62254996  0.76126742  0.25567661  1
  O  O343  1  0.63535782  0.74245685  0.75322165  1
  O  O344  1  0.37986144  0.24140558  0.24735213  1
  O  O345  1  0.36376508  0.27058480  0.73505584  1
  O  O346  1  0.38642825  0.76387751  0.23769567  1
  O  O347  1  0.36996797  0.73472515  0.73470639  1
  O  O348  1  0.89556071  0.22664091  0.27477275  1
  O  O349  1  0.87041928  0.25407273  0.71873573  1
  O  O350  1  0.88624978  0.73825410  0.24498882  1
  O  O351  1  0.89770158  0.74527053  0.74328613  1
  O  O352  1  0.39016154  0.50157593  0.49012969  1
  O  O353  1  0.33518322  0.53925607  0.98868073  1
  O  O354  1  0.33571287  1.00776429  0.46645160  1
  O  O355  1  0.40548226  1.01561761  1.04852970  1
  O  O356  1  0.88655745  0.51561874  0.50782049  1
  O  O357  1  0.87485939  0.49468218  1.00390279  1
  O  O358  1  0.87391356  0.96803205  0.51049710  1
  O  O359  1  0.86854852  0.98110290  1.01060168  1
  O  O360  1  0.10603076  0.01804053  -0.01452108  1
  O  O361  1  0.14504015  0.00176981  0.51269372  1
  O  O362  1  0.14236898  0.48385748  0.01654961  1
  O  O363  1  0.12415821  0.51462984  0.49478659  1
  O  O364  1  0.56708228  0.05941977  -0.00277643  1
  O  O365  1  0.60733892  -0.03957254  0.51695163  1
  O  O366  1  0.61086226  0.47444841  -0.03141188  1
  O  O367  1  0.61114300  0.51178690  0.49806376  1
  O  O368  1  0.38283777  0.35010426  0.13065542  1
  O  O369  1  0.36244795  0.37750404  0.61644274  1
  O  O370  1  0.37562563  0.87070612  0.13321624  1
  O  O371  1  0.37998525  0.85129678  0.63225529  1
  O  O372  1  0.87735632  0.36279939  0.10377718  1
  O  O373  1  0.89741687  0.36908964  0.61754718  1
  O  O374  1  0.87159591  0.86328100  0.14231295  1
  O  O375  1  0.86584811  0.86217721  0.62799710  1
  O  O376  1  0.13892613  0.12279758  0.34797249  1
  O  O377  1  0.10857560  0.13269446  0.88205339  1
  O  O378  1  0.13775430  0.62670731  0.38345811  1
  O  O379  1  0.11880772  0.65290799  0.87316173  1
  O  O380  1  0.64722161  0.11893844  0.39274585  1
  O  O381  1  0.64051136  0.19624857  0.87688250  1
  O  O382  1  0.63196675  0.63316106  0.36945589  1
  O  O383  1  0.55631018  0.63013456  0.99134491  1
