# generated using pymatgen
data_VZnO4
_symmetry_space_group_name_H-M   'P 1'
_cell_length_a   16.92346309
_cell_length_b   16.90310219
_cell_length_c   16.94562716
_cell_angle_alpha   90.04787885
_cell_angle_beta   90.00770229
_cell_angle_gamma   89.80241561
_symmetry_Int_Tables_number   1
_chemical_formula_structural   VZnO4
_chemical_formula_sum   'V64 Zn64 O256'
_cell_volume   4847.41904433
_cell_formula_units_Z   64
loop_
 _symmetry_equiv_pos_site_id
 _symmetry_equiv_pos_as_xyz
  1  'x, y, z'
loop_
 _atom_site_type_symbol
 _atom_site_label
 _atom_site_symmetry_multiplicity
 _atom_site_fract_x
 _atom_site_fract_y
 _atom_site_fract_z
 _atom_site_occupancy
  V  V0  1  0.12130585  0.36576817  0.25722729  1
  V  V1  1  0.00185075  0.12247855  0.63775581  1
  V  V2  1  0.73535412  0.87491397  0.62133833  1
  V  V3  1  0.24385929  0.61922286  0.86635095  1
  V  V4  1  0.75674415  0.37490128  0.15312201  1
  V  V5  1  0.76679013  0.38748608  0.59752895  1
  V  V6  1  0.88968832  0.75902665  0.63114413  1
  V  V7  1  0.37065508  0.13651447  0.24313479  1
  V  V8  1  -0.00159000  0.37331669  0.87902308  1
  V  V9  1  0.02560216  0.00288328  0.00906852  1
  V  V10  1  0.12932130  0.15236038  0.48697027  1
  V  V11  1  0.35859361  0.12320394  0.74438834  1
  V  V12  1  0.12868249  0.00470110  0.60783489  1
  V  V13  1  0.50925573  0.50178504  -0.00372445  1
  V  V14  1  0.11109044  0.49953014  0.12809673  1
  V  V15  1  -0.01731179  0.50179532  0.48032558  1
  V  V16  1  0.91129768  0.88039587  0.49069304  1
  V  V17  1  0.12987802  0.62219909  0.48626605  1
  V  V18  1  0.88054839  0.74805557  0.13054859  1
  V  V19  1  0.11886399  0.74989148  0.86399033  1
  V  V20  1  -0.02877686  0.36712856  0.37109520  1
  V  V21  1  0.73783821  0.00128851  0.26306166  1
  V  V22  1  0.11114483  0.89131575  0.23262890  1
  V  V23  1  0.87262405  0.89041090  0.00238434  1
  V  V24  1  0.87303017  0.23845802  0.62288179  1
  V  V25  1  0.37716434  0.48647720  0.40563301  1
  V  V26  1  0.62201928  0.64740931  0.50852317  1
  V  V27  1  0.11582485  0.62131222  0.00880871  1
  V  V28  1  0.24925611  0.75573221  0.00757149  1
  V  V29  1  0.34835623  -0.00085084  0.86711766  1
  V  V30  1  0.50614798  0.25416663  0.23009101  1
  V  V31  1  0.36018062  0.00924548  0.37239663  1
  V  V32  1  0.62550869  0.11896098  0.03403237  1
  V  V33  1  0.74485756  0.75609971  -0.01061466  1
  V  V34  1  0.87748783  0.13279722  0.24990530  1
  V  V35  1  0.37553679  0.74331041  0.61694159  1
  V  V36  1  0.01361994  0.13198398  0.13170284  1
  V  V37  1  0.90547282  -0.00024786  0.37015815  1
  V  V38  1  0.24791749  0.24777486  -0.01514610  1
  V  V39  1  0.27134077  0.37202471  0.11570054  1
  V  V40  1  0.52330781  0.37260869  0.87104789  1
  V  V41  1  -0.00840905  0.62106506  0.63458425  1
  V  V42  1  0.62321727  0.63474989  0.00668477  1
  V  V43  1  0.63718148  0.22079773  0.87922731  1
  V  V44  1  0.75762134  0.75716934  0.48200537  1
  V  V45  1  0.75132708  0.20478283  0.49226025  1
  V  V46  1  0.77593428  -0.01153810  0.75780534  1
  V  V47  1  0.49256301  0.76780197  0.24711442  1
  V  V48  1  0.24008232  0.86006686  0.61567077  1
  V  V49  1  0.37059731  0.48862155  0.86664637  1
  V  V50  1  0.39049481  0.63139248  0.75212913  1
  V  V51  1  0.51466884  0.22856765  0.74597813  1
  V  V52  1  0.49992421  0.03011861  0.49349317  1
  V  V53  1  0.50503894  -0.00099720  0.00942998  1
  V  V54  1  0.00560019  0.74099085  0.25712826  1
  V  V55  1  0.26434295  0.50785891  0.25259262  1
  V  V56  1  0.13088810  0.89922320  0.75974309  1
  V  V57  1  0.12041380  0.48954517  0.63496529  1
  V  V58  1  0.38665220  0.86711304  -0.01090249  1
  V  V59  1  0.75679091  0.25050253  0.01704179  1
  V  V60  1  0.61134733  0.24337768  0.38882634  1
  V  V61  1  0.66104023  0.38308954  0.75409286  1
  V  V62  1  0.73884921  0.88509619  0.13318112  1
  V  V63  1  -0.00718771  0.88219945  0.87507052  1
  Zn  Zn64  1  0.19515605  0.19520896  0.17917498  1
  Zn  Zn65  1  0.21880764  0.17905849  0.64281756  1
  Zn  Zn66  1  0.18855122  0.69289871  0.19760178  1
  Zn  Zn67  1  0.17689897  0.67528880  0.68442897  1
  Zn  Zn68  1  0.68924270  0.19192671  0.20759605  1
  Zn  Zn69  1  0.71920322  0.18736392  0.70325159  1
  Zn  Zn70  1  0.67897675  0.70281536  0.18055698  1
  Zn  Zn71  1  0.68891319  0.64327449  0.69299277  1
  Zn  Zn72  1  0.33419431  0.33650874  0.28578497  1
  Zn  Zn73  1  0.34666672  0.27910433  0.85316450  1
  Zn  Zn74  1  0.31237154  0.81839441  0.32543934  1
  Zn  Zn75  1  0.30617741  0.81056295  0.81238048  1
  Zn  Zn76  1  0.75708411  0.35830112  0.37062570  1
  Zn  Zn77  1  0.83585000  0.25628389  0.83127016  1
  Zn  Zn78  1  0.82482094  0.82567666  0.30901781  1
  Zn  Zn79  1  0.77737047  0.77079090  0.77903796  1
  Zn  Zn80  1  0.18329382  0.44586393  0.43591289  1
  Zn  Zn81  1  0.19162038  0.43725957  0.94390577  1
  Zn  Zn82  1  0.19108900  0.94004139  0.43228714  1
  Zn  Zn83  1  0.20838941  0.94072851  1.07037303  1
  Zn  Zn84  1  0.55066327  0.40945327  0.34443865  1
  Zn  Zn85  1  0.68840353  0.44374060  1.02261612  1
  Zn  Zn86  1  0.70235670  0.97394804  0.45804280  1
  Zn  Zn87  1  0.68906780  0.94888901  0.94211746  1
  Zn  Zn88  1  0.31207523  0.08557932  0.06863340  1
  Zn  Zn89  1  0.31107469  0.06042111  0.55758969  1
  Zn  Zn90  1  0.29237860  0.57243514  0.07790870  1
  Zn  Zn91  1  0.30345546  0.55021301  0.57984101  1
  Zn  Zn92  1  0.81296523  0.06844858  0.07510142  1
  Zn  Zn93  1  0.82668804  0.04682732  0.56428208  1
  Zn  Zn94  1  0.79631526  0.57663213  0.08358547  1
  Zn  Zn95  1  0.81551265  0.57234011  0.55765107  1
  Zn  Zn96  1  0.45007686  0.44177777  0.18209373  1
  Zn  Zn97  1  0.43157268  0.41820824  0.70705795  1
  Zn  Zn98  1  0.38918436  0.95507057  0.17061411  1
  Zn  Zn99  1  0.41516905  0.94247350  0.66782317  1
  Zn  Zn100  1  0.93762995  0.30749638  0.19271990  1
  Zn  Zn101  1  0.96612639  0.41129410  0.67141770  1
  Zn  Zn102  1  0.93546507  0.93976728  0.18342251  1
  Zn  Zn103  1  0.94792002  0.93607929  0.68558404  1
  Zn  Zn104  1  0.07755902  0.07626091  0.30897654  1
  Zn  Zn105  1  -0.05828492  0.07039327  0.82343373  1
  Zn  Zn106  1  0.06122534  0.55789164  0.30468994  1
  Zn  Zn107  1  0.04908439  0.56459256  0.81608462  1
  Zn  Zn108  1  0.55048616  0.07062761  0.31642992  1
  Zn  Zn109  1  0.52617559  0.01578935  0.77275770  1
  Zn  Zn110  1  0.48630905  0.61040001  0.38305408  1
  Zn  Zn111  1  0.57107585  0.55673542  0.80406955  1
  Zn  Zn112  1  0.42476269  0.19294786  0.43476661  1
  Zn  Zn113  1  0.43776781  0.17418101  0.94307948  1
  Zn  Zn114  1  0.30039815  0.67272384  0.43337544  1
  Zn  Zn115  1  0.40899153  0.65531973  0.97437381  1
  Zn  Zn116  1  0.94402109  0.17838106  0.44185949  1
  Zn  Zn117  1  0.94573954  0.18842093  0.96243179  1
  Zn  Zn118  1  0.97799969  0.71375528  0.45651706  1
  Zn  Zn119  1  0.93802288  0.69905602  0.94907499  1
  Zn  Zn120  1  0.06979003  0.31296069  0.06188342  1
  Zn  Zn121  1  0.04975711  0.31456837  0.55062041  1
  Zn  Zn122  1  0.06542494  0.81195441  0.06173819  1
  Zn  Zn123  1  0.07804145  0.80800559  0.56581735  1
  Zn  Zn124  1  0.57345598  0.31641752  0.06218900  1
  Zn  Zn125  1  0.59253997  0.30171568  0.57754863  1
  Zn  Zn126  1  0.56011960  0.81601535  0.06465884  1
  Zn  Zn127  1  0.54996565  0.82368769  0.69161935  1
  O  O128  1  0.11310731  0.12583426  0.13826204  1
  O  O129  1  0.11891401  0.11361482  0.62942302  1
  O  O130  1  0.13541188  0.61632888  0.11403760  1
  O  O131  1  0.10686834  0.61161620  0.61695530  1
  O  O132  1  0.61910975  0.12764434  0.13080952  1
  O  O133  1  0.63297808  0.11720515  0.61927006  1
  O  O134  1  0.62113795  0.62920586  0.10464650  1
  O  O135  1  0.62645131  0.62280552  0.60800540  1
  O  O136  1  0.37193929  0.38747851  0.37679782  1
  O  O137  1  0.39200246  0.38688274  0.85610657  1
  O  O138  1  0.36737064  0.90417031  0.36194554  1
  O  O139  1  0.36313246  0.88890853  0.87429616  1
  O  O140  1  0.87328570  0.37956685  0.36380089  1
  O  O141  1  0.89568766  0.35662700  0.87671585  1
  O  O142  1  0.88924684  0.88710316  0.38263472  1
  O  O143  1  0.89362630  0.86909661  0.88637310  1
  O  O144  1  0.25783004  0.01399498  0.37998822  1
  O  O145  1  0.25532307  0.01102220  0.88315809  1
  O  O146  1  0.26131653  0.49438534  0.36032528  1
  O  O147  1  0.26523947  0.49975927  0.87959584  1
  O  O148  1  0.76256907  -0.00852991  0.36331758  1
  O  O149  1  0.75482590  -0.02694181  0.85479409  1
  O  O150  1  0.65021474  0.49424119  0.28083999  1
  O  O151  1  0.80047390  0.52851479  0.87064255  1
  O  O152  1  0.24385884  0.48742958  0.13058558  1
  O  O153  1  0.22044147  0.48384987  0.62574396  1
  O  O154  1  0.28669885  0.99479720  0.12534373  1
  O  O155  1  0.23386678  0.98358346  0.62109023  1
  O  O156  1  0.76028109  0.47956455  0.10987631  1
  O  O157  1  0.77775747  0.48494636  0.61889569  1
  O  O158  1  0.75475719  0.99037749  0.14101144  1
  O  O159  1  0.76442473  0.97795716  0.63160478  1
  O  O160  1  0.00848277  0.37166893  0.26192465  1
  O  O161  1  0.01582514  0.34131395  0.78204114  1
  O  O162  1  0.00807223  0.86927634  0.24049145  1
  O  O163  1  0.01238576  0.88629648  0.76931907  1
  O  O164  1  0.49961063  0.36483550  0.25086312  1
  O  O165  1  0.51768373  0.35881606  0.75888731  1
  O  O166  1  0.48021026  0.87059513  0.22228666  1
  O  O167  1  0.50211803  0.91458031  0.73630572  1
  O  O168  1  0.49587891  0.14862415  0.25295818  1
  O  O169  1  0.52255451  0.12653737  0.75305068  1
  O  O170  1  0.49302180  0.66768060  0.28109940  1
  O  O171  1  0.48939360  0.62563813  0.75302034  1
  O  O172  1  0.99432808  0.12301161  0.24005125  1
  O  O173  1  1.00240346  0.12465865  0.73612009  1
  O  O174  1  1.00598201  0.64027080  0.24809025  1
  O  O175  1  0.99238356  0.62052008  0.73322569  1
  O  O176  1  0.36879145  0.25807995  -0.03296994  1
  O  O177  1  0.34703148  0.26506238  0.49925252  1
  O  O178  1  0.36127689  0.76093772  -0.02753346  1
  O  O179  1  0.35922179  0.73176557  0.51990068  1
  O  O180  1  0.85463991  0.23012058  0.01623386  1
  O  O181  1  0.85979742  0.22511201  0.50900095  1
  O  O182  1  0.86106932  0.76332690  0.00904553  1
  O  O183  1  0.88086859  0.77217364  0.49523659  1
  O  O184  1  0.12770651  0.25305940  0.49909090  1
  O  O185  1  0.14728312  0.25199311  1.00934386  1
  O  O186  1  0.10779928  0.72397069  0.49460207  1
  O  O187  1  0.13426592  0.74072216  0.99550968  1
  O  O188  1  0.64224158  0.23835515  0.49889938  1
  O  O189  1  0.62563322  0.23011988  0.99496624  1
  O  O190  1  0.65170179  0.75016847  0.49709573  1
  O  O191  1  0.63352566  0.74905011  1.00135197  1
  O  O192  1  0.50697553  0.25562125  0.13048007  1
  O  O193  1  0.52043232  0.24760490  0.64834684  1
  O  O194  1  0.50401473  0.74942266  0.14243552  1
  O  O195  1  0.47337056  0.76106122  0.62698066  1
  O  O196  1  0.99914846  0.23813962  0.11796259  1
  O  O197  1  0.98219731  0.23990390  0.62260640  1
  O  O198  1  0.98287146  0.75619779  0.11887196  1
  O  O199  1  0.99753407  0.73657633  0.61418984  1
  O  O200  1  -0.01406104  0.26887797  0.38438440  1
  O  O201  1  0.01340392  0.27121800  0.90732518  1
  O  O202  1  -0.00267384  0.75532447  0.35548771  1
  O  O203  1  0.01345004  0.76774714  0.89187168  1
  O  O204  1  0.51181199  0.26161063  0.39807909  1
  O  O205  1  0.52179044  0.25538744  0.87123362  1
  O  O206  1  0.50584924  0.80346451  0.34171907  1
  O  O207  1  0.59457909  0.72433552  0.82971501  1
  O  O208  1  0.22909566  0.13782928  0.53189277  1
  O  O209  1  0.26317419  0.14582507  0.99242263  1
  O  O210  1  0.23263904  0.61634064  0.50985918  1
  O  O211  1  0.24055400  0.63224012  0.98346770  1
  O  O212  1  0.74945923  0.10294810  0.49637560  1
  O  O213  1  0.73128492  0.12795222  1.01952113  1
  O  O214  1  0.76613700  0.65538002  0.49890358  1
  O  O215  1  0.73966377  0.64598096  1.00138284  1
  O  O216  1  0.25498389  0.37418930  0.01134807  1
  O  O217  1  0.25415321  0.35838192  0.49931683  1
  O  O218  1  0.24963626  0.85809554  -0.00537964  1
  O  O219  1  0.22087747  0.86415861  0.51626093  1
  O  O220  1  0.75130405  0.34986946  -0.00333179  1
  O  O221  1  0.75884217  0.37996311  0.50026631  1
  O  O222  1  0.75241624  0.87340414  0.01142695  1
  O  O223  1  0.75624802  0.87795469  0.50851533  1
  O  O224  1  0.13409339  0.49342213  0.23911626  1
  O  O225  1  0.10647161  0.50525962  0.73408937  1
  O  O226  1  0.11236625  0.99099506  0.24090622  1
  O  O227  1  0.13276307  0.99586980  0.75483799  1
  O  O228  1  0.64650892  0.55569253  0.23730391  1
  O  O229  1  0.64529238  0.48414123  0.75559539  1
  O  O230  1  0.63974806  1.01119581  0.26419130  1
  O  O231  1  0.60601583  1.05247231  0.63900408  1
  O  O232  1  0.38505257  0.02469469  0.26033959  1
  O  O233  1  0.36250616  0.00866788  0.75581443  1
  O  O234  1  0.36514747  0.49692187  0.24131850  1
  O  O235  1  0.38186254  0.51132782  0.75930132  1
  O  O236  1  0.87661320  -0.00035900  0.26354362  1
  O  O237  1  0.88040034  -0.00106288  0.75563949  1
  O  O238  1  0.85067964  0.53442908  0.27166137  1
  O  O239  1  0.91029679  0.44558853  0.76057749  1
  O  O240  1  0.12906344  0.37973357  0.35756356  1
  O  O241  1  0.10309571  0.38997784  0.88512081  1
  O  O242  1  0.15299826  0.87096347  0.34180620  1
  O  O243  1  0.12165729  0.86300943  0.86539112  1
  O  O244  1  0.64051963  0.35324630  0.38330136  1
  O  O245  1  0.62582467  0.36898224  0.86568203  1
  O  O246  1  0.55891922  0.85602907  0.43948651  1
  O  O247  1  0.59278835  0.92047429  0.87895165  1
  O  O248  1  0.38552390  0.13270594  0.14175425  1
  O  O249  1  0.37250471  0.11441666  0.64469444  1
  O  O250  1  0.38313300  0.63045837  0.08112782  1
  O  O251  1  0.36129478  0.63023412  0.64472261  1
  O  O252  1  0.88942393  0.11769821  0.14363250  1
  O  O253  1  0.89556587  0.12000149  0.61746894  1
  O  O254  1  0.86880085  0.64801287  0.12212216  1
  O  O255  1  0.88509115  0.64675977  0.61581700  1
  O  O256  1  0.25773900  0.26744481  0.11424486  1
  O  O257  1  0.23321232  0.29693273  0.64212234  1
  O  O258  1  0.25033795  0.74047180  0.10562108  1
  O  O259  1  0.23747470  0.75631619  0.63123173  1
  O  O260  1  0.73841867  0.25882344  0.12497209  1
  O  O261  1  0.75532860  0.24073567  0.60159801  1
  O  O262  1  0.75723622  0.76624202  0.12503325  1
  O  O263  1  0.77779997  0.77152409  0.61056712  1
  O  O264  1  0.28754785  0.29985979  0.46033311  1
  O  O265  1  0.23830059  0.27336416  0.88431730  1
  O  O266  1  0.26065755  0.72653820  0.34533479  1
  O  O267  1  0.23135900  0.74039028  0.87720647  1
  O  O268  1  0.75089390  0.23847879  0.39549515  1
  O  O269  1  0.74010436  0.23791950  0.89437525  1
  O  O270  1  0.76263849  0.76594266  0.38284133  1
  O  O271  1  0.75049554  0.77021450  0.89294035  1
  O  O272  1  0.00578792  0.11118333  0.01608945  1
  O  O273  1  0.02535366  0.13281652  0.51186527  1
  O  O274  1  0.01687112  0.63150362  0.00235886  1
  O  O275  1  0.00572089  0.61079563  0.49614865  1
  O  O276  1  0.51299958  0.10774588  -0.00254326  1
  O  O277  1  0.48975019  0.13014914  0.50784698  1
  O  O278  1  0.51846248  0.61879718  -0.02256068  1
  O  O279  1  0.52607321  0.65335625  0.48073228  1
  O  O280  1  0.51037496  0.39470635  0.55020421  1
  O  O281  1  0.51985238  0.38834196  0.98081834  1
  O  O282  1  0.49810163  0.83233596  0.46795793  1
  O  O283  1  0.49401401  0.87490637  0.99247211  1
  O  O284  1  0.99266016  0.39014307  0.48120712  1
  O  O285  1  0.99624294  0.38438273  0.98640307  1
  O  O286  1  1.00993537  0.87187261  0.49117399  1
  O  O287  1  0.99551715  0.88857884  0.99900270  1
  O  O288  1  0.48544746  0.49417654  0.38430107  1
  O  O289  1  0.50565754  0.48400780  0.86725283  1
  O  O290  1  0.48544426  1.00981700  0.38633393  1
  O  O291  1  0.53889942  0.98089188  0.88697624  1
  O  O292  1  0.99806154  0.49133877  0.37591522  1
  O  O293  1  0.99012921  0.47707569  0.87007128  1
  O  O294  1  1.00352128  1.00068350  0.36819491  1
  O  O295  1  1.00016871  0.99176520  0.89490411  1
  O  O296  1  0.00031407  0.00552609  0.11250830  1
  O  O297  1  0.01717155  0.00964036  0.62793305  1
  O  O298  1  0.01577569  0.50612445  0.12957991  1
  O  O299  1  -0.01423653  0.51474177  0.60964791  1
  O  O300  1  0.48667508  -0.00980365  0.10517797  1
  O  O301  1  0.47753168  -0.02222524  0.58027424  1
  O  O302  1  0.50237532  0.49624902  0.09490493  1
  O  O303  1  0.49851026  0.44896340  0.60186002  1
  O  O304  1  0.24222552  0.38275429  0.23419648  1
  O  O305  1  0.28723425  0.33255411  0.68743729  1
  O  O306  1  0.21425011  0.87567415  0.28234704  1
  O  O307  1  0.23010582  0.86809632  0.74240687  1
  O  O308  1  0.74863421  0.37464958  0.25169589  1
  O  O309  1  0.75520031  0.36573757  0.77118017  1
  O  O310  1  0.75043713  0.88624220  0.24233779  1
  O  O311  1  0.75583715  0.87575023  0.73156397  1
  O  O312  1  0.26964668  0.14801982  0.24803377  1
  O  O313  1  0.26203148  0.14905371  0.74729983  1
  O  O314  1  0.24854059  0.60595140  0.23743155  1
  O  O315  1  0.24165161  0.62047855  0.76428849  1
  O  O316  1  0.76661998  0.11037694  0.24588257  1
  O  O317  1  0.73571981  0.08095583  0.74262159  1
  O  O318  1  0.70721697  0.61095855  0.24743492  1
  O  O319  1  0.76804144  0.66060005  0.76071791  1
  O  O320  1  0.37375620  0.12518780  0.36168391  1
  O  O321  1  0.39190072  0.10144670  0.85973081  1
  O  O322  1  0.37259429  0.59596011  0.38874603  1
  O  O323  1  0.36510583  0.61733862  0.86347558  1
  O  O324  1  0.88931772  0.10918462  0.36434018  1
  O  O325  1  0.89932310  0.16457197  0.86491963  1
  O  O326  1  0.84609630  0.58298092  0.32493319  1
  O  O327  1  0.89325378  0.62492781  0.87073847  1
  O  O328  1  0.12315644  0.38776027  0.13132701  1
  O  O329  1  0.07439179  0.39145917  0.63153403  1
  O  O330  1  0.13332328  0.87600159  0.12911848  1
  O  O331  1  0.12062947  0.88676640  0.64071490  1
  O  O332  1  0.64695093  0.38244220  0.11449185  1
  O  O333  1  0.66550005  0.36649500  0.64231147  1
  O  O334  1  0.64012416  0.87787610  0.12020630  1
  O  O335  1  0.63744490  0.86326237  0.62329372  1
  O  O336  1  0.13048927  0.26799508  0.24298831  1
  O  O337  1  0.12752616  0.16650272  0.82918857  1
  O  O338  1  0.10790324  0.76101638  0.23405581  1
  O  O339  1  0.11472068  0.74125072  0.76468394  1
  O  O340  1  0.61021378  0.25213501  0.26679850  1
  O  O341  1  0.63455182  0.24752493  0.76569970  1
  O  O342  1  0.60051371  0.76256487  0.24306125  1
  O  O343  1  0.61410734  0.74072503  0.75169632  1
  O  O344  1  0.39586431  0.24893754  0.25742888  1
  O  O345  1  0.40395721  0.22774075  0.76448202  1
  O  O346  1  0.38817419  0.75933967  0.24658867  1
  O  O347  1  0.36899670  0.73539767  0.74902178  1
  O  O348  1  0.87395833  0.23113474  0.25711451  1
  O  O349  1  0.83926869  0.22675559  0.72070086  1
  O  O350  1  0.88748745  0.76068411  0.23664523  1
  O  O351  1  0.88824032  0.77122143  0.72832314  1
  O  O352  1  0.36219342  0.48513846  0.50548807  1
  O  O353  1  0.40235656  0.50729955  0.96917295  1
  O  O354  1  0.37844645  1.01593253  0.48083470  1
  O  O355  1  0.39715920  0.98961736  0.97393821  1
  O  O356  1  0.88412319  0.51244716  0.48464301  1
  O  O357  1  0.84976487  0.56748002  0.91107576  1
  O  O358  1  0.88886525  0.98888296  0.48506016  1
  O  O359  1  0.86680089  0.99157284  1.00276978  1
  O  O360  1  0.12318588  -0.00568101  0.00689117  1
  O  O361  1  0.12452357  0.00387248  0.50779775  1
  O  O362  1  0.12992619  0.51270737  0.01060990  1
  O  O363  1  0.11084799  0.50385456  0.50858031  1
  O  O364  1  0.62030978  0.00977634  0.01491519  1
  O  O365  1  0.60170538  0.00637081  0.48694859  1
  O  O366  1  0.62294353  0.52399966  -0.02093452  1
  O  O367  1  0.65256137  0.54420909  0.46776615  1
  O  O368  1  0.36952163  0.38041681  0.12364104  1
  O  O369  1  0.35116423  0.35721194  0.64569409  1
  O  O370  1  0.37221087  0.87206344  0.08761524  1
  O  O371  1  0.34634967  0.85722892  0.62846226  1
  O  O372  1  0.85702186  0.36141432  0.13710495  1
  O  O373  1  0.87088887  0.35038997  0.62235331  1
  O  O374  1  0.86505670  0.87134841  0.11656647  1
  O  O375  1  0.89999665  0.87075559  0.60482435  1
  O  O376  1  0.13234598  0.13367278  0.38823131  1
  O  O377  1  0.12223877  0.12684505  0.88892087  1
  O  O378  1  0.12733588  0.60768460  0.38721776  1
  O  O379  1  0.12155480  0.62988098  0.88351939  1
  O  O380  1  0.62344653  0.14398401  0.37259312  1
  O  O381  1  0.62950420  0.12456248  0.87722459  1
  O  O382  1  0.65458662  0.59602944  0.40712293  1
  O  O383  1  0.62506966  0.65277406  0.85372378  1
