# generated using pymatgen
data_VZnO4
_symmetry_space_group_name_H-M   'P 1'
_cell_length_a   17.08808155
_cell_length_b   16.95401015
_cell_length_c   17.12118890
_cell_angle_alpha   89.84053274
_cell_angle_beta   89.81806749
_cell_angle_gamma   90.06465916
_symmetry_Int_Tables_number   1
_chemical_formula_structural   VZnO4
_chemical_formula_sum   'V64 Zn64 O256'
_cell_volume   4960.15803234
_cell_formula_units_Z   64
loop_
 _symmetry_equiv_pos_site_id
 _symmetry_equiv_pos_as_xyz
  1  'x, y, z'
loop_
 _atom_site_type_symbol
 _atom_site_label
 _atom_site_symmetry_multiplicity
 _atom_site_fract_x
 _atom_site_fract_y
 _atom_site_fract_z
 _atom_site_occupancy
  V  V0  1  0.22953333  0.37813262  0.11317263  1
  V  V1  1  0.75475068  0.24407176  -0.00343560  1
  V  V2  1  0.70117649  0.69475165  0.94728984  1
  V  V3  1  0.46454203  0.49195369  0.48643452  1
  V  V4  1  0.62952546  0.24169586  0.38133512  1
  V  V5  1  0.49409597  0.48681974  -0.00683219  1
  V  V6  1  0.00321060  0.03281666  0.48376503  1
  V  V7  1  0.12832709  0.11591802  0.00072667  1
  V  V8  1  0.75448391  0.88062155  0.61626264  1
  V  V9  1  0.02243299  0.62910589  0.63503535  1
  V  V10  1  0.48884811  0.63675629  0.60217373  1
  V  V11  1  0.25147891  0.24180638  -0.00401330  1
  V  V12  1  0.17709188  0.69895930  0.42438468  1
  V  V13  1  0.76426208  0.50268239  0.25096951  1
  V  V14  1  0.74668165  0.37319197  0.12423472  1
  V  V15  1  0.63772211  0.11997144  -0.00433941  1
  V  V16  1  0.62351252  0.50615168  0.12276952  1
  V  V17  1  0.85699542  0.38655898  0.48022580  1
  V  V18  1  0.63033356  0.50706187  0.59776850  1
  V  V19  1  0.24242846  0.49442314  0.74754609  1
  V  V20  1  0.11197188  0.25741815  0.88596031  1
  V  V21  1  0.87525945  0.25985270  0.13759056  1
  V  V22  1  0.50690543  0.12257336  0.12172960  1
  V  V23  1  0.10553535  0.00735769  0.63973250  1
  V  V24  1  0.48129014  0.74888533  0.24275573  1
  V  V25  1  -0.01255452  0.88418273  0.87837072  1
  V  V26  1  0.39689944  0.61615777  0.76424093  1
  V  V27  1  0.04087434  0.49178764  0.50226627  1
  V  V28  1  0.61280304  0.37961078  0.25511312  1
  V  V29  1  0.49295077  0.62610353  0.11563807  1
  V  V30  1  0.49467628  0.77029684  0.78940982  1
  V  V31  1  -0.06777954  0.25777792  0.75753363  1
  V  V32  1  0.12615159  0.88149576  0.75339424  1
  V  V33  1  0.50076566  -0.01531376  -0.00739197  1
  V  V34  1  0.12664910  -0.01088540  0.12224415  1
  V  V35  1  0.33445172  0.00300865  0.84283910  1
  V  V36  1  0.63320254  0.85526922  0.24620658  1
  V  V37  1  0.60999446  -0.01170172  0.59862103  1
  V  V38  1  0.77444521  0.86757701  0.12295575  1
  V  V39  1  0.82960864  0.24824135  0.59820207  1
  V  V40  1  0.84233975  0.62495640  0.71194002  1
  V  V41  1  0.36956750  0.60772007  0.25215149  1
  V  V42  1  0.53401807  0.25648916  0.74948452  1
  V  V43  1  0.25534181  0.61569161  0.88824412  1
  V  V44  1  0.24509163  0.12326307  0.37929983  1
  V  V45  1  0.49816015  0.24947309  0.25028573  1
  V  V46  1  0.37729898  0.25578789  0.11911927  1
  V  V47  1  0.37655995  0.11609817  0.24318656  1
  V  V48  1  0.26286204  0.87234765  0.11410202  1
  V  V49  1  0.02264348  0.37480950  0.37498725  1
  V  V50  1  0.00910790  0.61956430  0.12617039  1
  V  V51  1  0.62835580  0.88366596  0.75746851  1
  V  V52  1  0.01854592  0.25754705  0.25068047  1
  V  V53  1  0.63030709  -0.00410146  0.14121580  1
  V  V54  1  0.11992838  0.74124564  0.87176519  1
  V  V55  1  0.24136872  0.49114841  0.25226967  1
  V  V56  1  0.25758656  -0.00389169  0.24913232  1
  V  V57  1  0.12158259  0.86446945  0.26152409  1
  V  V58  1  0.25957257  0.75590446  -0.00276257  1
  V  V59  1  0.63552293  0.40120433  0.78439796  1
  V  V60  1  0.25709771  0.87998211  0.62175772  1
  V  V61  1  0.72966786  0.63163560  0.36213410  1
  V  V62  1  0.49004250  0.88098534  0.37114202  1
  V  V63  1  -0.00333954  0.11365412  0.13212107  1
  Zn  Zn64  1  0.19013023  0.18277024  0.17772456  1
  Zn  Zn65  1  0.09041460  0.19899077  0.68230840  1
  Zn  Zn66  1  0.19522537  0.68828912  0.18686297  1
  Zn  Zn67  1  0.20544550  0.68400903  0.70092807  1
  Zn  Zn68  1  0.68865354  0.18849738  0.20893934  1
  Zn  Zn69  1  0.65751742  0.18264307  0.63615770  1
  Zn  Zn70  1  0.70175275  0.68383515  0.16181947  1
  Zn  Zn71  1  0.64812002  0.69192741  0.68972661  1
  Zn  Zn72  1  0.29161734  0.30226876  0.29102016  1
  Zn  Zn73  1  0.35062190  0.32294777  0.74077089  1
  Zn  Zn74  1  0.30839865  0.81344302  0.30711753  1
  Zn  Zn75  1  0.30989001  0.81674101  0.81184546  1
  Zn  Zn76  1  0.81054991  0.31186537  0.31405461  1
  Zn  Zn77  1  0.73515305  0.25033692  0.78378336  1
  Zn  Zn78  1  0.81281887  0.78438906  0.27187350  1
  Zn  Zn79  1  0.80184364  0.79628895  0.79709027  1
  Zn  Zn80  1  0.24892679  0.52320250  0.45759410  1
  Zn  Zn81  1  0.24389560  0.39785834  0.89872681  1
  Zn  Zn82  1  0.15617876  0.91214736  0.46238695  1
  Zn  Zn83  1  0.18087725  0.93563840  0.93341907  1
  Zn  Zn84  1  0.67523615  0.44698210  0.42720023  1
  Zn  Zn85  1  0.69827373  0.50960171  0.93381954  1
  Zn  Zn86  1  0.66321962  0.87430623  0.44979713  1
  Zn  Zn87  1  0.68838094  0.92589906  0.95557475  1
  Zn  Zn88  1  0.34944330  0.09803321  0.00714359  1
  Zn  Zn89  1  0.24393802  0.08832243  0.58219133  1
  Zn  Zn90  1  0.31764910  0.55551863  0.05867714  1
  Zn  Zn91  1  0.33877710  0.43730947  0.59137641  1
  Zn  Zn92  1  0.79014919  0.08371826  0.12678272  1
  Zn  Zn93  1  0.85677981  0.03790405  0.61687044  1
  Zn  Zn94  1  0.84227732  0.66354638  0.04154485  1
  Zn  Zn95  1  0.82549301  0.57023885  0.53980268  1
  Zn  Zn96  1  0.43811194  0.43650614  0.17850354  1
  Zn  Zn97  1  0.47625895  0.44195582  0.68749791  1
  Zn  Zn98  1  0.44052408  0.93377858  0.17211569  1
  Zn  Zn99  1  0.43467198  0.94716170  0.69709864  1
  Zn  Zn100  1  0.93962661  0.43200255  0.19198620  1
  Zn  Zn101  1  0.79699872  0.43785819  0.67743145  1
  Zn  Zn102  1  0.94838504  0.92525910  0.18972826  1
  Zn  Zn103  1  0.92695948  0.90031406  0.70847002  1
  Zn  Zn104  1  0.06653350  0.06085326  0.30614540  1
  Zn  Zn105  1  -0.08377243  0.05785483  0.80621293  1
  Zn  Zn106  1  0.06876354  0.55567871  0.31423279  1
  Zn  Zn107  1  0.06642799  0.56184264  0.80897571  1
  Zn  Zn108  1  0.56389362  0.06028277  0.31778568  1
  Zn  Zn109  1  0.63340973  0.08580943  0.78388275  1
  Zn  Zn110  1  0.55429578  0.56592597  0.31343981  1
  Zn  Zn111  1  0.57718352  0.57534221  0.82568760  1
  Zn  Zn112  1  0.41338490  0.20162745  0.41369048  1
  Zn  Zn113  1  0.42886487  0.12995523  0.79998615  1
  Zn  Zn114  1  0.44109495  0.68522325  0.41552114  1
  Zn  Zn115  1  0.43609120  0.68875554  0.94304348  1
  Zn  Zn116  1  0.93823123  0.20140967  0.43797122  1
  Zn  Zn117  1  0.93766550  0.18219695  0.95369048  1
  Zn  Zn118  1  1.01785345  0.68811707  0.44806229  1
  Zn  Zn119  1  0.90719938  0.71872543  0.88991451  1
  Zn  Zn120  1  0.05203108  0.30930465  0.04273541  1
  Zn  Zn121  1  -0.02033063  0.36276272  0.60658841  1
  Zn  Zn122  1  0.06666595  0.80736035  0.04760859  1
  Zn  Zn123  1  0.11293820  0.77707990  0.59438506  1
  Zn  Zn124  1  0.57056627  0.30870645  0.05969778  1
  Zn  Zn125  1  0.55862682  0.32567934  0.55811605  1
  Zn  Zn126  1  0.56874793  0.80572472  0.06149988  1
  Zn  Zn127  1  0.52651318  0.84501533  0.57864709  1
  O  O128  1  0.11986155  0.10795925  0.12489019  1
  O  O129  1  0.14100983  0.11170029  0.63536733  1
  O  O130  1  0.11425356  0.61880077  0.13027728  1
  O  O131  1  0.12300969  0.62405265  0.64303210  1
  O  O132  1  0.62158987  0.11081160  0.13220837  1
  O  O133  1  0.60796324  0.08849885  0.60247766  1
  O  O134  1  0.60845693  0.60828073  0.14114803  1
  O  O135  1  0.59246624  0.60994206  0.63242084  1
  O  O136  1  0.35192324  0.35660701  0.38633459  1
  O  O137  1  0.39053632  0.36287602  0.88982001  1
  O  O138  1  0.39138914  0.86553222  0.35970049  1
  O  O139  1  0.36296044  0.90813247  0.86241824  1
  O  O140  1  0.88327324  0.37020869  0.38023196  1
  O  O141  1  0.90001712  0.33363722  0.83264819  1
  O  O142  1  0.86398620  0.89493776  0.33397716  1
  O  O143  1  0.89389158  0.84107125  0.86053522  1
  O  O144  1  0.25807870  0.00236718  0.34729017  1
  O  O145  1  0.23619874  0.00477343  0.86165114  1
  O  O146  1  0.25603400  0.48917070  0.34954475  1
  O  O147  1  0.25146426  0.51494409  0.88746037  1
  O  O148  1  0.77377152  0.03992707  0.38974665  1
  O  O149  1  0.78860246  -0.01296377  0.90977085  1
  O  O150  1  0.73789650  0.50616011  0.35031093  1
  O  O151  1  0.81621649  0.48890781  0.96362761  1
  O  O152  1  0.25301800  0.48014695  0.11603731  1
  O  O153  1  0.25552383  0.48666713  0.64953724  1
  O  O154  1  0.23977727  0.98015525  0.12493439  1
  O  O155  1  0.22651007  0.98579897  0.62802506  1
  O  O156  1  0.73177210  0.49205290  0.14044967  1
  O  O157  1  0.73263395  0.51137274  0.60278131  1
  O  O158  1  0.73441886  0.98195703  0.12375669  1
  O  O159  1  0.74548703  0.98254081  0.61138100  1
  O  O160  1  0.00226259  0.36687746  0.25897381  1
  O  O161  1  -0.03081008  0.35513383  0.79604626  1
  O  O162  1  0.02153450  0.87206520  0.24981131  1
  O  O163  1  0.01510823  0.86338473  0.76617957  1
  O  O164  1  0.50776955  0.36460737  0.23836144  1
  O  O165  1  0.52809223  0.37205818  0.76104466  1
  O  O166  1  0.50194255  0.85698125  0.24088268  1
  O  O167  1  0.50833962  0.87302151  0.75622595  1
  O  O168  1  0.49533329  0.12873868  0.23983349  1
  O  O169  1  0.53795610  0.15141157  0.77451537  1
  O  O170  1  0.48580399  0.62871506  0.24008157  1
  O  O171  1  0.49872219  0.64885090  0.78011291  1
  O  O172  1  1.00994304  0.14009655  0.23623490  1
  O  O173  1  0.94492779  0.17160048  0.80968373  1
  O  O174  1  1.01317974  0.61655110  0.23195230  1
  O  O175  1  0.99511128  0.59963243  0.73039773  1
  O  O176  1  0.35640821  0.22237073  0.01345951  1
  O  O177  1  0.36722565  0.31042335  0.44427252  1
  O  O178  1  0.35821259  0.75186698  -0.00126392  1
  O  O179  1  0.37078147  0.76524073  0.48715526  1
  O  O180  1  0.86020340  0.24023888  0.02356837  1
  O  O181  1  0.87697167  0.27229964  0.50279488  1
  O  O182  1  0.92439579  0.72788309  0.00433436  1
  O  O183  1  0.92118427  0.77018064  0.49309624  1
  O  O184  1  0.15933238  0.25430489  0.50800349  1
  O  O185  1  0.14113833  0.23515436  1.01424779  1
  O  O186  1  0.10928772  0.76025869  0.48074389  1
  O  O187  1  0.14175899  0.75263059  0.97934060  1
  O  O188  1  0.60620951  0.26248032  0.47626967  1
  O  O189  1  0.63962770  0.23133089  1.00897685  1
  O  O190  1  0.62976475  0.74378634  0.48658335  1
  O  O191  1  0.62127014  0.73807272  0.99083662  1
  O  O192  1  0.49973430  0.24058684  0.12968240  1
  O  O193  1  0.55901286  0.25222215  0.64993572  1
  O  O194  1  0.50594803  0.73212869  0.13114402  1
  O  O195  1  0.50676663  0.73654684  0.60731310  1
  O  O196  1  0.98869137  0.25669422  0.13218310  1
  O  O197  1  0.99279687  0.26229468  0.66733832  1
  O  O198  1  1.01861995  0.72387270  0.12157129  1
  O  O199  1  1.01217973  0.72908980  0.62562146  1
  O  O200  1  0.00037967  0.25561547  0.35492702  1
  O  O201  1  0.01805189  0.26338810  0.93369414  1
  O  O202  1  0.10492621  0.64738056  0.37009726  1
  O  O203  1  0.02279325  0.72505889  0.87353975  1
  O  O204  1  0.50126667  0.24612878  0.35323163  1
  O  O205  1  0.43043788  0.30845806  0.91594393  1
  O  O206  1  0.50206896  0.74737260  0.34367549  1
  O  O207  1  0.49555761  0.77006394  0.88735123  1
  O  O208  1  0.26690222  0.11473941  0.47733622  1
  O  O209  1  0.23656050  0.12932997  1.01660928  1
  O  O210  1  0.33134567  0.72861890  0.53621564  1
  O  O211  1  0.25728707  0.63406059  0.99243567  1
  O  O212  1  0.80315461  0.10376235  0.41301824  1
  O  O213  1  0.74223458  0.13232361  1.02617911  1
  O  O214  1  0.77361837  0.61371258  0.45143757  1
  O  O215  1  0.73329195  0.66062163  1.05163414  1
  O  O216  1  0.25637655  0.35428776  0.00791405  1
  O  O217  1  0.22451962  0.28456622  0.51442596  1
  O  O218  1  0.24789417  0.86842016  0.00580402  1
  O  O219  1  0.24405514  0.87755090  0.52051810  1
  O  O220  1  0.74121226  0.35213165  0.02187855  1
  O  O221  1  0.75837256  0.38978245  0.47851516  1
  O  O222  1  0.74192581  0.85567007  0.02955562  1
  O  O223  1  0.74676435  0.84865617  0.51993148  1
  O  O224  1  0.14345510  0.50090599  0.24761983  1
  O  O225  1  0.14541986  0.49182185  0.76241779  1
  O  O226  1  0.13976041  0.98964930  0.23809559  1
  O  O227  1  0.11876669  0.98503559  0.74852591  1
  O  O228  1  0.60883170  0.48616567  0.24301037  1
  O  O229  1  0.61892087  0.49912100  0.74852788  1
  O  O230  1  0.62131867  0.99091433  0.24176798  1
  O  O231  1  0.62249135  0.98461338  0.72607884  1
  O  O232  1  0.36442570  0.00296866  0.22866261  1
  O  O233  1  0.37539826  0.03092763  0.74782334  1
  O  O234  1  0.37408406  0.50418192  0.24349619  1
  O  O235  1  0.40962325  0.51807100  0.76077398  1
  O  O236  1  0.87919404  -0.04417012  0.29396950  1
  O  O237  1  0.87655863  0.00122537  0.72231943  1
  O  O238  1  0.86176445  0.49357125  0.24798749  1
  O  O239  1  0.82754682  0.52942034  0.74354887  1
  O  O240  1  0.11650068  0.36289826  0.37100657  1
  O  O241  1  0.13786155  0.35453678  0.88747165  1
  O  O242  1  0.13465712  0.88128230  0.35917733  1
  O  O243  1  0.11420281  0.86546369  0.86839361  1
  O  O244  1  0.61950976  0.37175636  0.35618940  1
  O  O245  1  0.66199185  0.41839618  0.87851334  1
  O  O246  1  0.61295369  0.86768704  0.34861107  1
  O  O247  1  0.64569253  0.89887252  0.85373706  1
  O  O248  1  0.39159514  0.13196520  0.13003003  1
  O  O249  1  0.31279682  0.17329637  0.64421533  1
  O  O250  1  0.38988603  0.61649274  0.13043035  1
  O  O251  1  0.39965676  0.63286611  0.65792998  1
  O  O252  1  0.89514530  0.13014272  0.12564883  1
  O  O253  1  0.85261656  0.15109560  0.59692676  1
  O  O254  1  0.90656347  0.63297453  0.13217447  1
  O  O255  1  0.89198653  0.61871907  0.61923829  1
  O  O256  1  0.25866002  0.26149849  0.12518089  1
  O  O257  1  0.16603988  0.31468225  0.66800012  1
  O  O258  1  0.23985066  0.76133219  0.10757462  1
  O  O259  1  0.22439693  0.77190827  0.63018770  1
  O  O260  1  0.76178537  0.25764385  0.13686403  1
  O  O261  1  0.73211236  0.25388279  0.58574804  1
  O  O262  1  0.79156829  0.76613154  0.15875246  1
  O  O263  1  0.67238138  0.70806733  0.53315604  1
  O  O264  1  0.25396532  0.22285703  0.35844559  1
  O  O265  1  0.23909119  0.24128935  0.89766717  1
  O  O266  1  0.24687030  0.74658629  0.37116230  1
  O  O267  1  0.25054621  0.74378299  0.88450755  1
  O  O268  1  0.72841716  0.25473565  0.36664655  1
  O  O269  1  0.76291567  0.24512585  0.89953124  1
  O  O270  1  0.75566311  0.72954911  0.34889389  1
  O  O271  1  0.72957472  0.76707289  0.88274386  1
  O  O272  1  0.01714683  0.13000136  0.02669180  1
  O  O273  1  0.00918531  0.13320915  0.49302339  1
  O  O274  1  0.01430993  0.60248085  0.02676521  1
  O  O275  1  0.01655763  0.59739218  0.51955976  1
  O  O276  1  0.52471832  0.11881812  0.01573797  1
  O  O277  1  0.43404909  0.18924501  0.53111691  1
  O  O278  1  0.49631599  0.62020460  0.01447560  1
  O  O279  1  0.46879755  0.62173314  0.50242568  1
  O  O280  1  0.48831463  0.39522035  0.49804157  1
  O  O281  1  0.51445611  0.38786681  1.00439973  1
  O  O282  1  0.50882195  0.85413500  0.46652010  1
  O  O283  1  0.51167605  0.88520720  1.00961438  1
  O  O284  1  1.00518806  0.37601104  0.48329827  1
  O  O285  1  0.99662146  0.41274250  0.98538783  1
  O  O286  1  0.92399659  0.83947179  0.46966587  1
  O  O287  1  1.00371955  0.86674798  0.97684861  1
  O  O288  1  0.48944760  0.51365515  0.39168095  1
  O  O289  1  0.51663492  0.51237944  0.89954876  1
  O  O290  1  0.49828488  0.98122256  0.36193612  1
  O  O291  1  0.51000080  1.00014047  0.89787151  1
  O  O292  1  1.01581069  0.48543249  0.38538687  1
  O  O293  1  1.00096088  0.49991009  0.88753172  1
  O  O294  1  1.00528736  1.00906529  0.38560396  1
  O  O295  1  0.97877824  0.98315637  0.87133845  1
  O  O296  1  0.00758976  0.00964119  0.13840090  1
  O  O297  1  0.01111782  0.02697126  0.64689993  1
  O  O298  1  -0.00121979  0.51493882  0.13468427  1
  O  O299  1  0.02471857  0.46825601  0.60055547  1
  O  O300  1  0.51559631  0.00642142  0.12583124  1
  O  O301  1  0.50818194  -0.04204936  0.60898543  1
  O  O302  1  0.50817935  0.50556935  0.11619383  1
  O  O303  1  0.49035263  0.51580155  0.59707019  1
  O  O304  1  0.25238678  0.38299730  0.22540800  1
  O  O305  1  0.27866638  0.40071745  0.78494371  1
  O  O306  1  0.24683044  0.88142789  0.23351240  1
  O  O307  1  0.23287306  0.87519941  0.74611250  1
  O  O308  1  0.73690231  0.38471351  0.24376070  1
  O  O309  1  0.72377558  0.37040709  0.73868062  1
  O  O310  1  0.73432049  0.87433719  0.23849370  1
  O  O311  1  0.72975750  0.85249641  0.72920368  1
  O  O312  1  0.25872761  0.10785294  0.23598309  1
  O  O313  1  0.27643777  0.21661738  0.69362637  1
  O  O314  1  0.26355256  0.60599988  0.22794258  1
  O  O315  1  0.27228637  0.60628957  0.76067366  1
  O  O316  1  0.76141300  0.11215526  0.23015505  1
  O  O317  1  0.70838231  0.15296892  0.73287293  1
  O  O318  1  0.74713431  0.60935897  0.24752909  1
  O  O319  1  0.75324834  0.66349446  0.68412005  1
  O  O320  1  0.37013815  0.12035798  0.34808889  1
  O  O321  1  0.37048415  0.08988358  0.89119477  1
  O  O322  1  0.36939493  0.62536544  0.34962897  1
  O  O323  1  0.36449012  0.63124402  0.87065345  1
  O  O324  1  0.86868943  0.12890654  0.37367162  1
  O  O325  1  0.86503685  0.09555235  0.90898943  1
  O  O326  1  0.92695012  0.68977183  0.36304197  1
  O  O327  1  0.81588436  0.65948216  0.93187463  1
  O  O328  1  0.13188893  0.37252107  0.10642066  1
  O  O329  1  0.13956763  0.36653147  0.62362795  1
  O  O330  1  0.12245286  0.88037657  0.12386243  1
  O  O331  1  0.11248970  0.88422384  0.64477623  1
  O  O332  1  0.62996070  0.38044142  0.13643636  1
  O  O333  1  0.60807524  0.41060471  0.61985576  1
  O  O334  1  0.61948615  0.88365201  0.13652058  1
  O  O335  1  0.63443575  0.87217355  0.62858604  1
  O  O336  1  0.11594593  0.25223857  0.23637163  1
  O  O337  1  0.09883454  0.23435090  0.79023490  1
  O  O338  1  0.14117924  0.76641667  0.24663942  1
  O  O339  1  0.13897027  0.75746336  0.76837546  1
  O  O340  1  0.61474598  0.26131297  0.25258856  1
  O  O341  1  0.62006193  0.28026156  0.80469365  1
  O  O342  1  0.62571037  0.75552820  0.22859858  1
  O  O343  1  0.60001961  0.76454726  0.75676783  1
  O  O344  1  0.38160996  0.23995300  0.23608167  1
  O  O345  1  0.42772964  0.24644087  0.77166213  1
  O  O346  1  0.38030405  0.73915263  0.23870707  1
  O  O347  1  0.39429646  0.75293891  0.76347466  1
  O  O348  1  0.88233550  0.25201108  0.23901046  1
  O  O349  1  0.83892460  0.25495303  0.71396804  1
  O  O350  1  0.92676508  0.74744092  0.31341777  1
  O  O351  1  0.86964759  0.69949678  0.78122505  1
  O  O352  1  0.35626437  0.49025339  0.49466407  1
  O  O353  1  0.39425277  0.49426741  1.00156375  1
  O  O354  1  0.44721738  1.12243710  0.56119391  1
  O  O355  1  0.40248744  1.00095208  1.01956626  1
  O  O356  1  0.88869003  0.48218957  0.49883930  1
  O  O357  1  0.85819352  0.52461761  1.01277030  1
  O  O358  1  0.91539644  1.00133903  0.52250099  1
  O  O359  1  0.83169801  1.03260617  0.95428531  1
  O  O360  1  0.12937035  0.00695478  0.01003822  1
  O  O361  1  0.09473996  -0.01307272  0.52519381  1
  O  O362  1  0.03909498  0.46439475  -0.05305702  1
  O  O363  1  0.13898097  0.48728527  0.49126332  1
  O  O364  1  0.62419102  0.00541314  0.01728572  1
  O  O365  1  0.62615148  -0.03011954  0.50184403  1
  O  O366  1  0.62447218  0.50194888  0.02290147  1
  O  O367  1  0.61309205  0.50996113  0.49814128  1
  O  O368  1  0.38326264  0.35665495  0.11878760  1
  O  O369  1  0.39768419  0.36654097  0.64809053  1
  O  O370  1  0.35965976  0.86958508  0.12346797  1
  O  O371  1  0.35473022  0.88222891  0.63914857  1
  O  O372  1  0.86654712  0.36636380  0.12918627  1
  O  O373  1  0.86201469  0.36726600  0.60800363  1
  O  O374  1  0.86876934  0.90009009  0.11974992  1
  O  O375  1  0.85083826  0.85566237  0.63845890  1
  O  O376  1  0.14788262  0.10950895  0.36849207  1
  O  O377  1  0.11768670  0.13276068  0.90523670  1
  O  O378  1  0.22530248  0.63193219  0.48078354  1
  O  O379  1  0.14841029  0.63186368  0.86448169  1
  O  O380  1  0.61880600  0.14143673  0.36953471  1
  O  O381  1  0.64711669  0.10635256  0.90004124  1
  O  O382  1  0.63016722  0.62769060  0.36943774  1
  O  O383  1  0.66545827  0.61124200  0.89137022  1
