# generated using pymatgen
data_VZnO4
_symmetry_space_group_name_H-M   'P 1'
_cell_length_a   16.83943192
_cell_length_b   16.85797243
_cell_length_c   16.82236696
_cell_angle_alpha   89.94446384
_cell_angle_beta   90.02050772
_cell_angle_gamma   89.90308730
_symmetry_Int_Tables_number   1
_chemical_formula_structural   VZnO4
_chemical_formula_sum   'V64 Zn64 O256'
_cell_volume   4775.50192600
_cell_formula_units_Z   64
loop_
 _symmetry_equiv_pos_site_id
 _symmetry_equiv_pos_as_xyz
  1  'x, y, z'
loop_
 _atom_site_type_symbol
 _atom_site_label
 _atom_site_symmetry_multiplicity
 _atom_site_fract_x
 _atom_site_fract_y
 _atom_site_fract_z
 _atom_site_occupancy
  V  V0  1  -0.03340157  0.12356983  0.65979602  1
  V  V1  1  0.00510378  0.08630509  0.08106223  1
  V  V2  1  0.87208099  0.36768597  0.47335251  1
  V  V3  1  -0.01890887  -0.00824321  0.49985618  1
  V  V4  1  0.36548022  0.27448462  0.13594383  1
  V  V5  1  0.38238583  0.24739112  0.61243256  1
  V  V6  1  0.85978919  0.49338462  0.87142394  1
  V  V7  1  -0.01184584  0.51591906  0.01455128  1
  V  V8  1  0.24475939  0.74550872  0.48115634  1
  V  V9  1  0.75420100  0.63110413  0.84719356  1
  V  V10  1  0.02467559  0.48146711  0.49624175  1
  V  V11  1  0.24336175  0.26405773  -0.01046494  1
  V  V12  1  0.12649011  0.35744126  0.24536079  1
  V  V13  1  0.01634814  0.61077750  0.61903446  1
  V  V14  1  0.73914270  0.75397318  -0.01123760  1
  V  V15  1  0.74931053  0.10814055  0.36719004  1
  V  V16  1  0.61722112  0.27534858  0.89297427  1
  V  V17  1  0.37799426  0.73796199  0.62402513  1
  V  V18  1  0.74285922  0.12752597  0.86429759  1
  V  V19  1  0.00829812  0.87920770  0.86109285  1
  V  V20  1  0.63519612  0.37293119  0.24641849  1
  V  V21  1  0.22945410  0.49874555  0.73893916  1
  V  V22  1  0.35542578  0.87504936  -0.00630060  1
  V  V23  1  0.49609235  0.88739597  0.87659157  1
  V  V24  1  0.75470590  0.88153683  0.61882932  1
  V  V25  1  0.25113660  0.87329394  0.64440805  1
  V  V26  1  0.61946840  0.13406686  0.49858782  1
  V  V27  1  0.87132436  0.88805210  -0.02695744  1
  V  V28  1  -0.00303861  0.73404152  0.74035450  1
  V  V29  1  0.87828239  0.74004741  0.11569943  1
  V  V30  1  0.75511410  0.24877549  0.50161748  1
  V  V31  1  0.39458843  0.38672282  -0.00270902  1
  V  V32  1  0.90233578  0.11634968  0.24788660  1
  V  V33  1  0.12933354  0.24159088  0.41766560  1
  V  V34  1  0.61854515  0.75307997  0.85543568  1
  V  V35  1  0.61308921  0.51464436  0.13416188  1
  V  V36  1  0.24573222  0.61194357  0.88659929  1
  V  V37  1  0.34837063  0.74267769  0.11827545  1
  V  V38  1  0.47820350  0.11624842  0.11666212  1
  V  V39  1  0.37864773  0.40045524  0.48893991  1
  V  V40  1  0.40863393  0.50762927  0.87050440  1
  V  V41  1  0.87080623  0.50702761  0.36999145  1
  V  V42  1  0.50191126  0.27543165  0.75396209  1
  V  V43  1  0.49887198  0.73993618  0.25047170  1
  V  V44  1  0.37616811  0.87948225  0.49262367  1
  V  V45  1  0.61679296  -0.00595024  0.13226114  1
  V  V46  1  0.25160682  0.11598392  0.40165347  1
  V  V47  1  0.50541014  -0.00114847  0.50168867  1
  V  V48  1  0.36070571  0.08612965  0.24871590  1
  V  V49  1  0.50913537  0.87816537  0.36369348  1
  V  V50  1  0.00108590  0.37289342  0.90091750  1
  V  V51  1  0.62115097  -0.00283399  0.63844406  1
  V  V52  1  0.13508954  0.02095216  0.63758022  1
  V  V53  1  0.50122677  0.34528425  0.36450885  1
  V  V54  1  0.38824340  0.12073751  0.76285287  1
  V  V55  1  0.65972437  0.74999073  0.37905843  1
  V  V56  1  0.13937160  0.51352104  0.13030036  1
  V  V57  1  0.12548049  0.73464348  0.87922812  1
  V  V58  1  0.75100191  0.89061945  0.12825609  1
  V  V59  1  0.62434115  0.61978182  0.50737584  1
  V  V60  1  0.49733176  0.74127289  0.73863155  1
  V  V61  1  0.62988133  0.12613741  0.00701302  1
  V  V62  1  0.23883175  0.12209216  0.87043511  1
  V  V63  1  0.01118378  0.76790921  0.29623470  1
  Zn  Zn64  1  0.18523873  0.17123147  0.16775776  1
  Zn  Zn65  1  0.21828197  0.19823666  0.68122762  1
  Zn  Zn66  1  0.16022634  0.69879179  0.19434070  1
  Zn  Zn67  1  0.18736637  0.68149848  0.69443703  1
  Zn  Zn68  1  0.66121048  0.18114267  0.20349930  1
  Zn  Zn69  1  0.70305711  0.23142318  0.70963046  1
  Zn  Zn70  1  0.65315083  0.72646047  0.16588806  1
  Zn  Zn71  1  0.72014026  0.68586252  0.64537272  1
  Zn  Zn72  1  0.29842704  0.31247389  0.32513928  1
  Zn  Zn73  1  0.31920678  0.31931960  0.81937896  1
  Zn  Zn74  1  0.31824674  0.81745131  0.30253395  1
  Zn  Zn75  1  0.31899414  0.79351705  0.81865316  1
  Zn  Zn76  1  0.80843145  0.28521022  0.30889525  1
  Zn  Zn77  1  0.83660891  0.27992455  0.86470033  1
  Zn  Zn78  1  0.83102846  0.81690396  0.29259557  1
  Zn  Zn79  1  0.81186677  0.80657840  0.78364167  1
  Zn  Zn80  1  0.19500286  0.42510652  0.40470907  1
  Zn  Zn81  1  0.17926788  0.44039584  0.94608052  1
  Zn  Zn82  1  0.19858090  0.95790786  0.47364618  1
  Zn  Zn83  1  0.19613287  0.93133687  0.82538998  1
  Zn  Zn84  1  0.68568139  0.43742992  0.42490761  1
  Zn  Zn85  1  0.66286594  0.47311697  0.94250116  1
  Zn  Zn86  1  0.69272361  0.92905385  0.44049845  1
  Zn  Zn87  1  0.67307972  0.94236353  0.93593427  1
  Zn  Zn88  1  0.29904025  0.05570993  0.03605605  1
  Zn  Zn89  1  0.32772056  0.05832419  0.58316357  1
  Zn  Zn90  1  0.31982625  0.56407171  0.06573525  1
  Zn  Zn91  1  0.30520412  0.56217577  0.55537815  1
  Zn  Zn92  1  0.82039197  0.06805649  0.06378183  1
  Zn  Zn93  1  0.80798123  0.05717493  0.56353701  1
  Zn  Zn94  1  0.79094958  0.56285691  0.04470486  1
  Zn  Zn95  1  0.83585269  0.59924314  0.51801434  1
  Zn  Zn96  1  0.44184118  0.45357495  0.19329119  1
  Zn  Zn97  1  0.38172589  0.42151095  0.69382212  1
  Zn  Zn98  1  0.43366881  0.92624723  0.17199333  1
  Zn  Zn99  1  0.43802253  0.92982823  0.69130508  1
  Zn  Zn100  1  0.95257222  0.42171919  0.19640301  1
  Zn  Zn101  1  0.92399181  0.46021859  0.67727069  1
  Zn  Zn102  1  0.93489373  0.93323976  0.18554265  1
  Zn  Zn103  1  0.96254011  0.91674818  0.66400189  1
  Zn  Zn104  1  0.07521138  0.05233599  0.33217218  1
  Zn  Zn105  1  0.06928215  0.06294412  0.79994699  1
  Zn  Zn106  1  0.01820120  0.55606610  0.26749722  1
  Zn  Zn107  1  0.05827629  0.55220918  0.81445348  1
  Zn  Zn108  1  0.55350245  0.06569735  0.31126853  1
  Zn  Zn109  1  0.56017441  0.07392885  0.81915422  1
  Zn  Zn110  1  0.61721546  0.59394738  0.28940475  1
  Zn  Zn111  1  0.57271117  0.56639184  0.79272997  1
  Zn  Zn112  1  0.43268649  0.17689711  0.42235857  1
  Zn  Zn113  1  0.43470658  0.19758276  0.93935740  1
  Zn  Zn114  1  0.44251354  0.68687690  0.43718550  1
  Zn  Zn115  1  0.43282798  0.67951641  0.94398338  1
  Zn  Zn116  1  0.93316849  0.15782816  0.44272576  1
  Zn  Zn117  1  0.96032656  0.15728732  0.88457965  1
  Zn  Zn118  1  0.98486678  0.65905776  0.41833838  1
  Zn  Zn119  1  0.93072116  0.69160908  0.93492245  1
  Zn  Zn120  1  0.07252467  0.32614215  0.06864605  1
  Zn  Zn121  1  0.03085013  0.27523399  0.54094165  1
  Zn  Zn122  1  0.05438122  0.81681436  0.04980688  1
  Zn  Zn123  1  0.06957546  0.81068912  0.56098526  1
  Zn  Zn124  1  0.56026689  0.30698325  0.09100588  1
  Zn  Zn125  1  0.54783434  0.32256051  0.56096574  1
  Zn  Zn126  1  0.53052927  0.77391065  0.03867755  1
  Zn  Zn127  1  0.57168142  0.81349029  0.56026727  1
  O  O128  1  0.09024508  0.12907477  0.11842199  1
  O  O129  1  0.14804202  0.12026719  0.63692907  1
  O  O130  1  0.11588501  0.61345593  0.13376509  1
  O  O131  1  0.11864419  0.62851855  0.61919401  1
  O  O132  1  0.60371403  0.12169612  0.12071984  1
  O  O133  1  0.62100303  0.10504022  0.60063085  1
  O  O134  1  0.64459933  0.61195587  0.16886875  1
  O  O135  1  0.61732272  0.63714186  0.60985505  1
  O  O136  1  0.39160988  0.36590991  0.37902521  1
  O  O137  1  0.38879066  0.39607119  0.88718347  1
  O  O138  1  0.38171403  0.87758477  0.38839636  1
  O  O139  1  0.38538932  0.86026907  0.88400706  1
  O  O140  1  0.87942484  0.36642880  0.37301194  1
  O  O141  1  0.85487961  0.39262006  0.88837546  1
  O  O142  1  0.88113551  0.82037336  0.46269365  1
  O  O143  1  0.87913420  0.86907086  0.86849105  1
  O  O144  1  0.24077929  0.01272734  0.38538800  1
  O  O145  1  0.24474938  0.02028849  0.87829954  1
  O  O146  1  0.23277783  0.54324752  0.37625807  1
  O  O147  1  0.24021935  0.50541314  0.86886230  1
  O  O148  1  0.74705792  0.00758472  0.38166403  1
  O  O149  1  0.73466214  0.02930622  0.88840099  1
  O  O150  1  0.77262174  0.48887163  0.35930373  1
  O  O151  1  0.74771611  0.51988337  0.87498467  1
  O  O152  1  0.23986017  0.51063548  0.12848211  1
  O  O153  1  0.25504035  0.50670244  0.63930644  1
  O  O154  1  0.21416709  0.99236389  0.10175019  1
  O  O155  1  0.24595856  0.98419347  0.62174452  1
  O  O156  1  0.79221617  0.52509853  0.17563632  1
  O  O157  1  0.76035679  0.49740243  0.62008634  1
  O  O158  1  0.73967910  0.99638921  0.11524342  1
  O  O159  1  0.73005405  0.99416303  0.62318145  1
  O  O160  1  0.02364985  0.36105038  0.25936728  1
  O  O161  1  -0.07395311  0.34405414  0.71063751  1
  O  O162  1  -0.05716680  0.84870516  0.27054248  1
  O  O163  1  -0.00316100  0.85365948  0.75422162  1
  O  O164  1  0.49963259  0.38612031  0.26595631  1
  O  O165  1  0.48602588  0.37335275  0.75009986  1
  O  O166  1  0.49924275  0.88006899  0.26233486  1
  O  O167  1  0.48766056  0.85907611  0.76729280  1
  O  O168  1  0.47195690  0.11213829  0.23787663  1
  O  O169  1  0.49225607  0.14445485  0.75940395  1
  O  O170  1  0.50724608  0.64152297  0.26378810  1
  O  O171  1  0.50569158  0.64152788  0.73760703  1
  O  O172  1  1.00076913  0.11494112  0.26922306  1
  O  O173  1  0.97965854  0.12979638  0.76776575  1
  O  O174  1  0.99149562  0.66321476  0.29164319  1
  O  O175  1  1.00624937  0.61986187  0.73289521  1
  O  O176  1  0.37096889  0.27429500  0.00220867  1
  O  O177  1  0.39293469  0.23775522  0.51170552  1
  O  O178  1  0.36502195  0.75155833  0.00974108  1
  O  O179  1  0.37566079  0.76181118  0.50690146  1
  O  O180  1  0.90902146  0.29234498  0.09679708  1
  O  O181  1  0.86398903  0.25490960  0.50084013  1
  O  O182  1  0.85930587  0.76646629  -0.00476261  1
  O  O183  1  0.88219560  0.76389443  0.50838737  1
  O  O184  1  0.14587556  0.26120694  0.51578411  1
  O  O185  1  0.14364325  0.26170055  1.00698270  1
  O  O186  1  0.14580329  0.76138259  0.49476516  1
  O  O187  1  0.11646584  0.74897630  0.97920739  1
  O  O188  1  0.61789263  0.23656256  0.50212250  1
  O  O189  1  0.60599976  0.24172698  1.00122007  1
  O  O190  1  0.62326876  0.74815732  0.48073527  1
  O  O191  1  0.63552109  0.76196383  0.97635105  1
  O  O192  1  0.46619268  0.23059562  0.12472926  1
  O  O193  1  0.49786099  0.25675367  0.64316419  1
  O  O194  1  0.53644773  0.76034375  0.15305177  1
  O  O195  1  0.49021328  0.76395747  0.63060173  1
  O  O196  1  0.98026371  0.26798625  0.12179111  1
  O  O197  1  0.99998217  0.21497389  0.63081266  1
  O  O198  1  0.97931727  0.76191693  0.11882264  1
  O  O199  1  1.01187395  0.73968758  0.63523180  1
  O  O200  1  0.02260055  0.22485887  0.42729128  1
  O  O201  1  -0.03702308  0.27807502  0.87675313  1
  O  O202  1  0.01696244  0.77209631  0.39865638  1
  O  O203  1  0.00852994  0.74395641  0.86312004  1
  O  O204  1  0.50206861  0.24491436  0.36006300  1
  O  O205  1  0.50878890  0.25946550  0.87137598  1
  O  O206  1  0.48909783  0.76663624  0.36260691  1
  O  O207  1  0.50944420  0.74225753  0.86144987  1
  O  O208  1  0.26781409  0.11757928  0.50049255  1
  O  O209  1  0.25675377  0.14366685  0.97949557  1
  O  O210  1  0.25828877  0.64625601  0.49587551  1
  O  O211  1  0.24477905  0.61326661  0.98630855  1
  O  O212  1  0.73819602  0.12807146  0.49382742  1
  O  O213  1  0.73086477  0.13426390  1.01666876  1
  O  O214  1  0.74175658  0.65545134  0.53479339  1
  O  O215  1  0.74754443  0.65242073  0.97960444  1
  O  O216  1  0.26050515  0.37001825  -0.00680761  1
  O  O217  1  0.27909614  0.38564116  0.47812740  1
  O  O218  1  0.25931678  0.86815165  -0.02219319  1
  O  O219  1  0.26536121  0.86825499  0.50731416  1
  O  O220  1  0.74122980  0.29498332  0.08107129  1
  O  O221  1  0.75775806  0.35850016  0.48503576  1
  O  O222  1  0.75600540  0.87228367  -0.01746764  1
  O  O223  1  0.74651571  0.86460037  0.51976228  1
  O  O224  1  0.10681368  0.49655236  0.23511098  1
  O  O225  1  0.12903613  0.48748230  0.74763289  1
  O  O226  1  0.13133714  0.97312228  0.25333984  1
  O  O227  1  0.14092215  0.99289773  0.74078762  1
  O  O228  1  0.62828680  0.48751049  0.24470343  1
  O  O229  1  0.62683953  0.47920904  0.73093288  1
  O  O230  1  0.61956869  1.00724288  0.23205588  1
  O  O231  1  0.61136565  1.01061502  0.73646396  1
  O  O232  1  0.36497841  -0.01348878  0.24808764  1
  O  O233  1  0.38799449  0.02134515  0.74213353  1
  O  O234  1  0.37137860  0.52393906  0.26629560  1
  O  O235  1  0.39518409  0.50851651  0.77005474  1
  O  O236  1  0.87192845  0.01823597  0.23606185  1
  O  O237  1  0.83236823  -0.00806381  0.76990854  1
  O  O238  1  0.91183686  0.50268650  0.27257278  1
  O  O239  1  0.87735729  0.49977547  0.77165594  1
  O  O240  1  0.11943925  0.33494054  0.37374796  1
  O  O241  1  0.09931157  0.37369712  0.88316699  1
  O  O242  1  0.17679917  0.91827646  0.28929511  1
  O  O243  1  0.11399360  0.85934922  0.86929911  1
  O  O244  1  0.61396580  0.37218420  0.35851293  1
  O  O245  1  0.62575899  0.37464088  0.90565342  1
  O  O246  1  0.61246321  0.86647579  0.38098095  1
  O  O247  1  0.61094888  0.86542969  0.86996055  1
  O  O248  1  0.37448445  0.09981142  0.12622342  1
  O  O249  1  0.37656854  0.14221905  0.64248268  1
  O  O250  1  0.37794354  0.64457450  0.12223948  1
  O  O251  1  0.38056975  0.64072011  0.61030986  1
  O  O252  1  0.90875619  0.11821466  0.12331935  1
  O  O253  1  0.86734999  0.11582921  0.64479090  1
  O  O254  1  0.86602151  0.64345249  0.09051834  1
  O  O255  1  0.91357061  0.62561022  0.59764391  1
  O  O256  1  0.26921682  0.23794412  0.10394105  1
  O  O257  1  0.28462280  0.27273916  0.63009098  1
  O  O258  1  0.24988757  0.74395669  0.13832175  1
  O  O259  1  0.26569302  0.75652053  0.62541959  1
  O  O260  1  0.75933152  0.24093720  0.12727816  1
  O  O261  1  0.73439964  0.24718588  0.60128989  1
  O  O262  1  0.73848712  0.77062377  0.09972821  1
  O  O263  1  0.75012197  0.79362321  0.68015960  1
  O  O264  1  0.24157798  0.22862474  0.38239933  1
  O  O265  1  0.25301662  0.25224572  0.88309077  1
  O  O266  1  0.26065464  0.75863815  0.38134859  1
  O  O267  1  0.23726140  0.72697886  0.86490479  1
  O  O268  1  0.74648187  0.22870160  0.39103921  1
  O  O269  1  0.72136653  0.24767311  0.88240561  1
  O  O270  1  0.75541815  0.78237700  0.37121912  1
  O  O271  1  0.74050987  0.75031832  0.86376822  1
  O  O272  1  -0.00274097  0.10385226  -0.01994948  1
  O  O273  1  -0.01704350  0.09568778  0.53056382  1
  O  O274  1  -0.00153219  0.61255977  -0.00938124  1
  O  O275  1  0.02938595  0.59314634  0.50098373  1
  O  O276  1  0.49348317  0.12471454  0.01371408  1
  O  O277  1  0.50527837  0.10639987  0.48789340  1
  O  O278  1  0.51804095  0.66282240  0.01397906  1
  O  O279  1  0.52484215  0.62280668  0.47828354  1
  O  O280  1  0.50129918  0.37698576  0.47052679  1
  O  O281  1  0.49193947  0.37484865  1.01525900  1
  O  O282  1  0.49203845  0.87869822  0.49232861  1
  O  O283  1  0.49545870  0.86553401  0.98158073  1
  O  O284  1  0.97273704  0.37413599  0.51859425  1
  O  O285  1  0.99283716  0.38479909  1.00306274  1
  O  O286  1  0.99513733  0.89621950  0.55171955  1
  O  O287  1  0.98277874  0.86985931  0.97291692  1
  O  O288  1  0.40895034  0.55433440  0.32943402  1
  O  O289  1  0.50877835  0.51985727  0.88084294  1
  O  O290  1  0.50239788  0.98601469  0.38586588  1
  O  O291  1  0.50282691  0.98662811  0.87242827  1
  O  O292  1  0.99176600  0.48675733  0.39826376  1
  O  O293  1  0.98442543  0.48561351  0.88293980  1
  O  O294  1  1.01400975  0.98595212  0.40391930  1
  O  O295  1  1.00880044  0.97810493  0.85418661  1
  O  O296  1  0.00493245  -0.01348977  0.10926011  1
  O  O297  1  0.01818012  0.02284396  0.65679082  1
  O  O298  1  -0.02065197  0.50564630  0.11633650  1
  O  O299  1  0.00751319  0.49821213  0.61364518  1
  O  O300  1  0.50695373  0.00385859  0.12232425  1
  O  O301  1  0.50755538  -0.01174579  0.61081227  1
  O  O302  1  0.51306380  0.51788541  0.12413241  1
  O  O303  1  0.58971068  0.45701716  0.66287320  1
  O  O304  1  0.22227501  0.39470393  0.29185603  1
  O  O305  1  0.27787364  0.40161622  0.75107570  1
  O  O306  1  0.23395270  0.88958255  0.24369844  1
  O  O307  1  0.26468416  0.87252033  0.74810781  1
  O  O308  1  0.73456960  0.35871615  0.25545105  1
  O  O309  1  0.80701324  0.28990703  0.74640566  1
  O  O310  1  0.75538695  0.88054382  0.22662235  1
  O  O311  1  0.77668144  0.94455912  0.77193619  1
  O  O312  1  0.26218673  0.11173105  0.23168709  1
  O  O313  1  0.27140107  0.14076951  0.76475174  1
  O  O314  1  0.22622817  0.63151923  0.27866025  1
  O  O315  1  0.24759355  0.60504982  0.76115576  1
  O  O316  1  0.73101051  0.12350231  0.26731295  1
  O  O317  1  0.72850815  0.13159005  0.76462207  1
  O  O318  1  0.78776362  0.58223912  0.22141609  1
  O  O319  1  0.75355780  0.63154376  0.74747692  1
  O  O320  1  0.35834885  0.11885806  0.35604536  1
  O  O321  1  0.37495624  0.12849074  0.86807500  1
  O  O322  1  0.37254120  0.61695230  0.36035906  1
  O  O323  1  0.36356909  0.60984448  0.88420583  1
  O  O324  1  0.86122801  0.11846828  0.36276908  1
  O  O325  1  0.84253853  0.15847024  0.88382865  1
  O  O326  1  0.87742389  0.60671434  0.40413797  1
  O  O327  1  0.85759404  0.62213878  0.87298612  1
  O  O328  1  0.13383796  0.38880653  0.14031339  1
  O  O329  1  0.10782787  0.33757854  0.68476602  1
  O  O330  1  0.13959835  0.88438194  0.10510449  1
  O  O331  1  0.15173435  0.86382533  0.63251301  1
  O  O332  1  0.62024795  0.40069187  0.13502119  1
  O  O333  1  0.62218499  0.39199616  0.63142788  1
  O  O334  1  0.63580671  0.89195838  0.11494440  1
  O  O335  1  0.63058944  0.88853026  0.62773360  1
  O  O336  1  0.14495485  0.25938627  0.23045456  1
  O  O337  1  0.13066491  0.28555454  0.73171785  1
  O  O338  1  0.10186896  0.77945791  0.25220085  1
  O  O339  1  0.11342163  0.74018707  0.76307616  1
  O  O340  1  0.60400310  0.27645490  0.20992231  1
  O  O341  1  0.61220241  0.26816957  0.77101518  1
  O  O342  1  0.61994406  0.75165560  0.27778563  1
  O  O343  1  0.61091573  0.75795286  0.75207448  1
  O  O344  1  0.35423221  0.26279962  0.23475530  1
  O  O345  1  0.39032822  0.25184912  0.75133729  1
  O  O346  1  0.39148784  0.76032565  0.22986686  1
  O  O347  1  0.38437852  0.74323027  0.73548765  1
  O  O348  1  0.86524636  0.21553393  0.24127198  1
  O  O349  1  0.86208952  0.30371352  0.68656316  1
  O  O350  1  0.84583797  0.73483978  0.21233153  1
  O  O351  1  0.89651633  0.73564421  0.75169235  1
  O  O352  1  0.38327919  0.50057185  0.49369253  1
  O  O353  1  0.37926657  0.49322059  0.99594665  1
  O  O354  1  0.38780105  0.98642984  0.51050872  1
  O  O355  1  0.37159623  0.97574017  1.00632682  1
  O  O356  1  0.86484658  0.47444713  0.48769375  1
  O  O357  1  0.87867596  0.50825254  0.98830018  1
  O  O358  1  0.87788326  0.99151953  0.49669312  1
  O  O359  1  0.86550967  0.98698561  0.98850241  1
  O  O360  1  0.16181763  -0.05224967  0.06384598  1
  O  O361  1  0.11254043  -0.00564022  0.53582324  1
  O  O362  1  0.10530557  0.49328482  0.02265291  1
  O  O363  1  0.12006006  0.45698629  0.49014967  1
  O  O364  1  0.61963592  0.01977216  0.01059821  1
  O  O365  1  0.61136088  -0.00620990  0.50253667  1
  O  O366  1  0.67843524  0.51678264  0.04478664  1
  O  O367  1  0.64941293  0.52054656  0.49220208  1
  O  O368  1  0.37597357  0.37930070  0.12193336  1
  O  O369  1  0.40014073  0.37044162  0.59426547  1
  O  O370  1  0.37625843  0.85430153  0.10766734  1
  O  O371  1  0.36763871  0.86834946  0.61757579  1
  O  O372  1  0.87892118  0.35670503  0.13133776  1
  O  O373  1  0.79568147  0.43698685  0.64464008  1
  O  O374  1  0.85806484  0.87294387  0.10356990  1
  O  O375  1  0.85181718  0.90345263  0.64060520  1
  O  O376  1  0.14090159  0.12953613  0.38691504  1
  O  O377  1  0.13912442  0.13642877  0.85631890  1
  O  O378  1  0.18886879  0.59451034  0.33692840  1
  O  O379  1  0.12911144  0.62455907  0.87599934  1
  O  O380  1  0.62860788  0.11361431  0.38965989  1
  O  O381  1  0.62332073  0.13668838  0.89555264  1
  O  O382  1  0.66292020  0.64284710  0.38229414  1
  O  O383  1  0.63897857  0.64000732  0.85921866  1
