# generated using pymatgen
data_VZnO4
_symmetry_space_group_name_H-M   'P 1'
_cell_length_a   16.90164119
_cell_length_b   16.98273355
_cell_length_c   16.92305186
_cell_angle_alpha   90.81581259
_cell_angle_beta   89.63219785
_cell_angle_gamma   90.08855010
_symmetry_Int_Tables_number   1
_chemical_formula_structural   VZnO4
_chemical_formula_sum   'V64 Zn64 O256'
_cell_volume   4856.92867292
_cell_formula_units_Z   64
loop_
 _symmetry_equiv_pos_site_id
 _symmetry_equiv_pos_as_xyz
  1  'x, y, z'
loop_
 _atom_site_type_symbol
 _atom_site_label
 _atom_site_symmetry_multiplicity
 _atom_site_fract_x
 _atom_site_fract_y
 _atom_site_fract_z
 _atom_site_occupancy
  V  V0  1  0.14533906  0.33606198  0.71694876  1
  V  V1  1  0.74754777  -0.01124243  0.23870418  1
  V  V2  1  0.47768808  0.62572701  0.63836814  1
  V  V3  1  0.35917130  0.02527455  0.86207672  1
  V  V4  1  0.87547143  0.14522841  0.22762890  1
  V  V5  1  0.87929411  0.00895634  0.37156953  1
  V  V6  1  0.64860962  0.88610279  0.74815302  1
  V  V7  1  0.87021447  0.62384223  0.22551356  1
  V  V8  1  0.49414845  0.34884721  0.88259527  1
  V  V9  1  0.60537254  0.38058932  0.25182731  1
  V  V10  1  0.48569797  0.77151696  0.74549274  1
  V  V11  1  0.00577758  0.35494440  0.82130498  1
  V  V12  1  0.50997724  0.49643873  0.50839374  1
  V  V13  1  0.63373626  0.75132466  0.37544808  1
  V  V14  1  0.61746165  0.13680900  -0.00166686  1
  V  V15  1  0.16806845  0.25563436  0.88969104  1
  V  V16  1  0.87447643  0.37179584  0.50576481  1
  V  V17  1  0.60882506  0.38723062  0.74525890  1
  V  V18  1  0.88389213  0.73261310  0.67251381  1
  V  V19  1  0.61444349  0.77559707  0.88746627  1
  V  V20  1  0.61225746  0.25987690  0.36957739  1
  V  V21  1  0.23095563  0.51995921  0.24879133  1
  V  V22  1  0.36611172  0.88099088  -0.01145844  1
  V  V23  1  0.23969200  0.88989871  0.12426217  1
  V  V24  1  0.24821517  0.73507565  -0.00185698  1
  V  V25  1  0.10185280  0.13260620  0.47378198  1
  V  V26  1  0.72963406  0.65403003  0.87194096  1
  V  V27  1  0.25483551  0.16196406  0.37394125  1
  V  V28  1  0.87569266  0.86424805  0.00513174  1
  V  V29  1  0.37728196  0.20691558  0.63034504  1
  V  V30  1  0.64098765  0.63274044  0.52108064  1
  V  V31  1  0.12187410  -0.00838187  0.57647735  1
  V  V32  1  0.75534452  0.24348284  0.01846316  1
  V  V33  1  0.38073354  0.36738277  0.03712578  1
  V  V34  1  0.87850276  0.00430738  0.87347040  1
  V  V35  1  0.60945367  -0.01511534  0.61121764  1
  V  V36  1  0.40259344  -0.03574927  0.36432611  1
  V  V37  1  0.28367846  0.36710921  0.60138146  1
  V  V38  1  0.88075419  0.50750313  0.38919367  1
  V  V39  1  -0.01796193  0.85420104  0.36197114  1
  V  V40  1  0.50035259  -0.00381282  -0.01711832  1
  V  V41  1  0.74197561  0.49866797  0.27739361  1
  V  V42  1  0.00816617  0.03719544  0.01578241  1
  V  V43  1  0.39846770  0.61739030  0.24964658  1
  V  V44  1  0.24064194  0.85808357  0.61880312  1
  V  V45  1  0.89941737  0.36418856  0.01439598  1
  V  V46  1  0.85960086  0.85785390  0.53262919  1
  V  V47  1  0.49421998  0.14032868  0.13521535  1
  V  V48  1  -0.01185942  0.35770867  0.35680284  1
  V  V49  1  0.36382529  0.51116358  0.39986521  1
  V  V50  1  0.23547660  -0.00905864  0.26481389  1
  V  V51  1  0.13365863  0.72366886  0.86420077  1
  V  V52  1  0.02623209  0.88306285  0.87030032  1
  V  V53  1  0.74185587  0.39568686  0.11414938  1
  V  V54  1  0.74793225  0.13412063  0.86832343  1
  V  V55  1  0.89524735  0.12660231  0.74676775  1
  V  V56  1  0.13107026  0.49209210  0.61186620  1
  V  V57  1  0.73806613  0.13323729  0.36410611  1
  V  V58  1  0.88239404  0.47476966  0.87505702  1
  V  V59  1  0.89436572  0.23820975  0.62115361  1
  V  V60  1  0.73617899  0.24502986  0.51009801  1
  V  V61  1  0.37720739  0.83940818  0.50247471  1
  V  V62  1  0.62071092  -0.00996715  0.12379043  1
  V  V63  1  0.25426472  0.49089928  0.76578855  1
  Zn  Zn64  1  0.15704389  0.33564989  0.28686116  1
  Zn  Zn65  1  0.17908087  0.19942609  0.60279565  1
  Zn  Zn66  1  0.28482480  0.70664739  0.18797051  1
  Zn  Zn67  1  0.19873736  0.67141310  0.68200858  1
  Zn  Zn68  1  0.67649215  0.18969488  0.18753396  1
  Zn  Zn69  1  0.66520407  0.18797137  0.69807211  1
  Zn  Zn70  1  0.71678612  0.69789279  0.19677157  1
  Zn  Zn71  1  0.68932615  0.69681155  0.70001157  1
  Zn  Zn72  1  0.28985152  0.34618925  0.38696000  1
  Zn  Zn73  1  0.33657241  0.30511378  0.79659122  1
  Zn  Zn74  1  0.45544521  0.79588162  0.30966029  1
  Zn  Zn75  1  0.29626689  0.83034404  0.80782915  1
  Zn  Zn76  1  0.80535635  0.31736924  0.30700003  1
  Zn  Zn77  1  0.82559987  0.30796127  0.81260757  1
  Zn  Zn78  1  0.81864716  0.80492285  0.31246071  1
  Zn  Zn79  1  0.81740578  0.81732677  0.81228135  1
  Zn  Zn80  1  0.14881501  0.48473500  0.40344685  1
  Zn  Zn81  1  0.20271898  0.41605477  0.96890998  1
  Zn  Zn82  1  0.17322471  0.89415547  0.43599043  1
  Zn  Zn83  1  0.19123178  0.96796330  0.94331421  1
  Zn  Zn84  1  0.68277516  0.43134337  0.45349245  1
  Zn  Zn85  1  0.69949319  0.40554735  0.90737226  1
  Zn  Zn86  1  0.69173346  0.93711107  0.42894945  1
  Zn  Zn87  1  0.69462039  0.94377172  0.93965647  1
  Zn  Zn88  1  0.32356812  0.05425354  0.07498168  1
  Zn  Zn89  1  0.29671050  0.04531047  0.53324028  1
  Zn  Zn90  1  0.30306570  0.54542638  0.07264094  1
  Zn  Zn91  1  0.30193990  0.56087328  0.57759658  1
  Zn  Zn92  1  0.81106472  0.05285468  0.05920798  1
  Zn  Zn93  1  0.83447596  0.03128037  0.58139485  1
  Zn  Zn94  1  0.83302790  0.56183098  0.03102721  1
  Zn  Zn95  1  0.81829165  0.56018439  0.59338930  1
  Zn  Zn96  1  0.38020829  0.40343951  0.24870896  1
  Zn  Zn97  1  0.44080002  0.44056728  0.69733101  1
  Zn  Zn98  1  0.43731987  0.93237237  0.17790760  1
  Zn  Zn99  1  0.41983934  0.94999942  0.67371792  1
  Zn  Zn100  1  0.93048409  0.44238266  0.18807251  1
  Zn  Zn101  1  0.93784131  0.44469871  0.67548654  1
  Zn  Zn102  1  0.94254990  0.93690785  0.18594986  1
  Zn  Zn103  1  0.96101190  0.91339996  0.67384989  1
  Zn  Zn104  1  0.05729904  0.07659766  0.29414828  1
  Zn  Zn105  1  0.06366034  0.08721356  0.83345207  1
  Zn  Zn106  1  0.04070333  0.58111032  0.31577653  1
  Zn  Zn107  1  0.10455770  0.51671267  0.83932280  1
  Zn  Zn108  1  0.56012635  0.06251415  0.30603120  1
  Zn  Zn109  1  0.55833801  0.07453517  0.79856643  1
  Zn  Zn110  1  0.56745604  0.57297681  0.33421849  1
  Zn  Zn111  1  0.56874137  0.57639144  0.80735779  1
  Zn  Zn112  1  0.43637932  0.20866621  0.45562713  1
  Zn  Zn113  1  0.41755091  0.19577057  0.95719801  1
  Zn  Zn114  1  0.45355514  0.67414553  0.44568080  1
  Zn  Zn115  1  0.40767077  0.71329349  0.88724076  1
  Zn  Zn116  1  0.92095346  0.18582750  0.42693983  1
  Zn  Zn117  1  0.93223730  0.19536983  0.93861232  1
  Zn  Zn118  1  0.80545062  0.68835211  0.45570167  1
  Zn  Zn119  1  0.93435150  0.69350340  0.88470445  1
  Zn  Zn120  1  0.07001495  0.24229316  0.04094696  1
  Zn  Zn121  1  0.09591724  0.34409730  0.50119267  1
  Zn  Zn122  1  0.07759062  0.83624205  0.03000322  1
  Zn  Zn123  1  0.03786616  0.81441856  0.53731866  1
  Zn  Zn124  1  0.56291286  0.32119473  0.06625094  1
  Zn  Zn125  1  0.54934596  0.30696573  0.56605553  1
  Zn  Zn126  1  0.58174467  0.79331327  0.17185240  1
  Zn  Zn127  1  0.56280532  0.80862793  0.56617528  1
  O  O128  1  0.18394211  0.16259558  0.08133650  1
  O  O129  1  0.12819949  0.10108780  0.58136954  1
  O  O130  1  0.04748650  0.64797946  0.08875652  1
  O  O131  1  0.04313321  0.64613872  0.69730126  1
  O  O132  1  0.61659320  0.12094881  0.11152745  1
  O  O133  1  0.66875681  0.08148673  0.62268132  1
  O  O134  1  0.62366502  0.58037358  0.04299611  1
  O  O135  1  0.62705124  0.63432588  0.62621150  1
  O  O136  1  0.38394842  0.40804249  0.36856482  1
  O  O137  1  0.39312344  0.36928614  0.87738920  1
  O  O138  1  0.38978936  0.86163383  0.38771137  1
  O  O139  1  0.35791872  0.90217122  0.88274663  1
  O  O140  1  0.87496418  0.38059744  0.37890898  1
  O  O141  1  0.87298960  0.35478221  0.91296036  1
  O  O142  1  0.87189697  0.90420904  0.35544178  1
  O  O143  1  0.88133873  0.90023583  0.87563527  1
  O  O144  1  0.23391534  -0.04776485  0.35645242  1
  O  O145  1  0.25869832  0.02847111  0.87845915  1
  O  O146  1  0.26313517  0.51801755  0.41009889  1
  O  O147  1  0.21432604  0.47312916  0.86490234  1
  O  O148  1  0.73958208  0.01652425  0.35489951  1
  O  O149  1  0.77070635  0.02348180  0.88840298  1
  O  O150  1  0.75682318  0.49125358  0.37821669  1
  O  O151  1  0.78087905  0.47535195  0.86985401  1
  O  O152  1  0.22378696  0.50404497  0.15080313  1
  O  O153  1  0.25897708  0.46988291  0.63229067  1
  O  O154  1  0.25438403  0.99666621  0.14067084  1
  O  O155  1  0.22708375  0.98269950  0.60077608  1
  O  O156  1  0.74362413  0.49192191  0.09851156  1
  O  O157  1  0.83533311  0.48989409  0.67215996  1
  O  O158  1  0.73462599  1.00425422  0.12969108  1
  O  O159  1  0.72432023  1.02138614  0.63113226  1
  O  O160  1  -0.00965153  0.37867025  0.25785360  1
  O  O161  1  0.03160538  0.35559876  0.71872252  1
  O  O162  1  0.00245249  0.88409657  0.26624990  1
  O  O163  1  0.00447977  0.89292122  0.77480326  1
  O  O164  1  0.50875026  0.38848977  0.24970392  1
  O  O165  1  0.50384253  0.36961935  0.76749061  1
  O  O166  1  0.49687850  0.84651452  0.21876907  1
  O  O167  1  0.48594809  0.86931595  0.73541784  1
  O  O168  1  0.50107961  0.12591442  0.23411125  1
  O  O169  1  0.56237899  0.15755891  0.72752676  1
  O  O170  1  0.49769387  0.60310704  0.24770943  1
  O  O171  1  0.49915773  0.63640232  0.74162058  1
  O  O172  1  0.97556879  0.13038599  0.23949985  1
  O  O173  1  0.99341134  0.13132535  0.75187598  1
  O  O174  1  0.96662567  0.63303126  0.25350945  1
  O  O175  1  1.01753371  0.60116228  0.74833646  1
  O  O176  1  0.35384753  0.27224040  0.01741741  1
  O  O177  1  0.45791066  0.23636480  0.56405900  1
  O  O178  1  0.35944459  0.77342069  -0.02358207  1
  O  O179  1  0.37496990  0.74002526  0.50183937  1
  O  O180  1  0.86042675  0.25226001  0.01748361  1
  O  O181  1  0.85817225  0.24405794  0.51088111  1
  O  O182  1  0.87971784  0.77065950  -0.03209356  1
  O  O183  1  0.85338662  0.75523344  0.53585940  1
  O  O184  1  0.12248736  0.23294000  0.50423162  1
  O  O185  1  0.15844903  0.30207376  0.98503070  1
  O  O186  1  0.05853483  0.69371694  0.52927554  1
  O  O187  1  0.14269915  0.74992330  0.98928993  1
  O  O188  1  0.63173313  0.26482487  0.48493494  1
  O  O189  1  0.63143490  0.23935018  1.00275476  1
  O  O190  1  0.63387599  0.73774303  0.50748657  1
  O  O191  1  0.60820518  0.78136346  0.98230074  1
  O  O192  1  0.50967109  0.23937384  0.12375585  1
  O  O193  1  0.56085181  0.11528767  0.51648483  1
  O  O194  1  0.48850972  0.69944039  0.07496576  1
  O  O195  1  0.49617997  0.74115379  0.64115319  1
  O  O196  1  1.07747728  0.25179458  0.16137440  1
  O  O197  1  0.98852226  0.23394434  0.61355253  1
  O  O198  1  0.99705557  0.67833235  0.04343922  1
  O  O199  1  0.96090453  0.79966799  0.63589588  1
  O  O200  1  -0.01999584  0.25892718  0.36002630  1
  O  O201  1  -0.01372761  0.26549280  0.86310371  1
  O  O202  1  -0.06311297  0.76641747  0.35458796  1
  O  O203  1  0.03244438  0.77148357  0.87840259  1
  O  O204  1  0.51442476  0.25239955  0.38296184  1
  O  O205  1  0.50108669  0.25090475  0.89093333  1
  O  O206  1  0.52162787  0.73803388  0.38207636  1
  O  O207  1  0.51126689  0.75957409  0.85835694  1
  O  O208  1  0.23461924  0.12230740  0.46760029  1
  O  O209  1  0.23193788  0.13731048  1.03004700  1
  O  O210  1  0.17580104  0.58732767  0.60033163  1
  O  O211  1  0.26493548  0.63801813  1.00687956  1
  O  O212  1  0.74184878  0.14192567  0.47312112  1
  O  O213  1  0.73982031  0.13550979  1.00580001  1
  O  O214  1  0.74659539  0.61383333  0.52504453  1
  O  O215  1  0.77744767  0.61776890  0.95314886  1
  O  O216  1  0.30723464  0.44196946  0.01302883  1
  O  O217  1  0.27635743  0.36758881  0.50146577  1
  O  O218  1  0.25620907  0.89331783  0.00252253  1
  O  O219  1  0.26843102  0.86392594  0.49590899  1
  O  O220  1  0.73749404  0.35958496  0.00898101  1
  O  O221  1  0.76115891  0.35425590  0.49418183  1
  O  O222  1  0.77861474  0.89685273  -0.00088182  1
  O  O223  1  0.77758707  0.88647661  0.48548004  1
  O  O224  1  0.13166999  0.51648709  0.29428228  1
  O  O225  1  0.14409937  0.46961522  0.72739573  1
  O  O226  1  0.13874917  1.01022810  0.24744935  1
  O  O227  1  0.15257200  1.04179093  0.75189058  1
  O  O228  1  0.63472080  0.49017012  0.27201410  1
  O  O229  1  0.61882028  0.48774176  0.75834399  1
  O  O230  1  0.63188512  1.00457848  0.23179317  1
  O  O231  1  0.61491509  0.98347370  0.74487554  1
  O  O232  1  0.36864183  -0.01964095  0.26603893  1
  O  O233  1  0.37755788  0.00791029  0.76336844  1
  O  O234  1  0.34899553  0.51739062  0.26903471  1
  O  O235  1  0.35457468  0.47693273  0.76398288  1
  O  O236  1  0.85532617  0.01400014  0.24468051  1
  O  O237  1  0.88159719  0.01997893  0.76636391  1
  O  O238  1  0.86480246  0.50948600  0.26948957  1
  O  O239  1  0.90759814  0.40367818  0.78627982  1
  O  O240  1  0.09523304  0.37199576  0.38018174  1
  O  O241  1  0.12316812  0.33296843  0.83022089  1
  O  O242  1  0.07583474  0.83797023  0.40980511  1
  O  O243  1  0.12559730  0.89607291  0.87815167  1
  O  O244  1  0.62954230  0.36868437  0.36423385  1
  O  O245  1  0.59053992  0.39598075  0.88766956  1
  O  O246  1  0.63109556  0.85147536  0.38527544  1
  O  O247  1  0.63136417  0.88111467  0.86350849  1
  O  O248  1  0.39555664  0.13014113  0.11068590  1
  O  O249  1  0.36031945  0.10999496  0.60974253  1
  O  O250  1  0.36388969  0.61265844  0.14860188  1
  O  O251  1  0.37788980  0.63001237  0.63104695  1
  O  O252  1  0.85983273  0.12799951  0.12946990  1
  O  O253  1  0.87210446  0.12528681  0.63860536  1
  O  O254  1  0.87571215  0.59612434  0.12937560  1
  O  O255  1  0.89496920  0.63991982  0.63796846  1
  O  O256  1  0.28867810  0.23324077  0.17814507  1
  O  O257  1  0.28244725  0.25046815  0.60522993  1
  O  O258  1  0.25616869  0.77077674  0.10104602  1
  O  O259  1  0.23504033  0.75732304  0.61626763  1
  O  O260  1  0.73820923  0.26203135  0.11860798  1
  O  O261  1  0.72869736  0.23584151  0.60967342  1
  O  O262  1  0.64810752  0.72370187  0.11662898  1
  O  O263  1  0.78452232  0.75730649  0.67489012  1
  O  O264  1  0.22127842  0.26008848  0.35113391  1
  O  O265  1  0.26393198  0.24786741  0.86578604  1
  O  O266  1  0.24310890  0.69567484  0.41236375  1
  O  O267  1  0.24165936  0.75061072  0.88348878  1
  O  O268  1  0.73826973  0.24528882  0.37106940  1
  O  O269  1  0.76001754  0.23616464  0.89641888  1
  O  O270  1  0.74625650  0.74434074  0.37947422  1
  O  O271  1  0.73298508  0.75928429  0.87270711  1
  O  O272  1  0.00647467  0.14587952  0.01112655  1
  O  O273  1  0.00217746  0.12817608  0.47972034  1
  O  O274  1  -0.03101286  0.62996848  -0.01728834  1
  O  O275  1  0.03203774  0.65243433  0.46824971  1
  O  O276  1  0.51183741  0.12284431  0.00145745  1
  O  O277  1  0.49885942  0.09732132  0.48173185  1
  O  O278  1  0.48170574  0.66490026  0.01102127  1
  O  O279  1  0.51478304  0.62171440  0.52864771  1
  O  O280  1  0.50452319  0.39785667  0.51318872  1
  O  O281  1  0.48355680  0.37293867  1.00092846  1
  O  O282  1  0.47566693  0.86432460  0.51906285  1
  O  O283  1  0.48271638  0.89601400  0.99043110  1
  O  O284  1  0.97630670  0.36050366  0.48395612  1
  O  O285  1  0.99332626  0.33577315  1.02910322  1
  O  O286  1  0.94999423  0.87595348  0.48185496  1
  O  O287  1  0.99229060  0.89211881  0.98175020  1
  O  O288  1  0.49774961  0.51144460  0.40539567  1
  O  O289  1  0.47026947  0.55224452  0.88918036  1
  O  O290  1  0.50175709  0.98580687  0.36155002  1
  O  O291  1  0.50569199  1.01275845  0.88311370  1
  O  O292  1  0.98152322  0.49207421  0.37904598  1
  O  O293  1  1.02142557  0.44368789  0.87549396  1
  O  O294  1  0.97843067  1.01536214  0.35998066  1
  O  O295  1  0.99656496  1.01012070  0.88508942  1
  O  O296  1  -0.00736991  0.01126430  0.11049990  1
  O  O297  1  0.03637593  -0.01368247  0.63225634  1
  O  O298  1  0.01400932  0.49666235  0.11519942  1
  O  O299  1  0.03159465  0.49670478  0.62862893  1
  O  O300  1  0.50865805  0.01116225  0.11256879  1
  O  O301  1  0.51104141  0.00209525  0.62527352  1
  O  O302  1  0.49664375  0.52543061  0.10509366  1
  O  O303  1  0.49089561  0.51684055  0.62678375  1
  O  O304  1  0.24717357  0.40862504  0.28043233  1
  O  O305  1  0.25188780  0.35854685  0.73193278  1
  O  O306  1  0.24959833  0.87631645  0.22420750  1
  O  O307  1  0.24072973  0.87555221  0.72010601  1
  O  O308  1  0.75089859  0.39711284  0.23356886  1
  O  O309  1  0.71620929  0.35159409  0.78270889  1
  O  O310  1  0.75272704  0.89132342  0.24742195  1
  O  O311  1  0.74740336  0.89026361  0.75610073  1
  O  O312  1  0.26308093  0.09601194  0.29294221  1
  O  O313  1  0.21066407  0.08486940  0.73881179  1
  O  O314  1  0.23856468  0.62401139  0.25402830  1
  O  O315  1  0.24526563  0.58992928  0.75226635  1
  O  O316  1  0.74764339  0.12608270  0.25126503  1
  O  O317  1  0.74921863  0.13680210  0.76843723  1
  O  O318  1  0.75060416  0.59462701  0.24231116  1
  O  O319  1  0.74759630  0.62448657  0.77776221  1
  O  O320  1  0.35190497  0.19106651  0.38899897  1
  O  O321  1  0.38583599  0.12151793  0.87922857  1
  O  O322  1  0.38855298  0.61224914  0.36915535  1
  O  O323  1  0.40519774  0.59198155  0.89308435  1
  O  O324  1  0.85404885  0.12519197  0.35201708  1
  O  O325  1  0.87143366  0.13006564  0.86321621  1
  O  O326  1  0.87140874  0.60569780  0.40176041  1
  O  O327  1  0.91086515  0.56782821  0.85634510  1
  O  O328  1  0.08051509  0.45773823  0.09299246  1
  O  O329  1  0.15310891  0.36326531  0.61274658  1
  O  O330  1  0.13892577  0.88296313  0.11097271  1
  O  O331  1  0.13254671  0.87385543  0.57550147  1
  O  O332  1  0.63170802  0.38145636  0.14078016  1
  O  O333  1  0.60694962  0.36452657  0.64654568  1
  O  O334  1  0.61945265  0.89375927  0.11275186  1
  O  O335  1  0.62875850  0.87881817  0.63729337  1
  O  O336  1  0.13827092  0.29790130  0.17650413  1
  O  O337  1  0.14594444  0.23701163  0.70762340  1
  O  O338  1  0.20868061  0.74221135  0.37081687  1
  O  O339  1  0.14398181  0.73423527  0.76505336  1
  O  O340  1  0.62306696  0.27074619  0.25757988  1
  O  O341  1  0.65636838  0.28873476  0.77962812  1
  O  O342  1  0.63235131  0.73491650  0.27282215  1
  O  O343  1  0.61467266  0.77688672  0.75287782  1
  O  O344  1  0.34491849  0.24740246  0.22172278  1
  O  O345  1  0.39029434  0.22740931  0.72744971  1
  O  O346  1  0.37742611  0.72037022  0.26079729  1
  O  O347  1  0.38482860  0.75434857  0.77749460  1
  O  O348  1  0.86024548  0.24517367  0.23930475  1
  O  O349  1  0.87138151  0.23856159  0.73143664  1
  O  O350  1  0.82936164  0.72076569  0.22679245  1
  O  O351  1  0.89642629  0.73695532  0.78139477  1
  O  O352  1  0.38569742  0.51780977  0.50375665  1
  O  O353  1  0.45759313  0.52872114  1.04405896  1
  O  O354  1  0.36424798  1.01502838  0.44371701  1
  O  O355  1  0.38618690  1.00671349  0.98626433  1
  O  O356  1  0.86440014  0.47798221  0.49835857  1
  O  O357  1  0.89606894  0.47307392  0.98818721  1
  O  O358  1  0.86047027  1.02598996  0.46977622  1
  O  O359  1  0.89359590  1.01864231  0.98632497  1
  O  O360  1  0.10660721  0.01977203  -0.00055183  1
  O  O361  1  0.10974910  -0.00022368  0.47459788  1
  O  O362  1  0.10849433  0.47962351  0.02244001  1
  O  O363  1  0.12795891  0.46166161  0.51039284  1
  O  O364  1  0.61700939  0.00934213  0.00412126  1
  O  O365  1  0.62145754  -0.02665420  0.51208635  1
  O  O366  1  0.61702515  0.52950498  -0.00895186  1
  O  O367  1  0.61848085  0.51007368  0.50927961  1
  O  O368  1  0.38724036  0.38070786  0.13645835  1
  O  O369  1  0.38105110  0.36846155  0.62601472  1
  O  O370  1  0.36455611  0.89001659  0.09656749  1
  O  O371  1  0.35330123  0.87809739  0.60922344  1
  O  O372  1  0.85654670  0.38516784  0.11513396  1
  O  O373  1  0.88173610  0.35175344  0.61036535  1
  O  O374  1  0.89579540  0.86763188  0.10491047  1
  O  O375  1  0.86114989  0.92471725  0.61785193  1
  O  O376  1  0.12284770  0.13465377  0.37061870  1
  O  O377  1  0.12368016  0.16546835  0.88737852  1
  O  O378  1  0.08951524  0.63179113  0.41438787  1
  O  O379  1  0.11610709  0.62614954  0.87533355  1
  O  O380  1  0.62932994  0.14423662  0.35738132  1
  O  O381  1  0.64132128  0.11802581  0.89079894  1
  O  O382  1  0.63293808  0.63095779  0.40744483  1
  O  O383  1  0.62390287  0.65170243  0.87951726  1
