# generated using pymatgen
data_VZnO4
_symmetry_space_group_name_H-M   'P 1'
_cell_length_a   17.01089693
_cell_length_b   17.03125392
_cell_length_c   17.11743153
_cell_angle_alpha   90.47578406
_cell_angle_beta   89.62947520
_cell_angle_gamma   90.71776467
_symmetry_Int_Tables_number   1
_chemical_formula_structural   VZnO4
_chemical_formula_sum   'V64 Zn64 O256'
_cell_volume   4958.54878161
_cell_formula_units_Z   64
loop_
 _symmetry_equiv_pos_site_id
 _symmetry_equiv_pos_as_xyz
  1  'x, y, z'
loop_
 _atom_site_type_symbol
 _atom_site_label
 _atom_site_symmetry_multiplicity
 _atom_site_fract_x
 _atom_site_fract_y
 _atom_site_fract_z
 _atom_site_occupancy
  V  V0  1  -0.00479598  0.63148544  0.13345206  1
  V  V1  1  0.86998359  0.27399969  0.62144448  1
  V  V2  1  0.59378292  0.35623930  0.75297524  1
  V  V3  1  0.36629374  0.25642591  0.15015888  1
  V  V4  1  0.10116352  0.13078740  0.50503579  1
  V  V5  1  0.73232142  0.37562818  0.63944437  1
  V  V6  1  0.44207442  0.85730993  0.34221992  1
  V  V7  1  0.75997422  0.57682491  0.86254085  1
  V  V8  1  0.01181043  0.72639150  0.75383980  1
  V  V9  1  0.26236606  0.66578515  0.87015638  1
  V  V10  1  0.86896734  0.51327603  0.37212153  1
  V  V11  1  0.09591621  0.73060326  0.36566977  1
  V  V12  1  0.50199819  0.41420414  0.35731323  1
  V  V13  1  -0.00503649  0.25894538  0.74181618  1
  V  V14  1  0.23436814  0.10866537  0.37452836  1
  V  V15  1  0.25504574  0.50586345  0.75009850  1
  V  V16  1  0.74648067  -0.00380603  0.75096136  1
  V  V17  1  0.27941166  0.62606834  0.37668090  1
  V  V18  1  0.12176979  0.63789609  -0.00456172  1
  V  V19  1  0.02404200  0.14165677  0.11608258  1
  V  V20  1  0.13946667  0.23927668  0.86559231  1
  V  V21  1  0.28846775  0.01994540  0.74699412  1
  V  V22  1  0.24484901  0.25985588  0.49837781  1
  V  V23  1  0.88642518  0.01635050  0.86375473  1
  V  V24  1  0.64372819  0.62139534  0.52301527  1
  V  V25  1  0.01884799  0.87973399  0.85820176  1
  V  V26  1  0.40182394  0.62367399  0.73876674  1
  V  V27  1  0.51381332  0.77886217  0.73391185  1
  V  V28  1  0.75106736  0.51437862  0.24553668  1
  V  V29  1  0.00394547  0.26522507  0.24417674  1
  V  V30  1  0.87042627  0.75173703  0.12914000  1
  V  V31  1  0.87694833  0.11678660  0.24333571  1
  V  V32  1  0.65199148  0.13170931  0.01991699  1
  V  V33  1  0.12420556  0.38426320  0.74540573  1
  V  V34  1  0.87412863  0.25634561  0.10934108  1
  V  V35  1  0.63704132  0.77291159  0.88577627  1
  V  V36  1  0.49478505  0.50984501  0.51720508  1
  V  V37  1  0.11706856  0.25955802  0.37222039  1
  V  V38  1  0.00046798  0.38301333  0.37973986  1
  V  V39  1  0.37776031  0.24578070  0.62228226  1
  V  V40  1  0.12351943  -0.02021811  0.62146714  1
  V  V41  1  0.66389146  0.24288948  0.86639015  1
  V  V42  1  0.74814814  0.37245189  0.11522122  1
  V  V43  1  0.63878348  0.61128593  -0.00112470  1
  V  V44  1  0.87257590  0.87363260  -0.00520030  1
  V  V45  1  -0.01831424  0.13122390  0.61920008  1
  V  V46  1  0.00891590  0.38577562  0.88908888  1
  V  V47  1  0.62960884  -0.01540122  0.59838820  1
  V  V48  1  0.84748424  0.37296213  0.48155008  1
  V  V49  1  0.47362150  0.62760778  0.10441958  1
  V  V50  1  0.25352244  0.38865235  0.61737340  1
  V  V51  1  0.45173363  -0.01410776  0.49894556  1
  V  V52  1  0.86706747  0.75246444  0.64697832  1
  V  V53  1  0.62884528  0.35904771  0.24974264  1
  V  V54  1  0.73994130  0.13922818  0.41692066  1
  V  V55  1  0.03005636  -0.00190259  -0.00465015  1
  V  V56  1  0.22210344  0.38336362  0.10674676  1
  V  V57  1  0.12349032  -0.02264181  0.16163374  1
  V  V58  1  0.37471335  0.47822266  0.87626093  1
  V  V59  1  0.67092567  0.74794502  0.35837088  1
  V  V60  1  0.50334277  0.47260537  -0.00587605  1
  V  V61  1  0.39902902  -0.05569943  0.95411536  1
  V  V62  1  0.12452260  0.60816905  0.51451492  1
  V  V63  1  0.26705053  0.48979758  0.26171014  1
  Zn  Zn64  1  0.21122498  0.18459492  0.18228104  1
  Zn  Zn65  1  0.18328985  0.18982232  0.68324398  1
  Zn  Zn66  1  0.16724143  0.63017519  0.20893819  1
  Zn  Zn67  1  0.19570124  0.69129830  0.69326811  1
  Zn  Zn68  1  0.69356004  0.18572707  0.19184083  1
  Zn  Zn69  1  0.62727924  0.13113186  0.73775462  1
  Zn  Zn70  1  0.69162159  0.69572813  0.17440521  1
  Zn  Zn71  1  0.69149833  0.68578032  0.71241874  1
  Zn  Zn72  1  0.31610472  0.31703538  0.32419845  1
  Zn  Zn73  1  0.31207561  0.30673208  0.79515586  1
  Zn  Zn74  1  0.24928581  0.82146591  0.40814839  1
  Zn  Zn75  1  0.37312996  0.85128839  0.77801821  1
  Zn  Zn76  1  0.81262557  0.30057560  0.30449482  1
  Zn  Zn77  1  0.82239454  0.35829960  0.81902196  1
  Zn  Zn78  1  0.87600010  0.71545966  0.33171926  1
  Zn  Zn79  1  0.82371897  0.83069727  0.80767820  1
  Zn  Zn80  1  0.19237567  0.44489052  0.42802465  1
  Zn  Zn81  1  0.17533791  0.45847341  0.93725614  1
  Zn  Zn82  1  0.12507271  0.94109913  0.36381016  1
  Zn  Zn83  1  0.22920109  0.87064131  0.84501006  1
  Zn  Zn84  1  0.67758495  0.45161000  0.42515615  1
  Zn  Zn85  1  0.68101224  0.42275373  0.93082057  1
  Zn  Zn86  1  0.70859814  0.94332408  0.41935256  1
  Zn  Zn87  1  0.69609564  0.95505462  0.93528627  1
  Zn  Zn88  1  0.32067873  0.05309441  0.10490545  1
  Zn  Zn89  1  0.28539181  0.06985099  0.57405703  1
  Zn  Zn90  1  0.29530953  0.54651799  0.05393501  1
  Zn  Zn91  1  0.31386897  0.57315572  0.55539645  1
  Zn  Zn92  1  0.86111113  0.09931258  0.02115696  1
  Zn  Zn93  1  0.76371033  0.12863846  0.62254517  1
  Zn  Zn94  1  0.82003942  0.55594789  0.06215026  1
  Zn  Zn95  1  0.80230655  0.54631733  0.57760699  1
  Zn  Zn96  1  0.43845095  0.43182214  0.17555108  1
  Zn  Zn97  1  0.43168435  0.43039799  0.68886802  1
  Zn  Zn98  1  0.45513006  0.92553085  0.14627706  1
  Zn  Zn99  1  0.48202143  0.98851322  0.69801600  1
  Zn  Zn100  1  0.93049265  0.43932012  0.18825517  1
  Zn  Zn101  1  0.97203534  0.52120562  0.59545328  1
  Zn  Zn102  1  0.91821889  0.96428775  0.13555583  1
  Zn  Zn103  1  0.92432079  0.94621291  0.68819829  1
  Zn  Zn104  1  0.03184609  0.07503708  0.32137414  1
  Zn  Zn105  1  0.12683919  0.03310167  0.82863571  1
  Zn  Zn106  1  0.06649039  0.55027937  0.31211983  1
  Zn  Zn107  1  0.07902943  0.56445311  0.82735053  1
  Zn  Zn108  1  0.58425328  0.06958235  0.41281760  1
  Zn  Zn109  1  0.54098684  0.07799999  0.90821287  1
  Zn  Zn110  1  0.57160382  0.57770573  0.28079152  1
  Zn  Zn111  1  0.57307179  0.54487454  0.81413398  1
  Zn  Zn112  1  0.40650112  0.16126790  0.46976667  1
  Zn  Zn113  1  0.49610952  0.11671075  1.10554911  1
  Zn  Zn114  1  0.49410856  0.66463684  0.40717355  1
  Zn  Zn115  1  0.46287500  0.65377035  0.90989416  1
  Zn  Zn116  1  0.91715692  0.19619610  0.42494049  1
  Zn  Zn117  1  0.99286057  0.16585570  0.90795429  1
  Zn  Zn118  1  0.96933751  0.67977750  0.46975654  1
  Zn  Zn119  1  0.93426662  0.68459279  0.92575385  1
  Zn  Zn120  1  0.07995540  0.30473523  0.05000827  1
  Zn  Zn121  1  0.05770712  0.33382036  0.56107072  1
  Zn  Zn122  1  0.06429224  0.80945333  0.06296677  1
  Zn  Zn123  1  0.05391490  0.79000778  0.57039813  1
  Zn  Zn124  1  0.51770755  0.26237002  0.01391639  1
  Zn  Zn125  1  0.54244060  0.35594044  0.56605720  1
  Zn  Zn126  1  0.49562677  0.79456568  -0.00203681  1
  Zn  Zn127  1  0.61442745  0.79241432  0.56184757  1
  O  O128  1  0.12099926  0.15811238  0.11333609  1
  O  O129  1  0.09676133  0.15002853  0.61101506  1
  O  O130  1  0.09932917  0.62276973  0.10986740  1
  O  O131  1  0.15104069  0.62799226  0.60942652  1
  O  O132  1  0.62109295  0.13509473  0.11944475  1
  O  O133  1  0.57771163  0.05193050  0.66916861  1
  O  O134  1  0.63743492  0.62537186  0.09833325  1
  O  O135  1  0.63957946  0.63601040  0.62213209  1
  O  O136  1  0.41209093  0.36990857  0.35949235  1
  O  O137  1  0.36984367  0.38030752  0.86174679  1
  O  O138  1  0.34244017  0.85656483  0.35687335  1
  O  O139  1  0.34638958  0.88135595  0.88872113  1
  O  O140  1  0.87827882  0.37326740  0.37586932  1
  O  O141  1  0.91400292  0.40287451  0.86639215  1
  O  O142  1  0.89849142  0.90434855  0.37025411  1
  O  O143  1  0.89546320  0.89856680  0.88399700  1
  O  O144  1  0.21234704  0.01135647  0.38929665  1
  O  O145  1  0.24636260  0.03641281  0.83634311  1
  O  O146  1  0.26313265  0.51308800  0.37258867  1
  O  O147  1  0.26450538  0.49915607  0.86062753  1
  O  O148  1  0.75803582  0.04031657  0.39239526  1
  O  O149  1  0.77845200  0.00073770  0.86121035  1
  O  O150  1  0.76142178  0.50643073  0.36033900  1
  O  O151  1  0.76291797  0.47364443  0.86590786  1
  O  O152  1  0.25826085  0.47654122  0.14304829  1
  O  O153  1  0.26097835  0.49185390  0.63023317  1
  O  O154  1  0.21069940  1.01896022  0.13505344  1
  O  O155  1  0.22199680  0.97489349  0.60473176  1
  O  O156  1  0.77263899  0.48008460  0.14092287  1
  O  O157  1  0.72070657  0.46677730  0.60470068  1
  O  O158  1  0.67283316  0.99658001  0.21822568  1
  O  O159  1  0.72572627  1.00825911  0.62743391  1
  O  O160  1  -0.00545093  0.36961406  0.25375540  1
  O  O161  1  0.02273600  0.38032292  0.75519163  1
  O  O162  1  -0.03682110  0.92261407  0.34076084  1
  O  O163  1  -0.00515523  0.89263711  0.76306397  1
  O  O164  1  0.52262951  0.39209784  0.24636063  1
  O  O165  1  0.49490628  0.35248836  0.74675182  1
  O  O166  1  0.46604681  0.88087460  0.24650426  1
  O  O167  1  0.48574959  0.87796209  0.74631088  1
  O  O168  1  0.49145325  0.14893248  0.29179416  1
  O  O169  1  0.44445417  0.17403540  0.84918278  1
  O  O170  1  0.50544984  0.61323563  0.19790456  1
  O  O171  1  0.49977730  0.60723601  0.74843778  1
  O  O172  1  1.00744515  0.13818514  0.22243158  1
  O  O173  1  0.99096518  0.15783571  0.72946453  1
  O  O174  1  0.99351949  0.60874816  0.22850647  1
  O  O175  1  1.00353152  0.62967895  0.77954230  1
  O  O176  1  0.33219458  0.22070256  -0.03522883  1
  O  O177  1  0.34551296  0.26156678  0.48850606  1
  O  O178  1  0.27420945  0.81786643  0.04706120  1
  O  O179  1  0.40305244  0.73425743  0.53369598  1
  O  O180  1  0.88132233  0.24494732  0.01416332  1
  O  O181  1  0.88242514  0.27272466  0.51054285  1
  O  O182  1  0.88614811  0.77316092  -0.01741978  1
  O  O183  1  0.87528917  0.71672921  0.53686591  1
  O  O184  1  0.11873123  0.25794411  0.49051610  1
  O  O185  1  0.13483467  0.24927780  0.96490816  1
  O  O186  1  0.09586153  0.72345200  0.49147361  1
  O  O187  1  0.13731347  0.73567326  1.01104491  1
  O  O188  1  0.56201749  0.24900934  0.47136658  1
  O  O189  1  0.64707224  0.23311775  0.97368021  1
  O  O190  1  0.63504487  0.72132088  0.48336927  1
  O  O191  1  0.64292564  0.71640661  0.97553643  1
  O  O192  1  0.46201101  0.22876581  0.11498683  1
  O  O193  1  0.47275487  0.27151705  0.60008117  1
  O  O194  1  0.48892103  0.72719822  0.08690574  1
  O  O195  1  0.53003651  0.76381946  0.63909612  1
  O  O196  1  0.99886455  0.25145308  0.12306608  1
  O  O197  1  0.98907120  0.26342982  0.62804875  1
  O  O198  1  0.99356585  0.73743204  0.11960613  1
  O  O199  1  0.99002491  0.73288457  0.65076828  1
  O  O200  1  -0.00095856  0.26688529  0.36367319  1
  O  O201  1  0.00562826  0.26706299  0.85232010  1
  O  O202  1  -0.01191458  0.73972925  0.37308780  1
  O  O203  1  0.00300755  0.77451167  0.86072652  1
  O  O204  1  0.50455199  0.24300407  0.42612992  1
  O  O205  1  0.45190079  0.24166379  0.87623111  1
  O  O206  1  0.48124265  0.77149653  0.36995319  1
  O  O207  1  0.51460102  0.75396111  0.89421691  1
  O  O208  1  0.21875391  0.14571214  0.49816871  1
  O  O209  1  0.32737688  0.15428861  0.93681896  1
  O  O210  1  0.24251158  0.62001139  0.48400955  1
  O  O211  1  0.28780999  0.67847957  0.96205919  1
  O  O212  1  0.73447313  0.14496048  0.51664725  1
  O  O213  1  0.75061741  0.12298215  1.02541839  1
  O  O214  1  0.74123349  0.60546689  0.50466569  1
  O  O215  1  0.73912578  0.58116204  0.98793130  1
  O  O216  1  0.23186559  0.38756258  0.00644815  1
  O  O217  1  0.23586587  0.37145823  0.51035140  1
  O  O218  1  0.23284689  0.86021479  0.00733812  1
  O  O219  1  0.27099909  0.83864566  0.52562628  1
  O  O220  1  0.74469910  0.38143305  0.01777557  1
  O  O221  1  0.74849774  0.36805254  0.47329308  1
  O  O222  1  0.77585406  0.89239362  -0.00796349  1
  O  O223  1  0.80939950  0.91883854  0.50033251  1
  O  O224  1  0.15080088  0.52095592  0.24549263  1
  O  O225  1  0.14187557  0.49159316  0.75427923  1
  O  O226  1  0.10058376  0.99204243  0.26014040  1
  O  O227  1  0.11248803  1.01114560  0.71658603  1
  O  O228  1  0.64958789  0.49701148  0.24927155  1
  O  O229  1  0.61112670  0.45517077  0.75930176  1
  O  O230  1  0.57395893  1.01443069  0.30510674  1
  O  O231  1  0.65991295  0.96016643  0.77382228  1
  O  O232  1  0.44152976  0.09825285  0.27789624  1
  O  O233  1  0.38959335  0.03179329  0.74536888  1
  O  O234  1  0.36673957  0.48853293  0.24543490  1
  O  O235  1  0.37439090  0.50544223  0.75597857  1
  O  O236  1  0.88574768  0.01766637  0.22417283  1
  O  O237  1  0.90055577  0.03463367  0.76982878  1
  O  O238  1  0.86617469  0.49562579  0.26512765  1
  O  O239  1  0.87939103  0.52199665  0.65233882  1
  O  O240  1  0.10689685  0.37525478  0.37974249  1
  O  O241  1  0.13450278  0.35749064  0.85234645  1
  O  O242  1  0.13609186  0.83313222  0.38389198  1
  O  O243  1  0.12087461  0.90148300  0.85841672  1
  O  O244  1  0.61298581  0.38205212  0.35620840  1
  O  O245  1  0.62224240  0.34351103  0.86484951  1
  O  O246  1  0.66367776  0.84585955  0.39469293  1
  O  O247  1  0.62235413  0.86655728  0.91739959  1
  O  O248  1  0.31267721  0.16521466  0.12282065  1
  O  O249  1  0.37412569  0.14800339  0.58395709  1
  O  O250  1  0.37380954  0.61584399  0.09870559  1
  O  O251  1  0.37617260  0.61796159  0.64318999  1
  O  O252  1  0.89286365  0.14148852  0.12818995  1
  O  O253  1  0.87963722  0.15835616  0.61684971  1
  O  O254  1  0.88778576  0.64265425  0.10097177  1
  O  O255  1  0.86733207  0.65515958  0.59475654  1
  O  O256  1  0.24586433  0.29073615  0.14850993  1
  O  O257  1  0.25165087  0.25802808  0.60869373  1
  O  O258  1  0.25723877  0.74632022  0.18485022  1
  O  O259  1  0.26425860  0.77498134  0.64077350  1
  O  O260  1  0.76556569  0.26054362  0.12875400  1
  O  O261  1  0.76836915  0.25836583  0.63347993  1
  O  O262  1  0.77271735  0.74605123  0.10915574  1
  O  O263  1  0.76777788  0.76099448  0.65967121  1
  O  O264  1  0.23113622  0.25724581  0.38732994  1
  O  O265  1  0.23521619  0.23215660  0.83581109  1
  O  O266  1  0.22853627  0.71587194  0.37074169  1
  O  O267  1  0.25760152  0.75803523  0.83003357  1
  O  O268  1  0.80497448  0.21643747  0.38373264  1
  O  O269  1  0.76122616  0.26099876  0.85678649  1
  O  O270  1  0.76788648  0.72551515  0.36906905  1
  O  O271  1  0.73377083  0.77734836  0.85381691  1
  O  O272  1  0.00307146  0.11428600  0.01219244  1
  O  O273  1  -0.00631524  0.14570220  0.50681832  1
  O  O274  1  0.02278999  0.62790831  -0.02650077  1
  O  O275  1  0.01436833  0.59664953  0.52771846  1
  O  O276  1  0.52613945  0.14855261  -0.00108362  1
  O  O277  1  0.48707303  0.08150049  0.47117591  1
  O  O278  1  0.51637141  0.60404685  -0.00284551  1
  O  O279  1  0.51338035  0.61493415  0.51039459  1
  O  O280  1  0.51566683  0.41030444  0.46865485  1
  O  O281  1  0.50427154  0.37239688  0.99341776  1
  O  O282  1  0.40903736  0.80473798  0.54808287  1
  O  O283  1  0.44741090  0.89079622  1.03289472  1
  O  O284  1  0.98529949  0.37911079  0.47814033  1
  O  O285  1  1.00661826  0.35650941  0.98240345  1
  O  O286  1  0.94903127  0.85128350  0.54220819  1
  O  O287  1  1.01449077  0.88818020  0.98860046  1
  O  O288  1  0.49800731  0.51403308  0.35407332  1
  O  O289  1  0.48332407  0.49942775  0.88172485  1
  O  O290  1  0.47833726  0.92599910  0.41824391  1
  O  O291  1  0.46672927  0.99584641  0.90009958  1
  O  O292  1  0.98372342  0.48568499  0.36163502  1
  O  O293  1  1.06242810  0.47850301  0.89976667  1
  O  O294  1  1.01403732  0.97629277  0.39213856  1
  O  O295  1  1.00263087  1.00004661  0.88796593  1
  O  O296  1  0.03148826  0.01675532  0.11435114  1
  O  O297  1  -0.02269075  0.03156969  0.62497057  1
  O  O298  1  -0.02953898  0.51417038  0.10247817  1
  O  O299  1  0.02759146  0.43135844  0.61493776  1
  O  O300  1  0.60414789  -0.08014394  0.11426761  1
  O  O301  1  0.49598307  -0.04320741  0.58552163  1
  O  O302  1  0.48371113  0.49861091  0.09193130  1
  O  O303  1  0.50573791  0.47230049  0.61166856  1
  O  O304  1  0.24284733  0.39287438  0.28357926  1
  O  O305  1  0.24930132  0.38753037  0.73703162  1
  O  O306  1  0.26994573  0.90325677  0.22862347  1
  O  O307  1  0.27987277  0.91202094  0.74402001  1
  O  O308  1  0.74107498  0.37228640  0.25288507  1
  O  O309  1  0.75048180  0.38287401  0.73516145  1
  O  O310  1  0.64052464  0.97402654  0.28129087  1
  O  O311  1  0.81233097  0.91605847  0.72669884  1
  O  O312  1  0.22349244  0.12635685  0.27744476  1
  O  O313  1  0.25289455  0.10033023  0.68851154  1
  O  O314  1  0.26729364  0.60986979  0.26788002  1
  O  O315  1  0.26024356  0.61600135  0.75272597  1
  O  O316  1  0.77766301  0.13222711  0.24536744  1
  O  O317  1  0.74324856  0.10263324  0.73407591  1
  O  O318  1  0.75552800  0.61119873  0.22951004  1
  O  O319  1  0.74899757  0.60630196  0.76709434  1
  O  O320  1  0.33271331  0.12094938  0.39208836  1
  O  O321  1  0.33522878  0.00414750  1.00028361  1
  O  O322  1  0.37587797  0.64371641  0.38891294  1
  O  O323  1  0.37074229  0.62224702  0.85058062  1
  O  O324  1  0.92067482  0.11507460  0.34033108  1
  O  O325  1  0.88978052  0.11066013  0.90603355  1
  O  O326  1  0.88968553  0.61031851  0.38408980  1
  O  O327  1  0.84964784  0.61870028  0.88881165  1
  O  O328  1  0.12216735  0.38197354  0.12090412  1
  O  O329  1  0.14752236  0.36641294  0.63930120  1
  O  O330  1  0.11832212  0.88124403  0.13582007  1
  O  O331  1  0.09015382  0.88579744  0.61571780  1
  O  O332  1  0.64684522  0.37199786  0.13939156  1
  O  O333  1  0.62713413  0.34440375  0.64234369  1
  O  O334  1  0.64181352  0.85831699  0.10973423  1
  O  O335  1  0.63472313  0.88620205  0.61496315  1
  O  O336  1  0.11253077  0.24931931  0.26664796  1
  O  O337  1  0.11312256  0.26155607  0.74261930  1
  O  O338  1  0.11011985  0.71740147  0.26807366  1
  O  O339  1  0.11025013  0.74601232  0.74475309  1
  O  O340  1  0.62491612  0.26021011  0.24849484  1
  O  O341  1  0.62716365  0.24811067  0.76036620  1
  O  O342  1  0.66078868  0.76154680  0.25866206  1
  O  O343  1  0.60728700  0.74889033  0.77487147  1
  O  O344  1  0.37092775  0.25228068  0.24929585  1
  O  O345  1  0.36764068  0.23999661  0.72089107  1
  O  O346  1  0.32858058  0.74559798  0.19516842  1
  O  O347  1  0.41469311  0.73669212  0.74993553  1
  O  O348  1  0.89363069  0.24197725  0.23740847  1
  O  O349  1  0.89200037  0.28934274  0.73180669  1
  O  O350  1  0.87401112  0.75360646  0.22749088  1
  O  O351  1  0.89265298  0.75575868  0.75069575  1
  O  O352  1  0.39553952  0.51070573  0.50449261  1
  O  O353  1  0.37446184  0.49296206  0.97793946  1
  O  O354  1  0.35493247  0.99406604  0.51391143  1
  O  O355  1  0.43030000  1.03399867  1.13921879  1
  O  O356  1  0.86394899  0.48219240  0.47889898  1
  O  O357  1  0.92357607  0.50227126  1.03815552  1
  O  O358  1  0.84873243  0.97686633  0.52065874  1
  O  O359  1  0.90248405  0.98774280  1.01948353  1
  O  O360  1  0.12473068  0.00946087  -0.01565626  1
  O  O361  1  0.10359508  0.03075375  0.51865052  1
  O  O362  1  0.19037378  0.55572082  0.00750853  1
  O  O363  1  0.13301452  0.50792166  0.50014619  1
  O  O364  1  0.63041688  0.03610197  -0.02013631  1
  O  O365  1  0.63068940  -0.00136046  0.49618001  1
  O  O366  1  0.60796285  0.49306349  -0.01325133  1
  O  O367  1  0.61495834  0.52058140  0.48819361  1
  O  O368  1  0.37362331  0.35526981  0.11937749  1
  O  O369  1  0.35562406  0.36507698  0.62417515  1
  O  O370  1  0.31166818  0.90038032  0.16932884  1
  O  O371  1  0.23746411  0.78143125  0.56693156  1
  O  O372  1  0.87050614  0.36150901  0.12701641  1
  O  O373  1  0.84586950  0.37784187  0.59847730  1
  O  O374  1  0.89223293  0.85886619  0.10445230  1
  O  O375  1  0.90248398  0.85444011  0.60693037  1
  O  O376  1  0.11029957  0.14041204  0.39142118  1
  O  O377  1  0.09813001  0.14148622  0.85551844  1
  O  O378  1  0.10521348  0.62411028  0.39172976  1
  O  O379  1  0.15817694  0.63463955  0.88358451  1
  O  O380  1  0.64761700  0.15642567  0.38042442  1
  O  O381  1  0.62294566  0.13962499  0.85404690  1
  O  O382  1  0.60289037  0.65562928  0.35783702  1
  O  O383  1  0.64743548  0.60232197  0.87903868  1
