# generated using pymatgen
data_VZnO4
_symmetry_space_group_name_H-M   'P 1'
_cell_length_a   16.89558065
_cell_length_b   16.95527486
_cell_length_c   16.94265235
_cell_angle_alpha   89.78902612
_cell_angle_beta   89.71471396
_cell_angle_gamma   90.20365145
_symmetry_Int_Tables_number   1
_chemical_formula_structural   VZnO4
_chemical_formula_sum   'V64 Zn64 O256'
_cell_volume   4853.42425412
_cell_formula_units_Z   64
loop_
 _symmetry_equiv_pos_site_id
 _symmetry_equiv_pos_as_xyz
  1  'x, y, z'
loop_
 _atom_site_type_symbol
 _atom_site_label
 _atom_site_symmetry_multiplicity
 _atom_site_fract_x
 _atom_site_fract_y
 _atom_site_fract_z
 _atom_site_occupancy
  V  V0  1  0.75036756  0.25589070  0.01915046  1
  V  V1  1  -0.01773749  0.50473446  0.49363910  1
  V  V2  1  0.88353141  0.86869563  0.48136708  1
  V  V3  1  0.09680545  -0.03114135  0.65305677  1
  V  V4  1  0.26304441  0.74539371  -0.00998107  1
  V  V5  1  -0.00285092  0.63131142  0.63661979  1
  V  V6  1  0.51133767  0.61683390  0.11376794  1
  V  V7  1  0.14975203  0.74205285  0.37372747  1
  V  V8  1  0.51144153  0.64372460  0.63046240  1
  V  V9  1  0.39163535  0.22982047  0.60981186  1
  V  V10  1  0.37580084  0.74351927  0.13749723  1
  V  V11  1  0.86111024  0.89187989  0.01701075  1
  V  V12  1  0.37423250  0.63699759  0.74253911  1
  V  V13  1  0.09230881  0.66992030  -0.01463453  1
  V  V14  1  0.26508384  -0.00698581  0.26283441  1
  V  V15  1  0.00804260  0.00476418  0.00157113  1
  V  V16  1  0.64237724  0.38065808  0.24599434  1
  V  V17  1  0.13206126  0.50511789  0.61951351  1
  V  V18  1  0.74209757  0.08827230  0.36219343  1
  V  V19  1  0.08421147  0.22733835  0.38115013  1
  V  V20  1  0.87136908  0.75684456  0.13120395  1
  V  V21  1  0.64128511  0.00002936  0.12754129  1
  V  V22  1  0.65360900  0.49854868  0.11619391  1
  V  V23  1  0.36877040  0.00693981  0.86103025  1
  V  V24  1  0.12743431  0.14231027  0.00478718  1
  V  V25  1  -0.00849749  0.60986052  0.12303188  1
  V  V26  1  0.37851777  0.52146722  0.36606495  1
  V  V27  1  0.87178097  0.75006541  0.62842480  1
  V  V28  1  0.73869255  0.74480898  0.49392016  1
  V  V29  1  0.00556221  0.25637394  0.75805255  1
  V  V30  1  0.87694569  0.37638153  -0.01998951  1
  V  V31  1  0.75494061  0.24796687  0.47682551  1
  V  V32  1  0.76140157  0.38651006  0.61317505  1
  V  V33  1  0.37888048  0.89165932  0.01968842  1
  V  V34  1  0.49101803  0.88117820  0.38146041  1
  V  V35  1  0.00599095  -0.00328131  0.49009786  1
  V  V36  1  0.87551086  0.00345825  0.87677782  1
  V  V37  1  0.50849333  0.25329911  0.25520572  1
  V  V38  1  0.60931692  -0.00817745  0.61758809  1
  V  V39  1  0.73990675  0.62257238  0.36234772  1
  V  V40  1  0.36393351  0.25872280  0.12717225  1
  V  V41  1  0.88124136  0.12782759  0.73163732  1
  V  V42  1  0.25206067  0.76161722  0.52635125  1
  V  V43  1  0.50853450  0.49986079  0.51161910  1
  V  V44  1  0.12304345  -0.00491898  0.13899944  1
  V  V45  1  0.61771509  0.12884086  0.00109549  1
  V  V46  1  0.74196764  0.74384667  -0.00699166  1
  V  V47  1  0.24991560  0.49773947  0.74788621  1
  V  V48  1  0.24717688  0.13464473  0.87301103  1
  V  V49  1  0.00269396  0.49284708  -0.01809907  1
  V  V50  1  0.50521027  0.87943180  0.87416585  1
  V  V51  1  0.74600683  -0.01123702  0.74205342  1
  V  V52  1  0.49326892  0.12243523  0.13192662  1
  V  V53  1  0.48256483  0.35995606  0.86974440  1
  V  V54  1  0.24647343  0.27693057  0.47738780  1
  V  V55  1  0.51181673  0.74424723  0.25489553  1
  V  V56  1  0.00357273  0.77431273  0.25318163  1
  V  V57  1  0.90840010  0.25459699  0.12880155  1
  V  V58  1  0.63543088  0.87958968  0.25390441  1
  V  V59  1  0.74301364  0.50594848  0.77236595  1
  V  V60  1  0.86785671  0.49803801  0.35091393  1
  V  V61  1  0.74807353  0.13796742  0.87271912  1
  V  V62  1  0.37859490  0.50742892  0.88710063  1
  V  V63  1  0.50171977  0.37561940  0.37957970  1
  Zn  Zn64  1  0.17521593  0.18185690  0.20544595  1
  Zn  Zn65  1  0.08262912  0.15424319  0.62496184  1
  Zn  Zn66  1  0.15968307  0.72768074  0.15227187  1
  Zn  Zn67  1  0.18517088  0.68858194  0.69302343  1
  Zn  Zn68  1  0.68837439  0.18585660  0.19533609  1
  Zn  Zn69  1  0.68516600  0.16843824  0.68234217  1
  Zn  Zn70  1  0.68888311  0.68793345  0.17955396  1
  Zn  Zn71  1  0.70650521  0.66303078  0.67037680  1
  Zn  Zn72  1  0.33433427  0.30206194  0.31292036  1
  Zn  Zn73  1  0.26564879  0.34467841  0.85726775  1
  Zn  Zn74  1  0.31429353  0.81992045  0.30415032  1
  Zn  Zn75  1  0.36360455  0.79753299  0.83716340  1
  Zn  Zn76  1  0.83766807  0.31575225  0.30741372  1
  Zn  Zn77  1  0.81504851  0.31212456  0.79361095  1
  Zn  Zn78  1  0.80821382  0.80851239  0.31426448  1
  Zn  Zn79  1  0.82899454  0.81224896  0.81709318  1
  Zn  Zn80  1  0.21059611  0.47416893  0.45620556  1
  Zn  Zn81  1  0.17565992  0.49404115  0.92637425  1
  Zn  Zn82  1  0.17809392  0.91656354  0.44520908  1
  Zn  Zn83  1  0.19981766  0.92990353  0.94324204  1
  Zn  Zn84  1  0.68833624  0.43677247  0.43468616  1
  Zn  Zn85  1  0.67072766  0.42759345  0.93508371  1
  Zn  Zn86  1  0.68820868  0.92421337  0.44042861  1
  Zn  Zn87  1  0.68912217  0.94642245  0.93892800  1
  Zn  Zn88  1  0.29897397  0.07184435  0.07578973  1
  Zn  Zn89  1  0.25870854  0.09667099  0.66468017  1
  Zn  Zn90  1  0.31925290  0.57853795  0.06715584  1
  Zn  Zn91  1  0.33317176  0.55761933  0.56170707  1
  Zn  Zn92  1  0.81853858  0.08060004  0.07127454  1
  Zn  Zn93  1  0.81390734  0.05253799  0.54831725  1
  Zn  Zn94  1  0.81568558  0.56831425  -0.06851299  1
  Zn  Zn95  1  0.80967713  0.56894948  0.55757476  1
  Zn  Zn96  1  0.43939363  0.43636511  0.18827662  1
  Zn  Zn97  1  0.42212476  0.42568836  0.69045259  1
  Zn  Zn98  1  0.44188818  0.93852093  0.19824909  1
  Zn  Zn99  1  0.44529261  0.94944263  0.69857191  1
  Zn  Zn100  1  0.86043280  0.46114025  0.14470178  1
  Zn  Zn101  1  0.93609378  0.43707348  0.68002585  1
  Zn  Zn102  1  0.95114424  0.94907395  0.19167264  1
  Zn  Zn103  1  0.92813293  0.91630573  0.69639512  1
  Zn  Zn104  1  0.12488909  0.04568137  0.33780749  1
  Zn  Zn105  1  0.06748412  0.06788881  0.81514896  1
  Zn  Zn106  1  0.02531509  0.60517322  0.33287729  1
  Zn  Zn107  1  0.06286889  0.57483721  0.80850535  1
  Zn  Zn108  1  0.55757812  0.05857043  0.31158538  1
  Zn  Zn109  1  0.57013502  0.04624123  0.82412581  1
  Zn  Zn110  1  0.56695508  0.55499854  0.30694721  1
  Zn  Zn111  1  0.53744589  0.51190341  0.77634170  1
  Zn  Zn112  1  0.61955324  0.11332291  0.49468444  1
  Zn  Zn113  1  0.42344687  0.19228957  0.94532931  1
  Zn  Zn114  1  0.46065019  0.68479945  0.43996296  1
  Zn  Zn115  1  0.44657852  0.68155377  0.93569997  1
  Zn  Zn116  1  0.94863706  0.20338652  0.51199906  1
  Zn  Zn117  1  0.93872751  0.18854283  0.93780473  1
  Zn  Zn118  1  0.92541941  0.67724420  0.44095043  1
  Zn  Zn119  1  0.92666678  0.70527756  0.93705284  1
  Zn  Zn120  1  0.07750370  0.32127478  -0.07274807  1
  Zn  Zn121  1  0.07053096  0.32735824  0.55562323  1
  Zn  Zn122  1  0.05068957  0.82609367  0.05147207  1
  Zn  Zn123  1  0.06679204  0.80562117  0.55575103  1
  Zn  Zn124  1  0.56020466  0.31621459  0.06498002  1
  Zn  Zn125  1  0.57510559  0.29656133  0.55109081  1
  Zn  Zn126  1  0.55885261  0.81727583  0.06335498  1
  Zn  Zn127  1  0.56760260  0.82169207  0.56690448  1
  O  O128  1  0.12516342  0.11490639  0.10855089  1
  O  O129  1  0.15253856  0.06599891  0.63627566  1
  O  O130  1  0.09685278  0.64098342  0.09542559  1
  O  O131  1  0.10763670  0.62749103  0.63269464  1
  O  O132  1  0.62161496  0.12044055  0.11786151  1
  O  O133  1  0.63567168  0.10141728  0.61164613  1
  O  O134  1  0.62146359  0.60899379  0.12860839  1
  O  O135  1  0.60985748  0.62155723  0.63480908  1
  O  O136  1  0.39884605  0.37830782  0.37028185  1
  O  O137  1  0.37213663  0.39573302  0.87590528  1
  O  O138  1  0.39216542  0.86380461  0.37180029  1
  O  O139  1  0.37887137  0.89728884  0.89338920  1
  O  O140  1  0.86849147  0.40023316  0.37692753  1
  O  O141  1  0.86846710  0.35909753  0.88215484  1
  O  O142  1  0.87843580  0.86703045  0.38154889  1
  O  O143  1  0.86120894  0.90322384  0.89676397  1
  O  O144  1  0.22404456  -0.01626898  0.36421113  1
  O  O145  1  0.26415393  0.00244150  0.88333629  1
  O  O146  1  0.27563802  0.51905180  0.38039772  1
  O  O147  1  0.26221980  0.51600018  0.85735174  1
  O  O148  1  0.75148963  -0.01072777  0.36476135  1
  O  O149  1  0.75393622  0.01606532  0.86788293  1
  O  O150  1  0.75740090  0.50934716  0.37617384  1
  O  O151  1  0.74106165  0.49906569  0.87729037  1
  O  O152  1  0.24658097  0.51986676  0.15661426  1
  O  O153  1  0.24361788  0.51531068  0.62905479  1
  O  O154  1  0.22988695  1.00421905  0.14300902  1
  O  O155  1  0.28615177  0.94393258  0.62690991  1
  O  O156  1  0.75294807  0.50165200  0.12228392  1
  O  O157  1  0.74475697  0.48622597  0.60814213  1
  O  O158  1  0.74045948  1.01386931  0.12645398  1
  O  O159  1  0.76103011  0.99716940  0.64163630  1
  O  O160  1  0.05714672  0.38052794  0.20357689  1
  O  O161  1  -0.00519877  0.35386635  0.73533662  1
  O  O162  1  -0.00524251  0.87187836  0.26415539  1
  O  O163  1  -0.06403342  0.84679381  0.78398362  1
  O  O164  1  0.51050726  0.36714445  0.25316910  1
  O  O165  1  0.49809880  0.39320234  0.76895175  1
  O  O166  1  0.51104686  0.86546246  0.25527155  1
  O  O167  1  0.49261135  0.88050910  0.77224035  1
  O  O168  1  0.51776634  0.14028641  0.23851580  1
  O  O169  1  0.52369630  0.15273741  0.76012671  1
  O  O170  1  0.51803375  0.64100428  0.24106215  1
  O  O171  1  0.49328237  0.61237422  0.73582029  1
  O  O172  1  0.91211218  0.07507940  0.29144303  1
  O  O173  1  0.98499075  0.12619531  0.75075121  1
  O  O174  1  1.00643800  0.61309999  0.22111019  1
  O  O175  1  0.99197429  0.62589727  0.73742417  1
  O  O176  1  0.36649642  0.24520672  0.02678439  1
  O  O177  1  0.34603049  0.25328915  0.51848922  1
  O  O178  1  0.37056200  0.75021298  0.01696411  1
  O  O179  1  0.35699407  0.71963453  0.50196048  1
  O  O180  1  0.86387378  0.25282428  0.00026170  1
  O  O181  1  0.83975578  0.23642264  0.52968688  1
  O  O182  1  0.86864279  0.77938942  0.00957724  1
  O  O183  1  0.87119815  0.75573947  0.50168870  1
  O  O184  1  0.13206625  0.28782639  0.45878106  1
  O  O185  1  0.12281807  0.24008120  1.00114492  1
  O  O186  1  0.15098661  0.74151706  0.49328826  1
  O  O187  1  0.15596566  0.76024145  1.02554658  1
  O  O188  1  0.65127552  0.22676420  0.50082119  1
  O  O189  1  0.63902994  0.23818117  1.00947379  1
  O  O190  1  0.64020312  0.75533633  0.50359506  1
  O  O191  1  0.64394621  0.76033775  1.01309820  1
  O  O192  1  0.49441906  0.24269509  0.13048238  1
  O  O193  1  0.49166843  0.23232327  0.59764575  1
  O  O194  1  0.49765357  0.74045705  0.13041721  1
  O  O195  1  0.50669138  0.74297216  0.62557662  1
  O  O196  1  1.00312161  0.25791655  0.10710151  1
  O  O197  1  1.01433246  0.23904963  0.60116038  1
  O  O198  1  0.99331366  0.76382205  0.13988592  1
  O  O199  1  0.98959068  0.73884280  0.61775736  1
  O  O200  1  -0.01487157  0.23518752  0.40418335  1
  O  O201  1  0.00584612  0.25321330  0.86519472  1
  O  O202  1  -0.01721962  0.72424777  0.34339959  1
  O  O203  1  0.03073535  0.74811247  0.95675659  1
  O  O204  1  0.51030041  0.26262319  0.35811550  1
  O  O205  1  0.46229570  0.26223228  0.86444354  1
  O  O206  1  0.51005486  0.75285664  0.35875096  1
  O  O207  1  0.47839179  0.77588652  0.88170081  1
  O  O208  1  0.21697562  0.16998503  0.52170241  1
  O  O209  1  0.23385140  0.11965346  0.99499665  1
  O  O210  1  0.29761921  0.65914857  0.49502101  1
  O  O211  1  0.24701388  0.64414675  1.00887571  1
  O  O212  1  0.76560123  0.12154769  0.46619220  1
  O  O213  1  0.74686819  0.14093112  0.98917797  1
  O  O214  1  0.75065843  0.63722365  0.48849207  1
  O  O215  1  0.75619786  0.64444922  0.99567996  1
  O  O216  1  0.23737248  0.38779261  0.05150084  1
  O  O217  1  0.25257863  0.37657486  0.49269411  1
  O  O218  1  0.27157487  0.86247737  0.00575529  1
  O  O219  1  0.26375280  0.85706076  0.49619488  1
  O  O220  1  0.75223737  0.35597941  -0.01152308  1
  O  O221  1  0.73779470  0.35693468  0.50646574  1
  O  O222  1  0.75913009  0.88915469  0.01180015  1
  O  O223  1  0.76486842  0.85485651  0.49065484  1
  O  O224  1  0.08718713  0.44536995  0.21267986  1
  O  O225  1  0.14285995  0.52144337  0.74263190  1
  O  O226  1  0.08760377  1.00420751  0.23242009  1
  O  O227  1  0.09836863  0.97660391  0.75514432  1
  O  O228  1  0.62729115  0.48815670  0.23434147  1
  O  O229  1  0.64459809  0.49144454  0.75213591  1
  O  O230  1  0.62429226  0.99083455  0.23717826  1
  O  O231  1  0.63894278  1.00966575  0.74023584  1
  O  O232  1  0.36552002  0.00485102  0.25348746  1
  O  O233  1  0.36764501  0.00711042  0.76075255  1
  O  O234  1  0.38462487  0.49666468  0.26700613  1
  O  O235  1  0.36381148  0.50886379  0.74909641  1
  O  O236  1  0.87572297  0.01670501  0.25195549  1
  O  O237  1  0.86691514  0.01155884  0.76404387  1
  O  O238  1  0.87388380  0.49743043  0.25140055  1
  O  O239  1  0.85137470  0.47867448  0.74907019  1
  O  O240  1  0.19990718  0.41409472  0.29596140  1
  O  O241  1  0.16697611  0.38262454  0.90161397  1
  O  O242  1  0.11344723  0.83732093  0.38466494  1
  O  O243  1  0.13072171  0.85688142  0.86631891  1
  O  O244  1  0.61775582  0.38447153  0.35415655  1
  O  O245  1  0.59078297  0.36394251  0.88925909  1
  O  O246  1  0.61884575  0.87831428  0.35673754  1
  O  O247  1  0.60477494  0.89210663  0.88804025  1
  O  O248  1  0.39106171  0.12759985  0.12609232  1
  O  O249  1  0.35816209  0.13466460  0.62905934  1
  O  O250  1  0.39325952  0.63681579  0.13087132  1
  O  O251  1  0.39244263  0.62265073  0.63547704  1
  O  O252  1  0.88144492  0.15281329  0.12408580  1
  O  O253  1  0.86943236  0.11535940  0.63518870  1
  O  O254  1  0.89385244  0.65497364  0.11131020  1
  O  O255  1  0.88588642  0.63363113  0.61736901  1
  O  O256  1  0.26793206  0.23573883  0.15720061  1
  O  O257  1  0.20158575  0.21931902  0.58278590  1
  O  O258  1  0.27382093  0.74099115  0.14254893  1
  O  O259  1  0.24431594  0.76117066  0.62593979  1
  O  O260  1  0.75200798  0.25082869  0.11805295  1
  O  O261  1  0.71497849  0.27758970  0.65014885  1
  O  O262  1  0.76765966  0.75012891  0.11737262  1
  O  O263  1  0.76195155  0.73669907  0.60564090  1
  O  O264  1  0.26180069  0.25295824  0.38055721  1
  O  O265  1  0.26432543  0.23304176  0.87915265  1
  O  O266  1  0.24921486  0.74371997  0.35740146  1
  O  O267  1  0.26900842  0.75080142  0.89069353  1
  O  O268  1  0.77021073  0.25552978  0.37836773  1
  O  O269  1  0.74697194  0.23743885  0.86183311  1
  O  O270  1  0.75234338  0.73504076  0.38288078  1
  O  O271  1  0.75762191  0.76978951  0.89547134  1
  O  O272  1  0.01506060  0.11552999  -0.01250176  1
  O  O273  1  -0.00560416  0.09336869  0.52152705  1
  O  O274  1  -0.00402023  0.61033558  -0.00156425  1
  O  O275  1  -0.00224882  0.61292610  0.50744670  1
  O  O276  1  0.51362518  0.13710646  0.01125220  1
  O  O277  1  0.49500723  0.12171040  0.45912439  1
  O  O278  1  0.50772872  0.63113808  0.01463624  1
  O  O279  1  0.50138410  0.61156520  0.52085335  1
  O  O280  1  0.51529595  0.37215072  0.48296206  1
  O  O281  1  0.50357659  0.36893144  0.98071597  1
  O  O282  1  0.50709309  0.86146822  0.47976331  1
  O  O283  1  0.48382574  0.87772627  0.99725059  1
  O  O284  1  1.01445603  0.40937262  0.49936249  1
  O  O285  1  0.98831860  0.38178479  0.98380182  1
  O  O286  1  0.98884247  0.87045497  0.49745599  1
  O  O287  1  0.97955474  0.90044822  0.99642060  1
  O  O288  1  0.50096120  0.48975440  0.38111324  1
  O  O289  1  0.48185019  0.49898337  0.87986437  1
  O  O290  1  0.49773132  0.98182270  0.36769707  1
  O  O291  1  0.48209795  0.99833228  0.87740789  1
  O  O292  1  0.98007901  0.51334032  0.38210222  1
  O  O293  1  1.00918034  0.50339924  0.88260544  1
  O  O294  1  1.02180672  1.00135759  0.39205139  1
  O  O295  1  0.97950574  1.01217816  0.88296535  1
  O  O296  1  0.00292949  0.01037838  0.10602658  1
  O  O297  1  -0.00374928  -0.01926116  0.63251531  1
  O  O298  1  -0.02922422  0.51064589  0.10667169  1
  O  O299  1  0.00626308  0.51367187  0.62105353  1
  O  O300  1  0.50800478  0.01992062  0.13445139  1
  O  O301  1  0.50789018  0.00078476  0.62289813  1
  O  O302  1  0.49474210  0.51770387  0.12747760  1
  O  O303  1  0.48917858  0.47558816  0.60889231  1
  O  O304  1  0.24771034  0.37949897  0.25234411  1
  O  O305  1  0.24813199  0.39871309  0.75039911  1
  O  O306  1  0.25103280  0.89197241  0.24371879  1
  O  O307  1  0.16522952  0.82007002  0.80632289  1
  O  O308  1  0.74039680  0.36853175  0.25056533  1
  O  O309  1  0.76293390  0.39367988  0.73383832  1
  O  O310  1  0.73431196  0.86730473  0.24868409  1
  O  O311  1  0.75543377  0.89291231  0.76387238  1
  O  O312  1  0.21767360  0.09122202  0.26298584  1
  O  O313  1  0.24546901  0.11890657  0.77483878  1
  O  O314  1  0.21982365  0.55761794  0.21380778  1
  O  O315  1  0.26875418  0.62560195  0.74146822  1
  O  O316  1  0.74982622  0.12751464  0.26713741  1
  O  O317  1  0.76043319  0.12147074  0.75843464  1
  O  O318  1  0.74778124  0.63577402  0.26223620  1
  O  O319  1  0.75566420  0.60452062  0.75028982  1
  O  O320  1  0.37419412  0.06942133  0.45897354  1
  O  O321  1  0.36400224  0.10972028  0.89215885  1
  O  O322  1  0.40328313  0.61860272  0.36671605  1
  O  O323  1  0.38766047  0.61813356  0.85670608  1
  O  O324  1  0.87493452  0.09969574  0.35398771  1
  O  O325  1  0.86037554  0.12130925  0.87575422  1
  O  O326  1  0.86057655  0.60895987  0.37465132  1
  O  O327  1  0.88134343  0.63527840  0.86962999  1
  O  O328  1  0.18788176  0.37061081  0.10127709  1
  O  O329  1  0.12288018  0.40629307  0.62629899  1
  O  O330  1  0.11354744  0.89581877  0.11999380  1
  O  O331  1  0.12036228  0.87094963  0.63703507  1
  O  O332  1  0.62424986  0.38912773  0.13154141  1
  O  O333  1  0.65148718  0.33398620  0.64136337  1
  O  O334  1  0.62053388  0.89727855  0.12552652  1
  O  O335  1  0.62491436  0.89181376  0.63401143  1
  O  O336  1  0.10916963  0.24036683  0.28110631  1
  O  O337  1  0.09785952  0.22773809  0.73346378  1
  O  O338  1  0.10943010  0.75277714  0.25167550  1
  O  O339  1  0.12413315  0.75869225  0.77930346  1
  O  O340  1  0.61717527  0.26762322  0.23321983  1
  O  O341  1  0.57456208  0.20582151  0.74666793  1
  O  O342  1  0.61674547  0.76824695  0.22939012  1
  O  O343  1  0.63912798  0.76148490  0.75740696  1
  O  O344  1  0.40101338  0.24651327  0.24243487  1
  O  O345  1  0.36679397  0.27226699  0.71005996  1
  O  O346  1  0.39726090  0.75639427  0.24096738  1
  O  O347  1  0.37964087  0.73750174  0.74516199  1
  O  O348  1  0.90235210  0.27693609  0.22846356  1
  O  O349  1  0.88530275  0.23397186  0.74467718  1
  O  O350  1  0.87949929  0.76277108  0.23397285  1
  O  O351  1  0.85625613  0.74407720  0.72697245  1
  O  O352  1  0.39539287  0.50025892  0.48271777  1
  O  O353  1  0.35989786  0.51386784  0.98575223  1
  O  O354  1  0.44281544  1.06904949  0.48826668  1
  O  O355  1  0.36805895  0.99012618  1.02563467  1
  O  O356  1  0.88256705  0.49662420  0.50507330  1
  O  O357  1  0.87688368  0.48279835  0.98709527  1
  O  O358  1  0.88633452  0.97649439  0.50053644  1
  O  O359  1  0.87621742  1.00754868  0.99874961  1
  O  O360  1  0.11205252  -0.00760929  -0.00484585  1
  O  O361  1  0.10551890  -0.02777860  0.51992670  1
  O  O362  1  0.10036132  0.49305169  0.01220346  1
  O  O363  1  0.12950104  0.52069487  0.51643062  1
  O  O364  1  0.63130874  0.02047981  0.01344910  1
  O  O365  1  0.63077059  -0.00857937  0.51263399  1
  O  O366  1  0.63296181  0.49553896  0.01849598  1
  O  O367  1  0.60838576  0.49270460  0.49854925  1
  O  O368  1  0.37288201  0.36020565  0.13620469  1
  O  O369  1  0.35823186  0.33300026  0.65310392  1
  O  O370  1  0.38920036  0.86156766  0.12231726  1
  O  O371  1  0.34398828  0.89940467  0.63596931  1
  O  O372  1  0.87394396  0.36118765  0.09388900  1
  O  O373  1  0.86007020  0.37282389  0.61475428  1
  O  O374  1  0.87928120  0.88017557  0.12091433  1
  O  O375  1  0.87513767  0.85389662  0.61293087  1
  O  O376  1  0.11410643  0.13533870  0.40551269  1
  O  O377  1  0.13713453  0.12162265  0.88856197  1
  O  O378  1  0.12283734  0.64258266  0.37001684  1
  O  O379  1  0.12455278  0.62181262  0.90176969  1
  O  O380  1  0.63802390  0.10365807  0.37835763  1
  O  O381  1  0.63562900  0.11970100  0.89094050  1
  O  O382  1  0.63902291  0.61274178  0.37459374  1
  O  O383  1  0.61527595  0.72158550  0.81326020  1
