# generated using pymatgen
data_VZnO4
_symmetry_space_group_name_H-M   'P 1'
_cell_length_a   16.87115887
_cell_length_b   16.93009128
_cell_length_c   16.89318752
_cell_angle_alpha   90.07597160
_cell_angle_beta   89.81416202
_cell_angle_gamma   89.99708107
_symmetry_Int_Tables_number   1
_chemical_formula_structural   VZnO4
_chemical_formula_sum   'V64 Zn64 O256'
_cell_volume   4825.17590872
_cell_formula_units_Z   64
loop_
 _symmetry_equiv_pos_site_id
 _symmetry_equiv_pos_as_xyz
  1  'x, y, z'
loop_
 _atom_site_type_symbol
 _atom_site_label
 _atom_site_symmetry_multiplicity
 _atom_site_fract_x
 _atom_site_fract_y
 _atom_site_fract_z
 _atom_site_occupancy
  V  V0  1  0.61697303  0.23880163  0.85432342  1
  V  V1  1  0.36865394  0.23879009  0.11610483  1
  V  V2  1  0.00154290  0.74761256  0.25832846  1
  V  V3  1  0.13181394  0.50484412  0.12011168  1
  V  V4  1  0.24969528  0.85730126  0.62403713  1
  V  V5  1  0.85483163  0.61549979  0.74768155  1
  V  V6  1  0.74341689  0.75447632  -0.00211131  1
  V  V7  1  0.49528019  0.37538026  0.87779269  1
  V  V8  1  0.13056537  0.62667968  0.48964862  1
  V  V9  1  0.00139726  0.25268391  0.26989121  1
  V  V10  1  0.11400529  0.63352310  -0.01570716  1
  V  V11  1  0.89032941  0.88273642  0.48659883  1
  V  V12  1  0.36882216  0.12185277  0.26463396  1
  V  V13  1  0.10929764  0.00919840  0.62454967  1
  V  V14  1  0.64412810  0.00362145  0.12401466  1
  V  V15  1  0.62803075  0.13242825  0.00160585  1
  V  V16  1  0.25644254  -0.00451482  0.26364546  1
  V  V17  1  0.37687477  0.38920437  0.00084498  1
  V  V18  1  0.75261858  0.38340285  0.62017467  1
  V  V19  1  0.87636310  0.75495232  0.62576252  1
  V  V20  1  0.87718540  0.24615618  0.61835894  1
  V  V21  1  0.75120257  0.62103419  0.37417059  1
  V  V22  1  0.62687163  0.75632913  0.37168533  1
  V  V23  1  0.12071710  0.87321162  0.24749186  1
  V  V24  1  0.87440448  0.61798707  0.24825568  1
  V  V25  1  0.24657590  0.36991795  0.12894567  1
  V  V26  1  0.13561963  0.49486218  0.63191651  1
  V  V27  1  0.52246157  0.88883181  0.88388489  1
  V  V28  1  0.38759095  0.88882434  -0.00501804  1
  V  V29  1  0.62704578  0.73755880  0.86206392  1
  V  V30  1  0.37822146  0.62033454  0.24977185  1
  V  V31  1  0.49942324  0.75851034  0.23919852  1
  V  V32  1  0.14126336  0.74725054  0.37562225  1
  V  V33  1  0.01569097  0.13968676  0.10198932  1
  V  V34  1  0.48988262  0.61465605  0.62761534  1
  V  V35  1  0.76814006  0.13677465  0.87448293  1
  V  V36  1  -0.03015241  0.39196614  0.87329038  1
  V  V37  1  0.62392731  0.40429050  0.75086704  1
  V  V38  1  0.23921060  0.01294158  0.76155536  1
  V  V39  1  0.00777420  0.88363174  0.89169378  1
  V  V40  1  0.50061922  -0.00647031  0.50581023  1
  V  V41  1  0.49392346  0.10942417  0.12203549  1
  V  V42  1  0.51916996  0.49879943  0.45963327  1
  V  V43  1  0.75243918  0.00148756  0.75889744  1
  V  V44  1  0.49686156  0.25350575  0.26562900  1
  V  V45  1  0.11079965  0.84349803  0.74903287  1
  V  V46  1  0.86941397  0.25983862  0.11684014  1
  V  V47  1  0.37111387  0.26154728  0.62610644  1
  V  V48  1  0.87806925  0.77479318  0.12311897  1
  V  V49  1  0.74309129  0.88329429  0.62766937  1
  V  V50  1  0.75279536  0.75079896  0.49616131  1
  V  V51  1  0.26851306  0.73928136  0.00156578  1
  V  V52  1  0.51821391  0.60870714  0.12128893  1
  V  V53  1  -0.00327080  0.48635855  0.49678619  1
  V  V54  1  0.26325763  0.87363061  0.12377495  1
  V  V55  1  0.87858903  0.48590151  0.37332777  1
  V  V56  1  0.25259246  0.50596128  0.25670387  1
  V  V57  1  0.38730330  0.12106258  0.74834033  1
  V  V58  1  0.24446542  0.20937318  0.50262584  1
  V  V59  1  0.64606396  0.88460312  0.24852504  1
  V  V60  1  0.48283566  0.76063289  0.75133949  1
  V  V61  1  0.00510570  0.24677940  0.75374373  1
  V  V62  1  0.00059810  0.61923166  0.12280494  1
  V  V63  1  -0.00426301  0.62680194  0.62400204  1
  Zn  Zn64  1  0.18089833  0.18909851  0.20219567  1
  Zn  Zn65  1  0.18370449  0.19263794  0.68688643  1
  Zn  Zn66  1  0.19072213  0.68905265  0.18132341  1
  Zn  Zn67  1  0.18521556  0.66823174  0.68111233  1
  Zn  Zn68  1  0.67831181  0.20054268  0.18548019  1
  Zn  Zn69  1  0.70619934  0.19035643  0.69245988  1
  Zn  Zn70  1  0.69284758  0.69242321  0.18527181  1
  Zn  Zn71  1  0.67161031  0.67780629  0.67840123  1
  Zn  Zn72  1  0.14446708  0.27354072  0.38451762  1
  Zn  Zn73  1  0.33040669  0.26263025  0.84415153  1
  Zn  Zn74  1  0.31371736  0.80168032  0.30917292  1
  Zn  Zn75  1  0.27507668  0.75154631  0.78969433  1
  Zn  Zn76  1  0.82472501  0.33937650  0.26009818  1
  Zn  Zn77  1  0.81236494  0.31712159  0.79704997  1
  Zn  Zn78  1  0.82068728  0.81414890  0.30940865  1
  Zn  Zn79  1  0.80644893  0.80623762  0.80792093  1
  Zn  Zn80  1  0.18603371  0.44210223  0.43823224  1
  Zn  Zn81  1  0.21606102  0.46233962  0.95206914  1
  Zn  Zn82  1  0.18103388  0.93476243  0.44540121  1
  Zn  Zn83  1  0.22463366  0.88212753  0.89453677  1
  Zn  Zn84  1  0.70546380  0.45363194  0.47887957  1
  Zn  Zn85  1  0.69702488  0.38725032  0.94777832  1
  Zn  Zn86  1  0.69125314  0.93927267  0.44434544  1
  Zn  Zn87  1  0.75527843  0.96175840  0.96958616  1
  Zn  Zn88  1  0.30140168  0.05244337  0.06768694  1
  Zn  Zn89  1  0.30555238  0.04778163  0.58115375  1
  Zn  Zn90  1  0.32663816  0.57018804  0.07114696  1
  Zn  Zn91  1  0.31605069  0.57321951  0.56597645  1
  Zn  Zn92  1  0.81767298  0.08823551  0.07095218  1
  Zn  Zn93  1  0.89730231  0.03903234  0.60904126  1
  Zn  Zn94  1  0.80206820  0.57798844  0.06081900  1
  Zn  Zn95  1  0.81357352  0.56201319  0.56090840  1
  Zn  Zn96  1  0.43772327  0.43509631  0.19110677  1
  Zn  Zn97  1  0.42687242  0.43280620  0.69933551  1
  Zn  Zn98  1  0.44077576  0.93607535  0.18957125  1
  Zn  Zn99  1  0.42714613  0.93239523  0.70394364  1
  Zn  Zn100  1  0.95563826  0.42929374  0.18802160  1
  Zn  Zn101  1  0.94007997  0.43688841  0.69124331  1
  Zn  Zn102  1  0.94090086  0.95569030  0.06262815  1
  Zn  Zn103  1  0.95093647  0.96502885  0.74540893  1
  Zn  Zn104  1  0.04285759  0.04090992  0.23063543  1
  Zn  Zn105  1  0.06508064  0.06198546  0.82218537  1
  Zn  Zn106  1  0.06341137  0.55453742  0.31028107  1
  Zn  Zn107  1  0.05150906  0.56021166  0.80971064  1
  Zn  Zn108  1  0.55371945  0.05774105  0.31517597  1
  Zn  Zn109  1  0.57345344  0.05547667  0.80559118  1
  Zn  Zn110  1  0.57320218  0.56202687  0.29612473  1
  Zn  Zn111  1  0.52906600  0.57343623  0.82651574  1
  Zn  Zn112  1  0.43106287  0.18730221  0.44641500  1
  Zn  Zn113  1  0.44137390  0.16795794  0.93677401  1
  Zn  Zn114  1  0.45132521  0.67048401  0.42909342  1
  Zn  Zn115  1  0.44843119  0.68892710  0.94285947  1
  Zn  Zn116  1  0.88194394  0.22591267  0.42016787  1
  Zn  Zn117  1  0.94151649  0.21632041  0.94037579  1
  Zn  Zn118  1  0.93818609  0.68439805  0.43966013  1
  Zn  Zn119  1  0.91260714  0.67741198  0.94323727  1
  Zn  Zn120  1  0.06083917  0.31763149  0.04929666  1
  Zn  Zn121  1  0.07404119  0.30314725  0.57352317  1
  Zn  Zn122  1  0.06771775  0.80816489  0.06514522  1
  Zn  Zn123  1  0.06630545  0.81475786  0.56038339  1
  Zn  Zn124  1  0.54664432  0.29261826  0.06237921  1
  Zn  Zn125  1  0.54213791  0.33414672  0.57902665  1
  Zn  Zn126  1  0.57267096  0.81775197  0.06528770  1
  Zn  Zn127  1  0.56702794  0.78729781  0.57316953  1
  O  O128  1  0.11863245  0.14751087  0.11560798  1
  O  O129  1  0.12594567  0.10722617  0.62688074  1
  O  O130  1  0.11584838  0.62274190  0.11937331  1
  O  O131  1  0.10824664  0.62437835  0.60840788  1
  O  O132  1  0.61580175  0.11872020  0.12219664  1
  O  O133  1  0.64675679  0.15864694  0.58679932  1
  O  O134  1  0.62118351  0.61775212  0.14210960  1
  O  O135  1  0.58521863  0.66709847  0.60546575  1
  O  O136  1  0.34528719  0.42740940  0.47017138  1
  O  O137  1  0.38268623  0.36021083  0.88824438  1
  O  O138  1  0.37235189  0.82534547  0.41484328  1
  O  O139  1  0.38624043  0.88172682  0.89606193  1
  O  O140  1  0.85970287  0.38888333  0.36310585  1
  O  O141  1  0.86743273  0.37539191  0.87891880  1
  O  O142  1  0.87025356  0.87868310  0.38648533  1
  O  O143  1  0.89909327  0.84203016  0.87967560  1
  O  O144  1  0.24734752  -0.01585280  0.36227546  1
  O  O145  1  0.24135724  -0.01292582  0.86015254  1
  O  O146  1  0.24510900  0.50166453  0.35472057  1
  O  O147  1  0.24701977  0.50751713  0.85089558  1
  O  O148  1  0.76150541  0.01812141  0.39134602  1
  O  O149  1  0.75797437  0.01318846  0.86402488  1
  O  O150  1  0.76594814  0.51466241  0.38433494  1
  O  O151  1  0.72969756  0.49896089  0.88748442  1
  O  O152  1  0.24740208  0.49661359  0.12367904  1
  O  O153  1  0.23378746  0.52327428  0.62848279  1
  O  O154  1  0.24545483  0.97859589  0.13859496  1
  O  O155  1  0.23197473  0.98365336  0.64657354  1
  O  O156  1  0.75960558  0.47213177  0.07499354  1
  O  O157  1  0.73680958  0.48848934  0.59714670  1
  O  O158  1  0.73825473  1.02792093  0.14459568  1
  O  O159  1  0.74361106  0.98050171  0.61308491  1
  O  O160  1  0.01266078  0.35467457  0.25128880  1
  O  O161  1  -0.00225503  0.37666930  0.76631436  1
  O  O162  1  0.01947758  0.86360382  0.24702279  1
  O  O163  1  0.00805271  0.86863599  0.76029625  1
  O  O164  1  0.48509144  0.35174648  0.24767771  1
  O  O165  1  0.50730197  0.37577112  0.76878608  1
  O  O166  1  0.50806513  0.86238786  0.24823357  1
  O  O167  1  0.49673016  0.87520259  0.77696040  1
  O  O168  1  0.48244226  0.11621615  0.24456379  1
  O  O169  1  0.48679725  0.10867014  0.75223633  1
  O  O170  1  0.49765074  0.63477784  0.24289435  1
  O  O171  1  0.49982101  0.64894464  0.73421897  1
  O  O172  1  1.00718046  0.14709356  0.22875453  1
  O  O173  1  1.00730066  0.14529573  0.76939740  1
  O  O174  1  0.99497846  0.62872112  0.24246170  1
  O  O175  1  0.99144899  0.62220944  0.72530406  1
  O  O176  1  0.37172321  0.23781675  0.01411324  1
  O  O177  1  0.35768524  0.23688046  0.51575682  1
  O  O178  1  0.37129479  0.75591565  0.00198248  1
  O  O179  1  0.38273048  0.77014400  0.46552014  1
  O  O180  1  0.87277308  0.27089402  0.01622015  1
  O  O181  1  0.87562899  0.27385218  0.51963092  1
  O  O182  1  0.89917479  0.76115472  0.02590205  1
  O  O183  1  0.86787815  0.75558096  0.50090949  1
  O  O184  1  0.13801160  0.24202607  0.50181434  1
  O  O185  1  0.14836033  0.25573032  0.97829024  1
  O  O186  1  0.11857081  0.73956237  0.48395820  1
  O  O187  1  0.13536480  0.73426799  1.00587682  1
  O  O188  1  0.62972928  0.21177907  0.53785587  1
  O  O189  1  0.62922949  0.23762237  1.00202327  1
  O  O190  1  0.63536130  0.75812184  0.47771488  1
  O  O191  1  0.64173110  0.74521014  1.00463273  1
  O  O192  1  0.48529432  0.22912491  0.13468257  1
  O  O193  1  0.47432997  0.25209696  0.61441312  1
  O  O194  1  0.51668982  0.74527471  0.13883169  1
  O  O195  1  0.48436338  0.78479700  0.65268046  1
  O  O196  1  0.99694738  0.25520579  0.12042726  1
  O  O197  1  0.98583513  0.26283315  0.63487123  1
  O  O198  1  0.99678371  0.74010642  0.13820797  1
  O  O199  1  0.98520347  0.73771408  0.61164445  1
  O  O200  1  -0.01859494  0.24055081  0.37006222  1
  O  O201  1  -0.00200820  0.27231203  0.85995857  1
  O  O202  1  0.00247751  0.74270867  0.36064019  1
  O  O203  1  -0.03899354  0.78135859  0.87975383  1
  O  O204  1  0.48825219  0.24164570  0.36578141  1
  O  O205  1  0.51546851  0.25353919  0.88324211  1
  O  O206  1  0.52330887  0.74008375  0.36173875  1
  O  O207  1  0.51506691  0.75993110  0.87311486  1
  O  O208  1  0.24935058  0.10808834  0.50149828  1
  O  O209  1  0.23490844  0.10979772  0.98838733  1
  O  O210  1  0.22908476  0.62014574  0.49867794  1
  O  O211  1  0.25561169  0.63632794  1.00249989  1
  O  O212  1  0.78284548  0.08004513  0.43694373  1
  O  O213  1  0.74045244  0.12379420  0.98209107  1
  O  O214  1  0.75803813  0.63642674  0.48195273  1
  O  O215  1  0.79480561  0.65698099  0.98466134  1
  O  O216  1  0.26587086  0.37719475  0.00886465  1
  O  O217  1  0.27605507  0.41486496  0.50710180  1
  O  O218  1  0.26479050  0.87309923  0.01382489  1
  O  O219  1  0.24019074  0.87626975  0.52366161  1
  O  O220  1  0.78200109  0.41619677  0.02417603  1
  O  O221  1  0.72713390  0.35378812  0.52316758  1
  O  O222  1  0.76384803  0.85228531  -0.00358071  1
  O  O223  1  0.75903294  0.86570593  0.50622135  1
  O  O224  1  0.14197850  0.51428651  0.23382376  1
  O  O225  1  0.11340607  0.50733784  0.72948857  1
  O  O226  1  0.13436880  0.97905391  0.25663313  1
  O  O227  1  0.12792011  0.99400385  0.74857838  1
  O  O228  1  0.65013564  0.48829078  0.23937585  1
  O  O229  1  0.61048019  0.50089926  0.76457597  1
  O  O230  1  0.62063083  0.98820022  0.25008657  1
  O  O231  1  0.65274970  1.01065027  0.73817406  1
  O  O232  1  0.36409804  0.00197052  0.25062300  1
  O  O233  1  0.35484069  0.01388755  0.75061476  1
  O  O234  1  0.36570332  0.51041183  0.24531893  1
  O  O235  1  0.35270598  0.50103965  0.76978862  1
  O  O236  1  0.85999137  0.02620746  0.25911979  1
  O  O237  1  0.85335346  0.01274242  0.71808462  1
  O  O238  1  0.88796640  0.50797130  0.26384452  1
  O  O239  1  0.86828121  0.51718904  0.73425892  1
  O  O240  1  0.11523058  0.38089898  0.38307387  1
  O  O241  1  0.16923675  0.29706419  0.91491069  1
  O  O242  1  0.13447543  0.85534396  0.36418958  1
  O  O243  1  0.10939467  0.86407416  0.86738746  1
  O  O244  1  0.67203514  0.42383960  0.28046227  1
  O  O245  1  0.62189031  0.35746686  0.86619570  1
  O  O246  1  0.63708474  0.86680469  0.36297976  1
  O  O247  1  0.62001540  0.86326931  0.88683657  1
  O  O248  1  0.37641315  0.12097371  0.12591180  1
  O  O249  1  0.36708383  0.12443321  0.64307487  1
  O  O250  1  0.39723293  0.62712820  0.13884301  1
  O  O251  1  0.39250518  0.64374538  0.61125059  1
  O  O252  1  0.89570902  0.15077935  0.12026609  1
  O  O253  1  0.86637044  0.14688752  0.60926982  1
  O  O254  1  0.88669432  0.61454829  0.13242518  1
  O  O255  1  0.88014239  0.63291626  0.62141210  1
  O  O256  1  0.25343205  0.26442372  0.13830604  1
  O  O257  1  0.25396818  0.24182674  0.61080782  1
  O  O258  1  0.25137552  0.76096751  0.11384300  1
  O  O259  1  0.23887997  0.75572899  0.62720902  1
  O  O260  1  0.76788858  0.24070545  0.13765351  1
  O  O261  1  0.76656970  0.26996189  0.64370453  1
  O  O262  1  0.77039960  0.74713158  0.11547875  1
  O  O263  1  0.75957684  0.74416329  0.60882436  1
  O  O264  1  0.25510112  0.23992963  0.40466822  1
  O  O265  1  0.21238303  0.25716354  0.86130530  1
  O  O266  1  0.23941973  0.73700508  0.36905965  1
  O  O267  1  0.24822891  0.76859661  0.90317346  1
  O  O268  1  0.76706539  0.23353931  0.35149951  1
  O  O269  1  0.73358110  0.24247534  0.86580369  1
  O  O270  1  0.74934275  0.74347773  0.37680867  1
  O  O271  1  0.73558988  0.75333551  0.88127959  1
  O  O272  1  0.00554894  0.14383325  0.00101359  1
  O  O273  1  0.02319999  0.09174813  0.43779295  1
  O  O274  1  0.00689441  0.63212350  0.00797293  1
  O  O275  1  0.00313809  0.61658104  0.50458563  1
  O  O276  1  0.51283242  0.12133587  0.01080351  1
  O  O277  1  0.49317917  0.09810679  0.50265635  1
  O  O278  1  0.50805044  0.63154844  0.02382919  1
  O  O279  1  0.49015945  0.59652784  0.50421667  1
  O  O280  1  0.51292048  0.40428868  0.49895271  1
  O  O281  1  0.48242255  0.36050080  0.99601261  1
  O  O282  1  0.50921736  0.88881042  0.51052667  1
  O  O283  1  0.49583324  0.86983664  0.99769372  1
  O  O284  1  1.00470884  0.38994706  0.50685469  1
  O  O285  1  1.01747761  0.37814394  0.96562998  1
  O  O286  1  0.98894622  0.86217518  0.49342628  1
  O  O287  1  1.01656216  0.88835195  0.99740448  1
  O  O288  1  0.49879405  0.50048908  0.35993713  1
  O  O289  1  0.51148448  0.47102408  0.89313632  1
  O  O290  1  0.49210776  0.98596588  0.40122165  1
  O  O291  1  0.52309082  0.98905813  0.88410557  1
  O  O292  1  0.98990101  0.50035090  0.38292040  1
  O  O293  1  0.98297646  0.49378275  0.86834436  1
  O  O294  1  0.92151328  1.01123542  0.29511215  1
  O  O295  1  0.98734352  0.98239401  0.86353557  1
  O  O296  1  0.00436853  0.03115664  0.12122970  1
  O  O297  1  0.00452432  0.00259071  0.64522064  1
  O  O298  1  0.01681597  0.50836944  0.12989420  1
  O  O299  1  -0.00042458  0.51030296  0.61009344  1
  O  O300  1  0.51224562  0.00684220  0.13174081  1
  O  O301  1  0.50100029  -0.00820658  0.61229507  1
  O  O302  1  0.50362823  0.50819351  0.13459851  1
  O  O303  1  0.48843748  0.51543181  0.64704389  1
  O  O304  1  0.25665405  0.39664330  0.22917384  1
  O  O305  1  0.29117808  0.46253989  0.79952546  1
  O  O306  1  0.25302149  0.87552754  0.24433630  1
  O  O307  1  0.22363309  0.85782780  0.75519590  1
  O  O308  1  0.71348119  0.37267353  0.23512942  1
  O  O309  1  0.73032787  0.38703946  0.74625669  1
  O  O310  1  0.74565395  0.87963989  0.24908332  1
  O  O311  1  0.76007008  0.88893688  0.74095034  1
  O  O312  1  0.25603423  0.10459311  0.24576739  1
  O  O313  1  0.23669736  0.11431571  0.75907891  1
  O  O314  1  0.26645123  0.61911592  0.23565670  1
  O  O315  1  0.24454148  0.64622028  0.76997604  1
  O  O316  1  0.73440164  0.17477810  0.31877019  1
  O  O317  1  0.75331725  0.12033036  0.76672823  1
  O  O318  1  0.76663525  0.62924933  0.25662229  1
  O  O319  1  0.75424814  0.62839398  0.73613697  1
  O  O320  1  0.37379249  0.12193836  0.36244784  1
  O  O321  1  0.36688283  0.15093450  0.85633557  1
  O  O322  1  0.37983670  0.63086408  0.35091399  1
  O  O323  1  0.42833766  0.60455448  0.87169287  1
  O  O324  1  0.85481014  0.10752032  0.41860919  1
  O  O325  1  0.86475497  0.14640695  0.88316520  1
  O  O326  1  0.86867256  0.62408095  0.36451291  1
  O  O327  1  0.88234535  0.63686254  0.84297484  1
  O  O328  1  0.14174041  0.38713231  0.11003666  1
  O  O329  1  0.13249657  0.39699120  0.61146511  1
  O  O330  1  0.13934580  0.86128453  0.14280425  1
  O  O331  1  0.12239776  0.87290625  0.64148922  1
  O  O332  1  0.61678366  0.38689087  0.09943599  1
  O  O333  1  0.62114330  0.37875011  0.64873733  1
  O  O334  1  0.63192595  0.89242274  0.13528808  1
  O  O335  1  0.64683099  0.85503815  0.62371578  1
  O  O336  1  0.11505116  0.23454456  0.28151758  1
  O  O337  1  0.10491656  0.26282274  0.72876480  1
  O  O338  1  0.12239577  0.74837674  0.25926518  1
  O  O339  1  0.10620448  0.74564498  0.74377694  1
  O  O340  1  0.59701638  0.23719943  0.25006823  1
  O  O341  1  0.61499686  0.23472619  0.75468775  1
  O  O342  1  0.62772776  0.76729502  0.25284127  1
  O  O343  1  0.62055678  0.75095925  0.76052939  1
  O  O344  1  0.37716583  0.22579179  0.23867901  1
  O  O345  1  0.36199305  0.23534343  0.73474163  1
  O  O346  1  0.39378543  0.74614062  0.24924751  1
  O  O347  1  0.38726168  0.75670498  0.77604758  1
  O  O348  1  0.89369785  0.24777691  0.24303492  1
  O  O349  1  0.88794045  0.25667578  0.73659731  1
  O  O350  1  0.88335220  0.74156142  0.23971127  1
  O  O351  1  0.86586015  0.74322782  0.72721523  1
  O  O352  1  0.37978253  0.49774728  0.49285165  1
  O  O353  1  0.37685770  0.48809919  1.00120247  1
  O  O354  1  0.39466966  0.99158772  0.51455713  1
  O  O355  1  0.37972913  0.98777575  1.01102304  1
  O  O356  1  0.88582771  0.50165211  0.48519929  1
  O  O357  1  0.79807743  0.52024936  0.90494783  1
  O  O358  1  0.88419888  0.98004827  0.51312497  1
  O  O359  1  0.85358789  1.00077011  1.01045467  1
  O  O360  1  0.16826127  0.07398752  -0.03587091  1
  O  O361  1  0.11535396  -0.01560132  0.52529830  1
  O  O362  1  0.13961069  0.52480198  0.00760175  1
  O  O363  1  0.11238308  0.51327932  0.50162968  1
  O  O364  1  0.64642047  0.00698052  0.01950982  1
  O  O365  1  0.60582872  0.00031828  0.50266426  1
  O  O366  1  0.62092274  0.43408721  0.03987579  1
  O  O367  1  0.61939746  0.51736947  0.45781132  1
  O  O368  1  0.36868239  0.36455426  0.11355107  1
  O  O369  1  0.36429337  0.36287170  0.63705666  1
  O  O370  1  0.36837532  0.87281621  0.12347341  1
  O  O371  1  0.34716358  0.87607081  0.64616197  1
  O  O372  1  0.86945703  0.36557860  0.15165820  1
  O  O373  1  0.85529233  0.38711670  0.62733726  1
  O  O374  1  0.88858530  0.87206195  0.13567829  1
  O  O375  1  0.86552511  0.85775911  0.61427519  1
  O  O376  1  0.07548785  0.08114486  0.38807695  1
  O  O377  1  0.13229263  0.11439729  0.90808935  1
  O  O378  1  0.11747765  0.63153576  0.38150434  1
  O  O379  1  0.11122537  0.62623603  0.88547127  1
  O  O380  1  0.60877231  0.10334680  0.39761237  1
  O  O381  1  0.62352382  0.13319038  0.88221900  1
  O  O382  1  0.64723244  0.63990872  0.35341534  1
  O  O383  1  0.61644416  0.63924549  0.87467831  1
