# generated using pymatgen
data_VZnO4
_symmetry_space_group_name_H-M   'P 1'
_cell_length_a   16.94949639
_cell_length_b   16.97986931
_cell_length_c   16.93175715
_cell_angle_alpha   90.44090907
_cell_angle_beta   90.06921886
_cell_angle_gamma   90.13836238
_symmetry_Int_Tables_number   1
_chemical_formula_structural   VZnO4
_chemical_formula_sum   'V64 Zn64 O256'
_cell_volume   4872.80150761
_cell_formula_units_Z   64
loop_
 _symmetry_equiv_pos_site_id
 _symmetry_equiv_pos_as_xyz
  1  'x, y, z'
loop_
 _atom_site_type_symbol
 _atom_site_label
 _atom_site_symmetry_multiplicity
 _atom_site_fract_x
 _atom_site_fract_y
 _atom_site_fract_z
 _atom_site_occupancy
  V  V0  1  0.25151938  0.76826747  0.49684729  1
  V  V1  1  0.63140324  0.11943128  0.49896161  1
  V  V2  1  0.14161149  0.48814492  0.62342183  1
  V  V3  1  0.88783772  0.01135808  0.38758556  1
  V  V4  1  0.76233374  0.61695986  0.86448527  1
  V  V5  1  0.87458449  0.64868235  0.24934994  1
  V  V6  1  0.87387529  0.73207717  0.62449804  1
  V  V7  1  0.76462008  0.89276562  0.64694031  1
  V  V8  1  0.49417504  0.16933351  0.13139463  1
  V  V9  1  0.64199864  0.75625467  0.86240363  1
  V  V10  1  0.76158026  0.75596140  0.02393999  1
  V  V11  1  -0.00073223  0.63016571  0.12051809  1
  V  V12  1  0.10278385  -0.00266517  0.62257876  1
  V  V13  1  -0.00632925  0.87919509  0.86837596  1
  V  V14  1  0.87603904  0.22495194  0.63623902  1
  V  V15  1  0.60833107  -0.01792940  0.13427718  1
  V  V16  1  0.75340765  0.62123044  0.38197538  1
  V  V17  1  0.12968028  0.50633254  0.13894198  1
  V  V18  1  0.50875173  0.75015046  0.74133147  1
  V  V19  1  0.62448020  0.63602513  -0.00207980  1
  V  V20  1  0.36887333  0.76117393  0.61750646  1
  V  V21  1  0.38119313  0.13227408  0.26989469  1
  V  V22  1  0.61731636  -0.00429666  0.63066232  1
  V  V23  1  0.01775736  0.12176581  0.13312088  1
  V  V24  1  0.24726415  0.14157731  0.39282940  1
  V  V25  1  0.75969124  0.77336201  0.49137132  1
  V  V26  1  0.09926046  0.14245529  0.50707708  1
  V  V27  1  0.51788824  0.62906329  0.61521794  1
  V  V28  1  0.37001002  0.86952203  -0.01338983  1
  V  V29  1  0.02811392  0.38205438  0.36864905  1
  V  V30  1  0.50127295  0.37142336  0.34985568  1
  V  V31  1  0.64332427  0.23346543  0.85506551  1
  V  V32  1  0.09650619  0.24301558  0.88134239  1
  V  V33  1  0.24577461  -0.01581362  0.74133569  1
  V  V34  1  -0.00080037  0.50326309  0.49340505  1
  V  V35  1  0.36798644  0.61943190  0.74757565  1
  V  V36  1  0.86904319  0.38749830  0.00600443  1
  V  V37  1  0.62108541  0.47593016  0.64363859  1
  V  V38  1  0.25769626  0.34632818  0.60994621  1
  V  V39  1  0.25004234  0.87857136  0.12994546  1
  V  V40  1  0.36755589  0.73820731  0.10730667  1
  V  V41  1  0.50327070  0.51069543  0.47974161  1
  V  V42  1  0.24457591  0.61150150  0.37781881  1
  V  V43  1  0.36493998  0.63488713  0.26380104  1
  V  V44  1  -0.00874179  0.72339579  0.74906012  1
  V  V45  1  0.75108148  0.00821462  0.26781675  1
  V  V46  1  0.50533893  0.64065759  0.13328405  1
  V  V47  1  0.01684505  -0.00776270  0.02188614  1
  V  V48  1  0.38808601  0.36269551  0.49545925  1
  V  V49  1  0.86031993  0.24184793  0.12297008  1
  V  V50  1  0.50283129  0.00229426  -0.00632846  1
  V  V51  1  0.24605662  0.13491196  0.89325005  1
  V  V52  1  0.50655349  0.87341436  0.86789702  1
  V  V53  1  0.15674075  0.63321780  -0.04307727  1
  V  V54  1  0.76009354  0.49450396  0.24207338  1
  V  V55  1  -0.01481587  0.39755721  0.86090431  1
  V  V56  1  0.81767405  0.35029466  0.49497151  1
  V  V57  1  0.62724782  0.49704686  0.12720169  1
  V  V58  1  0.36375251  0.12775361  0.74885066  1
  V  V59  1  0.02550264  0.76630596  0.25973365  1
  V  V60  1  0.62211504  0.76436385  0.36642326  1
  V  V61  1  0.87517011  0.88078396  0.03849793  1
  V  V62  1  0.00597073  0.24683451  0.25275471  1
  V  V63  1  0.13007493  0.62493171  0.51078111  1
  Zn  Zn64  1  0.17716672  0.17113267  0.23156577  1
  Zn  Zn65  1  0.13981903  0.14580077  0.72858755  1
  Zn  Zn66  1  0.18736941  0.69290548  0.18658870  1
  Zn  Zn67  1  0.18569443  0.70434986  0.78607719  1
  Zn  Zn68  1  0.69146849  0.14390732  0.15949275  1
  Zn  Zn69  1  0.70370560  0.17423483  0.67411559  1
  Zn  Zn70  1  0.68892333  0.69251850  0.19760537  1
  Zn  Zn71  1  0.70377458  0.68788394  0.68313572  1
  Zn  Zn72  1  0.34453620  0.29064767  0.32593759  1
  Zn  Zn73  1  0.24877585  0.28028765  0.78075762  1
  Zn  Zn74  1  0.19723754  0.84076663  0.32344678  1
  Zn  Zn75  1  0.32319544  0.81524606  0.79500606  1
  Zn  Zn76  1  0.85587471  0.34755521  0.29650710  1
  Zn  Zn77  1  0.84470335  0.28265407  0.82149773  1
  Zn  Zn78  1  0.80453045  0.83420075  0.30239334  1
  Zn  Zn79  1  0.82769048  0.82072110  0.81665120  1
  Zn  Zn80  1  0.19956073  0.43411238  0.43936748  1
  Zn  Zn81  1  0.10946197  0.43494321  0.96912521  1
  Zn  Zn82  1  0.22413786  0.97430468  0.48003755  1
  Zn  Zn83  1  0.19550625  0.87233993  0.89594231  1
  Zn  Zn84  1  0.67492407  0.44806592  0.42256259  1
  Zn  Zn85  1  0.69164659  0.44617984  0.94985078  1
  Zn  Zn86  1  0.69148131  0.94547922  0.43808558  1
  Zn  Zn87  1  0.68269474  0.92607808  0.95924343  1
  Zn  Zn88  1  0.32175628  0.06086916  0.05111604  1
  Zn  Zn89  1  0.25910377  0.12187988  0.59528752  1
  Zn  Zn90  1  0.29881210  0.54973774  0.03807944  1
  Zn  Zn91  1  0.32818745  0.56274253  0.56780700  1
  Zn  Zn92  1  0.83013308  0.04079678  0.11124374  1
  Zn  Zn93  1  0.81133486  0.06310237  0.54605109  1
  Zn  Zn94  1  0.81498570  0.57214240  0.06338614  1
  Zn  Zn95  1  0.80895148  0.53919174  0.56787821  1
  Zn  Zn96  1  0.44133654  0.46687318  0.18160745  1
  Zn  Zn97  1  0.38358021  0.40925135  0.71913310  1
  Zn  Zn98  1  0.40081105  0.95721005  0.16424093  1
  Zn  Zn99  1  0.43031792  0.94507733  0.68768674  1
  Zn  Zn100  1  0.94027284  0.44313902  0.17743410  1
  Zn  Zn101  1  0.94436248  0.39940793  0.64860345  1
  Zn  Zn102  1  0.94948776  0.95782128  0.24072420  1
  Zn  Zn103  1  0.93548328  0.95023499  0.68614121  1
  Zn  Zn104  1  0.09295740  0.00672870  0.38328718  1
  Zn  Zn105  1  0.10056226  0.02272364  0.85151375  1
  Zn  Zn106  1  0.06255191  0.56827677  0.30782760  1
  Zn  Zn107  1  0.06342557  0.55219388  0.79948441  1
  Zn  Zn108  1  0.57572831  0.08820752  0.29866427  1
  Zn  Zn109  1  0.56074980  0.05613141  0.80097618  1
  Zn  Zn110  1  0.57412893  0.57764068  0.30792800  1
  Zn  Zn111  1  0.55625972  0.41385958  0.82244210  1
  Zn  Zn112  1  0.48369248  0.19196765  0.43532684  1
  Zn  Zn113  1  0.45003695  0.16782214  0.88949317  1
  Zn  Zn114  1  0.43926827  0.69755988  0.43827978  1
  Zn  Zn115  1  0.44108455  0.68609383  0.92577078  1
  Zn  Zn116  1  0.92704956  0.19794313  0.42864160  1
  Zn  Zn117  1  0.93956481  0.17655288  0.95758598  1
  Zn  Zn118  1  0.93991014  0.68808843  0.43342842  1
  Zn  Zn119  1  0.93459872  0.69695351  0.93661954  1
  Zn  Zn120  1  0.04801900  0.31572823  0.06104987  1
  Zn  Zn121  1  0.05772186  0.31557674  0.55730062  1
  Zn  Zn122  1  0.06882061  0.80035350  0.05965726  1
  Zn  Zn123  1  0.09536597  0.78418848  0.61833515  1
  Zn  Zn124  1  0.56744095  0.32997678  0.02109710  1
  Zn  Zn125  1  0.60468838  0.32463714  0.52267065  1
  Zn  Zn126  1  0.56156666  0.81272466  0.05789728  1
  Zn  Zn127  1  0.58672418  0.80727361  0.56830167  1
  O  O128  1  0.11768448  0.12567397  0.14359511  1
  O  O129  1  0.13392334  0.12939561  0.61062752  1
  O  O130  1  0.11111599  0.62103181  0.13899965  1
  O  O131  1  0.12719560  0.60552491  0.60939857  1
  O  O132  1  0.58387266  0.11991604  0.11890443  1
  O  O133  1  0.63103798  0.10931360  0.61244754  1
  O  O134  1  0.61556729  0.64536242  0.11807404  1
  O  O135  1  0.61675409  0.64748124  0.61923392  1
  O  O136  1  0.38173985  0.37904674  0.38440571  1
  O  O137  1  0.27891943  0.40810494  0.90219921  1
  O  O138  1  0.41275149  0.86771845  0.32940310  1
  O  O139  1  0.39482744  0.86267751  0.87852679  1
  O  O140  1  0.85119747  0.38382904  0.40519991  1
  O  O141  1  0.88181838  0.36506895  0.88867580  1
  O  O142  1  0.87876425  0.91358976  0.33506362  1
  O  O143  1  0.89266605  0.87096907  0.89823199  1
  O  O144  1  0.36794557  -0.03979365  0.46419088  1
  O  O145  1  0.20959103  -0.02103842  0.85024004  1
  O  O146  1  0.25576866  0.51397860  0.37538033  1
  O  O147  1  0.34003023  0.44350876  0.87730329  1
  O  O148  1  0.76462813  0.00729439  0.37302700  1
  O  O149  1  0.74796313  0.02453963  0.91892175  1
  O  O150  1  0.74051518  0.51680610  0.35684247  1
  O  O151  1  0.74509475  0.52034473  0.88506548  1
  O  O152  1  0.22979652  0.51966585  0.12190224  1
  O  O153  1  0.24289064  0.49839277  0.61256790  1
  O  O154  1  0.27959536  0.97801181  0.12093895  1
  O  O155  1  0.22966880  1.00794048  0.63672875  1
  O  O156  1  0.74085805  0.51226174  0.13440977  1
  O  O157  1  0.71570051  0.50889540  0.62293769  1
  O  O158  1  0.71241922  1.02465290  0.13292202  1
  O  O159  1  0.75668082  0.99407500  0.62447306  1
  O  O160  1  -0.01727123  0.38024038  0.26820998  1
  O  O161  1  -0.03476637  0.38986475  0.76079185  1
  O  O162  1  0.01325079  0.86321632  0.24272265  1
  O  O163  1  -0.00462094  0.89461052  0.76894645  1
  O  O164  1  0.47413888  0.39242671  0.25393344  1
  O  O165  1  0.45963147  0.37570249  0.79050498  1
  O  O166  1  0.45796001  0.87757106  0.27330529  1
  O  O167  1  0.49710859  0.86643275  0.76088188  1
  O  O168  1  0.48677911  0.15579581  0.24133894  1
  O  O169  1  0.46688374  0.11470408  0.77955653  1
  O  O170  1  0.49628162  0.63413666  0.23621892  1
  O  O171  1  0.50142011  0.64491983  0.73075533  1
  O  O172  1  0.99871541  0.14499379  0.24599907  1
  O  O173  1  0.91501807  0.07812832  0.80968140  1
  O  O174  1  0.98693223  0.63829376  0.25211622  1
  O  O175  1  0.98717185  0.62558792  0.75130662  1
  O  O176  1  0.39509918  0.27228616  -0.05724367  1
  O  O177  1  0.40648054  0.26443658  0.49475330  1
  O  O178  1  0.38579568  0.75789355  -0.00179140  1
  O  O179  1  0.36418493  0.75226040  0.50576939  1
  O  O180  1  0.87671443  0.25167712  0.01608109  1
  O  O181  1  0.85819559  0.25688741  0.50131029  1
  O  O182  1  0.86708423  0.76270990  0.01097614  1
  O  O183  1  0.86674025  0.74175898  0.51082235  1
  O  O184  1  0.12169022  0.24030356  0.50063454  1
  O  O185  1  0.11143376  0.25466731  0.98157657  1
  O  O186  1  0.14266776  0.73482047  0.52229094  1
  O  O187  1  0.12062657  0.71999409  0.99557650  1
  O  O188  1  0.58125050  0.21602164  0.50916883  1
  O  O189  1  0.64012643  0.25219434  0.95995967  1
  O  O190  1  0.65602199  0.75246293  0.49422361  1
  O  O191  1  0.64359882  0.75208542  0.99515716  1
  O  O192  1  0.51039727  0.26152813  0.09386844  1
  O  O193  1  0.47983779  0.27568728  0.66295387  1
  O  O194  1  0.49253046  0.74430843  0.11790340  1
  O  O195  1  0.50315930  0.75182510  0.62345897  1
  O  O196  1  1.00219355  0.24010486  0.13286475  1
  O  O197  1  0.96426947  0.28797086  0.61635403  1
  O  O198  1  1.01381720  0.73769823  0.14726190  1
  O  O199  1  0.97970548  0.74320186  0.62905432  1
  O  O200  1  -0.00775483  0.26955402  0.36204190  1
  O  O201  1  -0.00275196  0.22804637  0.87093762  1
  O  O202  1  -0.00365617  0.75167271  0.35703591  1
  O  O203  1  -0.01441543  0.75537136  0.85073344  1
  O  O204  1  0.49590100  0.27113466  0.35128800  1
  O  O205  1  0.53627640  0.24307741  0.86685545  1
  O  O206  1  0.52391800  0.74728198  0.38503690  1
  O  O207  1  0.51900415  0.75560008  0.86263421  1
  O  O208  1  0.26806311  0.08873679  0.48245867  1
  O  O209  1  0.24054036  0.10736028  0.99010800  1
  O  O210  1  0.24721357  0.62754630  0.49016560  1
  O  O211  1  0.25833099  0.62855491  0.97091691  1
  O  O212  1  0.72852465  0.13162803  0.48443421  1
  O  O213  1  0.75410612  0.07796281  0.96970971  1
  O  O214  1  0.76056444  0.61690866  0.48116290  1
  O  O215  1  0.75177825  0.64760926  0.99715944  1
  O  O216  1  0.23560475  0.44851956  -0.04073345  1
  O  O217  1  0.27500547  0.37405846  0.49956023  1
  O  O218  1  0.26985317  0.87334956  -0.00824227  1
  O  O219  1  0.24469591  0.86509857  0.51144160  1
  O  O220  1  0.76731382  0.37603920  -0.00599582  1
  O  O221  1  0.71296625  0.35620524  0.48384464  1
  O  O222  1  0.76387880  0.86526825  0.00540498  1
  O  O223  1  0.76661446  0.87203596  0.49525992  1
  O  O224  1  0.12365396  0.49543072  0.23883047  1
  O  O225  1  0.12072838  0.49236000  0.72084704  1
  O  O226  1  0.18123155  0.93974652  0.37571452  1
  O  O227  1  0.12077964  1.02584247  0.73298786  1
  O  O228  1  0.63663487  0.51255630  0.23372711  1
  O  O229  1  0.61073143  0.47839767  0.74475911  1
  O  O230  1  0.57759504  0.99368879  0.23053675  1
  O  O231  1  0.63120384  1.00539638  0.73128660  1
  O  O232  1  0.38218688  0.03454469  0.24325163  1
  O  O233  1  0.35193582  0.00095988  0.74956328  1
  O  O234  1  0.36983727  0.54193932  0.22694270  1
  O  O235  1  0.37689218  0.52256886  0.72212632  1
  O  O236  1  0.84554426  0.02437935  0.22806957  1
  O  O237  1  0.87398197  0.02470062  0.77020809  1
  O  O238  1  0.86269849  0.51021802  0.24169018  1
  O  O239  1  0.77577114  0.44001022  0.75944460  1
  O  O240  1  0.12661934  0.37651488  0.36779010  1
  O  O241  1  0.08868235  0.36193108  0.87297700  1
  O  O242  1  0.03675435  0.87664355  0.44580343  1
  O  O243  1  0.08443505  0.85537630  0.90813514  1
  O  O244  1  0.60099325  0.39036013  0.35567034  1
  O  O245  1  0.64939857  0.33787742  0.83197317  1
  O  O246  1  0.63376226  0.86432844  0.38431023  1
  O  O247  1  0.62259136  0.86142130  0.88097290  1
  O  O248  1  0.40372901  0.13179147  0.10101317  1
  O  O249  1  0.36156203  0.11937648  0.64764811  1
  O  O250  1  0.39502249  0.63321175  0.09538279  1
  O  O251  1  0.39388270  0.64321404  0.62435631  1
  O  O252  1  0.88964032  0.14079196  0.12337760  1
  O  O253  1  0.88001869  0.12841447  0.60957846  1
  O  O254  1  0.88536753  0.62759579  0.14137868  1
  O  O255  1  0.85404701  0.63526488  0.62721146  1
  O  O256  1  0.27590768  0.28639901  0.05115114  1
  O  O257  1  0.25442259  0.24852108  0.60781281  1
  O  O258  1  0.26436556  0.74556969  0.11262667  1
  O  O259  1  0.26876340  0.75006637  0.61863224  1
  O  O260  1  0.76007790  0.22950157  0.13372053  1
  O  O261  1  0.77387398  0.25113042  0.63098024  1
  O  O262  1  0.75062642  0.75194775  0.12095120  1
  O  O263  1  0.76192950  0.76838360  0.61694982  1
  O  O264  1  0.25663621  0.23957146  0.39482170  1
  O  O265  1  0.24551661  0.23700229  0.89236046  1
  O  O266  1  0.24416555  0.75666599  0.39544518  1
  O  O267  1  0.23858640  0.77631925  0.85546709  1
  O  O268  1  0.75295186  0.23407983  0.33492376  1
  O  O269  1  0.74690142  0.23105588  0.86088626  1
  O  O270  1  0.75829508  0.75202931  0.38365299  1
  O  O271  1  0.74586556  0.75363833  0.87302587  1
  O  O272  1  0.00424727  0.10586706  0.02268475  1
  O  O273  1  0.00135774  0.13919218  0.49772748  1
  O  O274  1  -0.01629836  0.64121650  0.02281460  1
  O  O275  1  0.02410246  0.61786599  0.48518701  1
  O  O276  1  0.49305436  0.09974958  -0.02537661  1
  O  O277  1  0.49843981  0.20829253  0.64675199  1
  O  O278  1  0.52245140  0.63867517  -0.00304119  1
  O  O279  1  0.49799929  0.62138510  0.50617867  1
  O  O280  1  0.49905099  0.38909871  0.47540241  1
  O  O281  1  0.43212220  0.33249886  0.96370547  1
  O  O282  1  0.49823591  0.86995830  0.49334953  1
  O  O283  1  0.49764690  0.87357538  0.98193497  1
  O  O284  1  1.00568332  0.38739484  0.47483778  1
  O  O285  1  0.98514981  0.37811700  0.98392790  1
  O  O286  1  0.99116644  0.85676219  0.49804993  1
  O  O287  1  0.98832330  0.88238802  1.03127355  1
  O  O288  1  0.50362646  0.51744062  0.37798963  1
  O  O289  1  0.58203947  0.41153542  0.93690351  1
  O  O290  1  0.52075463  0.92293031  0.44886228  1
  O  O291  1  0.51801034  0.97805576  0.87771258  1
  O  O292  1  1.01214777  0.49151500  0.37958997  1
  O  O293  1  0.99834724  0.49619577  0.87428485  1
  O  O294  1  0.98955032  1.01105673  0.34806558  1
  O  O295  1  1.00599803  0.98692842  0.90793318  1
  O  O296  1  -0.00450814  0.01632980  0.14017416  1
  O  O297  1  0.00436856  0.01799008  0.62940211  1
  O  O298  1  0.00773110  0.52273034  0.13193963  1
  O  O299  1  0.01886400  0.47806758  0.59697029  1
  O  O300  1  0.49624125  -0.01297483  0.10204114  1
  O  O301  1  0.51718158  -0.01447563  0.62654539  1
  O  O302  1  0.52089008  0.52770254  0.12160382  1
  O  O303  1  0.51942689  0.52542710  0.62390404  1
  O  O304  1  0.27013779  0.33280898  0.10639206  1
  O  O305  1  0.26969208  0.36997702  0.71424853  1
  O  O306  1  0.26008413  0.86315228  0.22857784  1
  O  O307  1  0.25099637  0.88473192  0.73232719  1
  O  O308  1  0.75822071  0.39582307  0.25208636  1
  O  O309  1  0.78879370  0.37242925  0.73560546  1
  O  O310  1  0.72903553  0.91082682  0.25308319  1
  O  O311  1  0.76067222  0.88495075  0.74701217  1
  O  O312  1  0.25194785  0.11059010  0.29100761  1
  O  O313  1  0.25092288  0.10933754  0.77069151  1
  O  O314  1  0.25617721  0.64092613  0.26933807  1
  O  O315  1  0.26952662  0.63872036  0.73959873  1
  O  O316  1  0.68899486  0.09863391  0.26743792  1
  O  O317  1  0.74422074  0.12126059  0.76427745  1
  O  O318  1  0.76432866  0.62524063  0.25279551  1
  O  O319  1  0.74750386  0.62603708  0.76477146  1
  O  O320  1  0.38261083  0.13925058  0.37278956  1
  O  O321  1  0.34872099  0.11538204  0.87881933  1
  O  O322  1  0.36687036  0.63789587  0.36858680  1
  O  O323  1  0.39062175  0.62598625  0.84735474  1
  O  O324  1  0.87465813  0.11289866  0.37569346  1
  O  O325  1  0.88086320  0.10083892  0.87699655  1
  O  O326  1  0.86457968  0.63171742  0.36029257  1
  O  O327  1  0.86074767  0.63244238  0.87993689  1
  O  O328  1  0.11235416  0.41139429  0.08909630  1
  O  O329  1  0.14895568  0.37814364  0.60125570  1
  O  O330  1  0.15385216  0.86189273  0.10889014  1
  O  O331  1  0.10607692  0.89721040  0.62036210  1
  O  O332  1  0.61617718  0.40135659  0.10653200  1
  O  O333  1  0.60859895  0.37845282  0.62203869  1
  O  O334  1  0.62135531  0.88354587  0.12439251  1
  O  O335  1  0.65016781  0.88831103  0.61883371  1
  O  O336  1  0.10765486  0.25990226  0.24808959  1
  O  O337  1  0.13694380  0.25045158  0.77475907  1
  O  O338  1  0.13019098  0.75949930  0.26472532  1
  O  O339  1  0.09386675  0.74652266  0.72818889  1
  O  O340  1  0.68304644  0.25169468  0.33867436  1
  O  O341  1  0.63023453  0.22982933  0.75018209  1
  O  O342  1  0.63249393  0.76090350  0.26550935  1
  O  O343  1  0.62760687  0.75105630  0.75827485  1
  O  O344  1  0.33917057  0.22316188  0.23532370  1
  O  O345  1  0.35299437  0.22778665  0.76340931  1
  O  O346  1  0.37633036  0.72805224  0.21694833  1
  O  O347  1  0.39090793  0.74631181  0.73309236  1
  O  O348  1  0.88951180  0.26088386  0.23094013  1
  O  O349  1  0.88520138  0.22264805  0.73847170  1
  O  O350  1  0.86780935  0.74816938  0.24887233  1
  O  O351  1  0.88099880  0.75380195  0.73470103  1
  O  O352  1  0.40134972  0.49297619  0.50847619  1
  O  O353  1  0.38934125  0.47216157  1.02390955  1
  O  O354  1  0.41064769  1.01216280  0.49221906  1
  O  O355  1  0.39025819  0.97646015  0.99434225  1
  O  O356  1  0.90373869  0.52722568  0.49802595  1
  O  O357  1  0.87352438  0.48804615  1.01436111  1
  O  O358  1  0.88499551  0.99585541  0.48601813  1
  O  O359  1  0.87886193  0.98488383  1.02369083  1
  O  O360  1  0.11131972  -0.01265530  0.02683862  1
  O  O361  1  0.11732074  0.01835493  0.51315205  1
  O  O362  1  0.11737644  0.54779112  -0.00267560  1
  O  O363  1  0.12797049  0.50883966  0.49957956  1
  O  O364  1  0.60856786  -0.00740601  0.01126986  1
  O  O365  1  0.63104319  0.00816519  0.51178875  1
  O  O366  1  0.64439118  0.53458766  0.01926281  1
  O  O367  1  0.60450683  0.49648594  0.50426429  1
  O  O368  1  0.39249599  0.42084803  0.08054133  1
  O  O369  1  0.37091211  0.37054523  0.60533196  1
  O  O370  1  0.37240841  0.85558185  0.10622098  1
  O  O371  1  0.38583624  0.86016042  0.62465491  1
  O  O372  1  0.88302481  0.36239089  0.11334238  1
  O  O373  1  0.84781956  0.41033538  0.57600343  1
  O  O374  1  0.86702366  0.87542869  0.13462929  1
  O  O375  1  0.86663377  0.87808762  0.62903067  1
  O  O376  1  0.14012410  0.12209846  0.40080099  1
  O  O377  1  0.13023987  0.13359803  0.87310795  1
  O  O378  1  0.14117388  0.62242493  0.38110118  1
  O  O379  1  0.13365253  0.62507884  0.85377317  1
  O  O380  1  0.56484576  0.10612804  0.40980825  1
  O  O381  1  0.63204151  0.13091751  0.86084270  1
  O  O382  1  0.64912792  0.64531576  0.36675652  1
  O  O383  1  0.64077993  0.64547626  0.88993280  1
