# generated using pymatgen
data_VZnO4
_symmetry_space_group_name_H-M   'P 1'
_cell_length_a   16.96918206
_cell_length_b   16.99973786
_cell_length_c   16.91148213
_cell_angle_alpha   89.94175893
_cell_angle_beta   90.03007061
_cell_angle_gamma   90.23458511
_symmetry_Int_Tables_number   1
_chemical_formula_structural   VZnO4
_chemical_formula_sum   'V64 Zn64 O256'
_cell_volume   4878.43902919
_cell_formula_units_Z   64
loop_
 _symmetry_equiv_pos_site_id
 _symmetry_equiv_pos_as_xyz
  1  'x, y, z'
loop_
 _atom_site_type_symbol
 _atom_site_label
 _atom_site_symmetry_multiplicity
 _atom_site_fract_x
 _atom_site_fract_y
 _atom_site_fract_z
 _atom_site_occupancy
  V  V0  1  0.25881427  0.25515873  0.48105746  1
  V  V1  1  0.61207696  0.62220999  0.49528484  1
  V  V2  1  0.88062704  0.00586469  0.83427137  1
  V  V3  1  0.36808625  -0.00696170  0.86992358  1
  V  V4  1  0.63954579  0.13043185  -0.02021259  1
  V  V5  1  0.64001624  0.63458463  -0.01018181  1
  V  V6  1  0.75183867  0.25511326  0.50334050  1
  V  V7  1  0.49668936  0.24516047  0.22836810  1
  V  V8  1  0.74974903  0.33996332  0.11198333  1
  V  V9  1  0.63344110  0.86129285  0.75229089  1
  V  V10  1  0.14455033  0.13765054  0.00377471  1
  V  V11  1  0.87384822  0.49370233  0.90061052  1
  V  V12  1  0.87680883  0.74759618  0.62381907  1
  V  V13  1  0.74097907  0.00745000  0.24428307  1
  V  V14  1  0.74150161  0.39565652  0.61998964  1
  V  V15  1  0.13450258  0.35509629  0.23775745  1
  V  V16  1  0.38996059  -0.01786576  0.38694941  1
  V  V17  1  0.88382388  0.00666168  0.38951886  1
  V  V18  1  0.11788758  -0.00303832  0.12511219  1
  V  V19  1  0.74507661  0.12723389  0.37637926  1
  V  V20  1  0.35230494  0.86073124  0.00951341  1
  V  V21  1  0.25350580  0.76683739  0.51712252  1
  V  V22  1  0.76238761  0.88578198  0.62456928  1
  V  V23  1  0.75871304  0.86376305  0.11897907  1
  V  V24  1  0.24028690  0.62604587  0.87592036  1
  V  V25  1  0.76294744  0.14078073  0.82916938  1
  V  V26  1  0.87228467  0.38915832  0.48133778  1
  V  V27  1  0.11112339  0.78461732  0.38760561  1
  V  V28  1  -0.00384767  0.50342591  0.47273836  1
  V  V29  1  0.75755740  0.75273251  0.49215029  1
  V  V30  1  0.25626548  0.12736502  0.86068177  1
  V  V31  1  0.24411172  0.37900481  0.62878950  1
  V  V32  1  0.61127365  0.11666923  0.50690304  1
  V  V33  1  0.50251767  0.08852216  0.11080592  1
  V  V34  1  0.61218078  0.87428729  0.25248494  1
  V  V35  1  -0.01255115  0.60767180  0.13818906  1
  V  V36  1  0.88300696  0.32754387  0.00348895  1
  V  V37  1  0.23784713  0.85410760  0.13793105  1
  V  V38  1  0.50254729  0.86945276  0.88685914  1
  V  V39  1  0.38176610  0.23286123  0.62601292  1
  V  V40  1  0.48270791  0.49596424  -0.01350552  1
  V  V41  1  0.21261570  0.49243342  0.75372584  1
  V  V42  1  0.24725641  -0.00743846  0.25096643  1
  V  V43  1  0.63052475  0.48561440  0.09881051  1
  V  V44  1  -0.00197919  0.61419976  0.62940694  1
  V  V45  1  0.61582999  0.00678869  0.64056959  1
  V  V46  1  0.14874138  0.00037014  0.63644799  1
  V  V47  1  0.26795955  0.33028201  0.12749832  1
  V  V48  1  0.89434597  0.14106498  0.25335565  1
  V  V49  1  0.00799267  0.14555851  0.12337461  1
  V  V50  1  0.85123875  0.60985920  0.75803535  1
  V  V51  1  0.48078368  0.75639899  0.73770551  1
  V  V52  1  0.59977717  0.77496881  0.39009781  1
  V  V53  1  0.13040073  0.87368352  0.77272210  1
  V  V54  1  0.37638589  0.60050644  0.74467782  1
  V  V55  1  0.11530696  0.63049648  0.48169019  1
  V  V56  1  0.38025232  0.11653031  0.24699366  1
  V  V57  1  -0.01016273  0.78244811  0.26006838  1
  V  V58  1  0.50627943  0.63073752  0.13322480  1
  V  V59  1  0.37917828  0.34610039  -0.00653059  1
  V  V60  1  0.62476742  0.37766721  0.25190152  1
  V  V61  1  0.60716685  0.24805207  0.37841692  1
  V  V62  1  0.24561968  0.11252105  0.38538831  1
  V  V63  1  -0.00216348  0.73895078  0.77130381  1
  Zn  Zn64  1  0.19002977  0.17791230  0.20077327  1
  Zn  Zn65  1  0.19529112  0.18118020  0.66365942  1
  Zn  Zn66  1  0.15304640  0.68169978  0.22132545  1
  Zn  Zn67  1  0.18096692  0.68458642  0.69802256  1
  Zn  Zn68  1  0.66665432  0.17393072  0.18495265  1
  Zn  Zn69  1  0.68017280  0.19855498  0.68639531  1
  Zn  Zn70  1  0.81569015  0.69359415  0.20309300  1
  Zn  Zn71  1  0.68511332  0.68813575  0.67634460  1
  Zn  Zn72  1  0.31565721  0.30963539  0.31624731  1
  Zn  Zn73  1  0.30947130  0.30702921  0.81014978  1
  Zn  Zn74  1  0.29601881  0.81204648  0.33348911  1
  Zn  Zn75  1  0.30947342  0.80693386  0.81855721  1
  Zn  Zn76  1  0.80050343  0.31304770  0.30991201  1
  Zn  Zn77  1  0.78085657  0.34902856  0.82958080  1
  Zn  Zn78  1  0.81398877  0.83594614  0.31605987  1
  Zn  Zn79  1  0.83946134  0.82521197  0.79999195  1
  Zn  Zn80  1  0.18638172  0.43463105  0.45312733  1
  Zn  Zn81  1  0.24163717  0.42891063  0.93377754  1
  Zn  Zn82  1  0.19414194  0.94442014  0.45535925  1
  Zn  Zn83  1  0.18484554  0.93839653  0.94597557  1
  Zn  Zn84  1  0.64838454  0.41971513  0.46418215  1
  Zn  Zn85  1  0.67282204  0.49504113  0.88788898  1
  Zn  Zn86  1  0.69331573  0.94264375  0.44255737  1
  Zn  Zn87  1  0.76037933  0.97750449  0.96350004  1
  Zn  Zn88  1  0.31759001  0.04628668  0.06175610  1
  Zn  Zn89  1  0.32199228  0.05452105  0.57057494  1
  Zn  Zn90  1  0.33477401  0.59129654  0.05955583  1
  Zn  Zn91  1  0.27627167  0.57547393  0.58043243  1
  Zn  Zn92  1  0.80458333  0.10567686  0.07592958  1
  Zn  Zn93  1  0.80331132  0.07087525  0.57151315  1
  Zn  Zn94  1  0.80940757  0.56336143  0.07742694  1
  Zn  Zn95  1  0.80728091  0.57084895  0.55171436  1
  Zn  Zn96  1  0.44815515  0.42822932  0.16870867  1
  Zn  Zn97  1  0.41180325  0.39968560  0.69608835  1
  Zn  Zn98  1  0.42583173  0.92428915  0.18973441  1
  Zn  Zn99  1  0.44355468  0.94511836  0.69633420  1
  Zn  Zn100  1  0.96129793  0.39379938  0.14483456  1
  Zn  Zn101  1  0.91692757  0.44383273  0.66150141  1
  Zn  Zn102  1  0.92355614  0.96013203  0.18857993  1
  Zn  Zn103  1  0.97125455  0.91840118  0.68531978  1
  Zn  Zn104  1  0.06556072  0.05926376  0.31562682  1
  Zn  Zn105  1  0.07212675  0.04884981  0.83193816  1
  Zn  Zn106  1  0.04151501  0.50399550  0.26657879  1
  Zn  Zn107  1  0.07987954  0.50482412  0.88567924  1
  Zn  Zn108  1  0.55961247  0.05924259  0.31489216  1
  Zn  Zn109  1  0.61458993  0.01104824  0.86043654  1
  Zn  Zn110  1  0.63633304  0.64486658  0.27488649  1
  Zn  Zn111  1  0.53457583  0.59062943  0.83042066  1
  Zn  Zn112  1  0.42938007  0.17297390  0.43908837  1
  Zn  Zn113  1  0.45998681  0.17142098  0.93025146  1
  Zn  Zn114  1  0.43421443  0.67872259  0.56672122  1
  Zn  Zn115  1  0.43434656  0.68706193  0.93174394  1
  Zn  Zn116  1  0.93223933  0.18844478  0.43814534  1
  Zn  Zn117  1  0.92333736  0.11545999  0.95379572  1
  Zn  Zn118  1  0.93357523  0.69365152  0.43449616  1
  Zn  Zn119  1  0.98928400  0.70296361  0.97804852  1
  Zn  Zn120  1  0.09607547  0.34623343  0.01974982  1
  Zn  Zn121  1  0.06540169  0.30362348  0.51099203  1
  Zn  Zn122  1  0.03427004  0.82540012  0.09894994  1
  Zn  Zn123  1  0.09232954  0.79640367  0.59711814  1
  Zn  Zn124  1  0.56062322  0.30253172  0.04326302  1
  Zn  Zn125  1  0.57104502  0.30358072  0.58631090  1
  Zn  Zn126  1  0.58554915  0.81012984  0.06475647  1
  Zn  Zn127  1  0.56968471  0.81563971  0.57280377  1
  O  O128  1  0.12317760  0.11882941  0.12542922  1
  O  O129  1  0.12208915  0.09882525  0.64743535  1
  O  O130  1  0.16018885  0.69813411  0.02396285  1
  O  O131  1  0.09834084  0.63311448  0.61922648  1
  O  O132  1  0.60522378  0.11992152  0.10438194  1
  O  O133  1  0.63015194  0.11542019  0.61812908  1
  O  O134  1  0.61946393  0.59726650  0.09612579  1
  O  O135  1  0.63343805  0.63084300  0.59557863  1
  O  O136  1  0.38551388  0.41362232  0.32712168  1
  O  O137  1  0.35146762  0.37308955  0.89579590  1
  O  O138  1  0.37249124  0.88306031  0.37106010  1
  O  O139  1  0.37789969  0.87337203  0.88782042  1
  O  O140  1  0.86482846  0.37453540  0.38183700  1
  O  O141  1  0.87975634  0.36818490  0.90799510  1
  O  O142  1  0.87505083  0.90781180  0.37707565  1
  O  O143  1  0.86212442  0.91037468  0.86791277  1
  O  O144  1  0.25668415  -0.00062134  0.37059604  1
  O  O145  1  0.26262114  0.00115961  0.88466729  1
  O  O146  1  0.27549518  0.51495766  0.42068501  1
  O  O147  1  0.25788808  0.50352534  0.84869632  1
  O  O148  1  0.75324202  0.01572264  0.37143380  1
  O  O149  1  0.76718971  0.02405797  0.85269599  1
  O  O150  1  0.81992997  0.57916450  0.36366285  1
  O  O151  1  0.77399338  0.45801780  0.86497017  1
  O  O152  1  0.22747238  0.56806382  0.13207229  1
  O  O153  1  0.23116790  0.49278802  0.64511604  1
  O  O154  1  0.24142768  0.98741031  0.13648227  1
  O  O155  1  0.24937509  0.99793229  0.63851780  1
  O  O156  1  0.73224400  0.47939747  0.11056726  1
  O  O157  1  0.74791069  0.49504996  0.61072474  1
  O  O158  1  0.74598818  1.02681453  0.14668648  1
  O  O159  1  0.75094049  0.98837531  0.63087379  1
  O  O160  1  0.03460109  0.38490467  0.23135497  1
  O  O161  1  -0.02931142  0.36449273  0.73959113  1
  O  O162  1  -0.00435082  0.87879346  0.23571627  1
  O  O163  1  -0.02132839  0.84001616  0.77381437  1
  O  O164  1  0.51278416  0.35226556  0.23403675  1
  O  O165  1  0.52699940  0.38786686  0.71020691  1
  O  O166  1  0.51380040  0.87785075  0.24648635  1
  O  O167  1  0.50987920  0.86380954  0.74540553  1
  O  O168  1  0.49958251  0.12572971  0.23904251  1
  O  O169  1  0.54060266  0.19911342  0.77434981  1
  O  O170  1  0.53579458  0.61882111  0.22928094  1
  O  O171  1  0.48243194  0.63986102  0.74587038  1
  O  O172  1  0.99735590  0.13216756  0.25084163  1
  O  O173  1  1.02545488  0.16671347  0.77690116  1
  O  O174  1  1.07212221  0.60327602  0.21036544  1
  O  O175  1  0.98306817  0.62630512  0.73308196  1
  O  O176  1  0.39605109  0.24974275  -0.01219949  1
  O  O177  1  0.36519096  0.23353727  0.51325632  1
  O  O178  1  0.37721403  0.76360769  -0.00485602  1
  O  O179  1  0.34800995  0.73625563  0.51747683  1
  O  O180  1  0.89072773  0.23044195  -0.00734209  1
  O  O181  1  0.85446401  0.25873510  0.49315980  1
  O  O182  1  0.82837250  0.74791154  -0.03331917  1
  O  O183  1  0.86711350  0.75237471  0.50995589  1
  O  O184  1  0.16275438  0.23830253  0.50147462  1
  O  O185  1  0.13500458  0.23603472  1.00221152  1
  O  O186  1  0.09532004  0.74465459  0.49251791  1
  O  O187  1  0.12228446  0.75177460  0.99195919  1
  O  O188  1  0.62640467  0.23865400  0.49519496  1
  O  O189  1  0.57139951  0.21358061  0.97323110  1
  O  O190  1  0.63840454  0.76705006  0.49697520  1
  O  O191  1  0.63132263  0.73263204  0.99034390  1
  O  O192  1  0.49860373  0.23492189  0.12941678  1
  O  O193  1  0.48078043  0.25170180  0.61279158  1
  O  O194  1  0.51859170  0.72835616  0.11436158  1
  O  O195  1  0.49964297  0.74925290  0.63361980  1
  O  O196  1  1.01480734  0.24003622  0.13392085  1
  O  O197  1  1.04658080  0.27088986  0.63283011  1
  O  O198  1  1.01039405  0.72961803  0.17013985  1
  O  O199  1  0.98564496  0.74289705  0.63031514  1
  O  O200  1  0.02235393  0.24442468  0.42764528  1
  O  O201  1  0.03371548  0.22409218  0.82173338  1
  O  O202  1  -0.00140941  0.76196320  0.36902198  1
  O  O203  1  -0.00666410  0.70858626  0.86532418  1
  O  O204  1  0.50575090  0.24096300  0.37764966  1
  O  O205  1  0.49152239  0.23069730  0.82512698  1
  O  O206  1  0.50536641  0.78113706  0.40230545  1
  O  O207  1  0.49241209  0.76226985  0.85552402  1
  O  O208  1  0.26002288  0.11651166  0.48691061  1
  O  O209  1  0.24508233  0.12105342  1.01248864  1
  O  O210  1  0.21540577  0.64098981  0.50990021  1
  O  O211  1  0.27427641  0.61298502  0.97140920  1
  O  O212  1  0.74236407  0.13999890  0.49596560  1
  O  O213  1  0.73029367  0.16021941  1.00562531  1
  O  O214  1  0.74705522  0.65042255  0.49328152  1
  O  O215  1  0.73738043  0.61494709  1.00121278  1
  O  O216  1  0.26878368  0.35711173  0.02017192  1
  O  O217  1  0.26999725  0.34940789  0.44311095  1
  O  O218  1  0.24682355  0.86230407  0.01599907  1
  O  O219  1  0.25759626  0.86698304  0.51148869  1
  O  O220  1  0.76301915  0.33936051  0.01051981  1
  O  O221  1  0.75336882  0.36749412  0.48909781  1
  O  O222  1  0.73232342  0.88487946  0.02232576  1
  O  O223  1  0.75207416  0.87480722  0.51990031  1
  O  O224  1  0.15411881  0.46415256  0.28912121  1
  O  O225  1  0.11605640  0.49245074  0.76517787  1
  O  O226  1  0.13855139  1.00635831  0.24146430  1
  O  O227  1  0.12042555  0.98286934  0.75609508  1
  O  O228  1  0.61650808  0.47281693  0.22570852  1
  O  O229  1  0.57114580  0.44508626  0.74870638  1
  O  O230  1  0.63570022  0.99271796  0.25966863  1
  O  O231  1  0.62648176  0.98979436  0.74336285  1
  O  O232  1  0.36514197  -0.00245424  0.25787598  1
  O  O233  1  0.36784121  -0.02037351  0.76940353  1
  O  O234  1  0.38243368  0.46046856  0.26738446  1
  O  O235  1  0.39058482  0.50234190  0.74451293  1
  O  O236  1  0.86063393  0.02603111  0.26329965  1
  O  O237  1  0.90571606  -0.00189119  0.73629225  1
  O  O238  1  0.79260309  0.54368134  0.30296834  1
  O  O239  1  0.86619469  0.51337940  0.73388254  1
  O  O240  1  0.14415140  0.40007193  0.34524098  1
  O  O241  1  0.13067517  0.42489128  0.94649326  1
  O  O242  1  0.11115282  0.88266164  0.39727236  1
  O  O243  1  0.11856693  0.87986508  0.87358624  1
  O  O244  1  0.62256316  0.36535845  0.36025265  1
  O  O245  1  0.61030443  0.41647968  0.81008537  1
  O  O246  1  0.63094350  0.88039427  0.36943617  1
  O  O247  1  0.61249181  0.88092439  0.85595240  1
  O  O248  1  0.38722081  0.10349079  0.14001697  1
  O  O249  1  0.36918657  0.13526322  0.64241846  1
  O  O250  1  0.40399960  0.61572969  0.13931548  1
  O  O251  1  0.36303826  0.62149740  0.63946640  1
  O  O252  1  0.89606752  0.12892148  0.14378118  1
  O  O253  1  0.89853501  0.13540097  0.62144470  1
  O  O254  1  0.88378868  0.63366657  0.13180473  1
  O  O255  1  0.87765414  0.63377926  0.62206412  1
  O  O256  1  0.26714319  0.23195815  0.13108171  1
  O  O257  1  0.26262261  0.26258237  0.61463478  1
  O  O258  1  0.21888567  0.75794966  0.14775974  1
  O  O259  1  0.20849279  0.75867244  0.61335295  1
  O  O260  1  0.74266983  0.24242711  0.13365159  1
  O  O261  1  0.73536487  0.26120843  0.60500358  1
  O  O262  1  0.76172058  0.76436755  0.12828928  1
  O  O263  1  0.75908060  0.76207234  0.61591041  1
  O  O264  1  0.27121947  0.21982241  0.37583849  1
  O  O265  1  0.26587697  0.22545800  0.87783312  1
  O  O266  1  0.21937616  0.76387323  0.40455055  1
  O  O267  1  0.24174684  0.72640830  0.85946373  1
  O  O268  1  0.73110180  0.24322651  0.38238593  1
  O  O269  1  0.75810807  0.24138831  0.84461839  1
  O  O270  1  0.75825622  0.77339180  0.39359913  1
  O  O271  1  0.78759663  0.75624876  0.90661040  1
  O  O272  1  0.02034398  0.12862959  0.01988726  1
  O  O273  1  -0.04351287  0.14439709  0.57453444  1
  O  O274  1  0.01834653  0.61357419  0.04210118  1
  O  O275  1  -0.00515956  0.61632435  0.50001265  1
  O  O276  1  0.48027727  0.09155070  0.01283382  1
  O  O277  1  0.51351266  0.12124475  0.50217227  1
  O  O278  1  0.50381915  0.61019855  -0.00384693  1
  O  O279  1  0.51079886  0.63125721  0.50055828  1
  O  O280  1  0.48872439  0.41806697  0.48627021  1
  O  O281  1  0.48432431  0.38113984  1.00030724  1
  O  O282  1  0.46875388  0.87965597  0.53724525  1
  O  O283  1  0.51209666  0.86090911  0.98585180  1
  O  O284  1  0.98495161  0.39469319  0.49702644  1
  O  O285  1  0.98064446  0.35995918  1.03400273  1
  O  O286  1  0.98543921  0.91053330  0.51371493  1
  O  O287  1  0.97077653  0.80476087  1.01412801  1
  O  O288  1  0.44099342  0.54731440  0.38955354  1
  O  O289  1  0.49102748  0.49971094  0.88614582  1
  O  O290  1  0.48945851  0.99416905  0.37353738  1
  O  O291  1  0.48820263  0.97474339  0.87107040  1
  O  O292  1  0.99228906  0.50599074  0.37390816  1
  O  O293  1  0.96958004  0.49020316  0.87029282  1
  O  O294  1  0.98327643  1.02577917  0.38218596  1
  O  O295  1  0.97427640  1.02873418  0.88179560  1
  O  O296  1  0.01687901  0.00985839  0.13837580  1
  O  O297  1  -0.02442630  -0.03471271  0.56104086  1
  O  O298  1  -0.03248373  0.50919073  0.16285756  1
  O  O299  1  -0.00810440  0.51298686  0.61017131  1
  O  O300  1  0.50208974  -0.00820497  0.13206092  1
  O  O301  1  0.51702883  0.00529394  0.63329489  1
  O  O302  1  0.51271252  0.49794307  0.10749999  1
  O  O303  1  0.47366010  0.46971481  0.53539993  1
  O  O304  1  0.25665677  0.35910570  0.23144129  1
  O  O305  1  0.23607069  0.38138158  0.74019250  1
  O  O306  1  0.25208915  0.87773950  0.24341024  1
  O  O307  1  0.22707988  0.86169062  0.75728564  1
  O  O308  1  0.72819996  0.36113257  0.23508710  1
  O  O309  1  0.74441617  0.37272196  0.71741339  1
  O  O310  1  0.74953809  0.89834677  0.24254780  1
  O  O311  1  0.73879369  0.86215586  0.74187080  1
  O  O312  1  0.26308196  0.10957707  0.25912575  1
  O  O313  1  0.24195110  0.12910081  0.76273000  1
  O  O314  1  0.26552689  0.65197179  0.27311961  1
  O  O315  1  0.24944260  0.60654763  0.74900270  1
  O  O316  1  0.73750872  0.12284866  0.26486061  1
  O  O317  1  0.75857653  0.13001390  0.72839680  1
  O  O318  1  0.73750145  0.61969162  0.23694017  1
  O  O319  1  0.75391378  0.62695857  0.74208583  1
  O  O320  1  0.37472806  0.10376340  0.36265042  1
  O  O321  1  0.37004532  0.10159821  0.87995519  1
  O  O322  1  0.40348943  0.58713075  0.34301796  1
  O  O323  1  0.36748177  0.63174116  0.84575806  1
  O  O324  1  0.86289601  0.12930826  0.36785217  1
  O  O325  1  0.86668695  0.12709482  0.84818332  1
  O  O326  1  0.87816762  0.63613198  0.34529581  1
  O  O327  1  0.85518708  0.59770085  0.86219410  1
  O  O328  1  0.15717954  0.36000982  0.12811478  1
  O  O329  1  0.16688939  0.38232399  0.55981362  1
  O  O330  1  0.12860569  0.88678103  0.12431055  1
  O  O331  1  0.08551350  0.89289530  0.65685736  1
  O  O332  1  0.63120504  0.36590060  0.11546329  1
  O  O333  1  0.63746202  0.38963050  0.58101209  1
  O  O334  1  0.63940882  0.86807805  0.14858929  1
  O  O335  1  0.63530833  0.88895591  0.63545491  1
  O  O336  1  0.13349670  0.25759043  0.25976051  1
  O  O337  1  0.10528349  0.27626357  0.68011021  1
  O  O338  1  0.11243017  0.77099615  0.28172236  1
  O  O339  1  0.10274522  0.75716269  0.74976640  1
  O  O340  1  0.60747444  0.24423631  0.25838727  1
  O  O341  1  0.59828176  0.25180534  0.74876686  1
  O  O342  1  0.62400381  0.77009123  0.27787129  1
  O  O343  1  0.61697534  0.76002327  0.74101287  1
  O  O344  1  0.39442367  0.23384970  0.25950516  1
  O  O345  1  0.37669644  0.28987803  0.72015290  1
  O  O346  1  0.32016327  0.70445999  0.27395589  1
  O  O347  1  0.38124709  0.76438677  0.73660262  1
  O  O348  1  0.87145952  0.23753627  0.25931537  1
  O  O349  1  0.92511649  0.30861750  0.75696245  1
  O  O350  1  0.88586623  0.76498372  0.26138200  1
  O  O351  1  0.87695662  0.72962518  0.74576364  1
  O  O352  1  0.32465206  0.52081040  0.47860946  1
  O  O353  1  0.38305769  0.49444599  1.00709313  1
  O  O354  1  0.37501003  1.00154159  0.48558790  1
  O  O355  1  0.37089155  0.96739611  0.99539906  1
  O  O356  1  0.87782288  0.49671824  0.48819044  1
  O  O357  1  0.87291753  0.50475065  0.99968213  1
  O  O358  1  0.86330733  1.02402527  0.48770844  1
  O  O359  1  0.85151073  1.03727742  1.00134223  1
  O  O360  1  0.13033255  0.00926492  0.02151252  1
  O  O361  1  0.12982563  -0.01171032  0.53660698  1
  O  O362  1  0.17739026  0.52824028  0.09405761  1
  O  O363  1  0.10479566  0.51621841  0.48591446  1
  O  O364  1  0.63922169  0.02480702  -0.02359903  1
  O  O365  1  0.63262379  0.01239857  0.51493249  1
  O  O366  1  0.61398758  0.47858125  -0.00524441  1
  O  O367  1  0.63071432  0.52837387  0.46553728  1
  O  O368  1  0.37257005  0.36044524  0.11632394  1
  O  O369  1  0.33935927  0.39466938  0.59835184  1
  O  O370  1  0.35236778  0.86398372  0.12069818  1
  O  O371  1  0.41374714  0.88517814  0.58854501  1
  O  O372  1  0.85461536  0.35743050  0.12085741  1
  O  O373  1  0.85290059  0.37785415  0.59506128  1
  O  O374  1  0.85424226  0.89733928  0.12693578  1
  O  O375  1  0.86553574  0.86473460  0.64194091  1
  O  O376  1  0.14747087  0.11470055  0.37249067  1
  O  O377  1  0.14737717  0.11171456  0.89533349  1
  O  O378  1  0.11628459  0.63952204  0.38431675  1
  O  O379  1  0.14100303  0.60449224  0.88246845  1
  O  O380  1  0.62667333  0.12683584  0.38997586  1
  O  O381  1  0.65436033  0.12611111  0.86875473  1
  O  O382  1  0.62147464  0.66715362  0.38842178  1
  O  O383  1  0.63082452  0.60227989  0.88459545  1
