# generated using pymatgen
data_VZnO4
_symmetry_space_group_name_H-M   'P 1'
_cell_length_a   16.86832151
_cell_length_b   16.87612235
_cell_length_c   16.83894913
_cell_angle_alpha   90.05014514
_cell_angle_beta   89.98764260
_cell_angle_gamma   90.24622259
_symmetry_Int_Tables_number   1
_chemical_formula_structural   VZnO4
_chemical_formula_sum   'V64 Zn64 O256'
_cell_volume   4793.52872527
_cell_formula_units_Z   64
loop_
 _symmetry_equiv_pos_site_id
 _symmetry_equiv_pos_as_xyz
  1  'x, y, z'
loop_
 _atom_site_type_symbol
 _atom_site_label
 _atom_site_symmetry_multiplicity
 _atom_site_fract_x
 _atom_site_fract_y
 _atom_site_fract_z
 _atom_site_occupancy
  V  V0  1  0.86362969  0.24572118  0.60667702  1
  V  V1  1  0.35204427  0.00512701  0.37004740  1
  V  V2  1  0.87208957  0.86661311  0.49446563  1
  V  V3  1  0.62949115  0.37813994  0.76214583  1
  V  V4  1  0.47510334  0.60201385  0.63592678  1
  V  V5  1  0.36369956  0.74824714  0.12170482  1
  V  V6  1  0.87255090  -0.00100099  0.35789854  1
  V  V7  1  0.50675932  0.75806431  0.74999740  1
  V  V8  1  0.86491940  0.75070872  0.64046083  1
  V  V9  1  0.23454067  0.27268322  0.51104966  1
  V  V10  1  0.49277806  0.40156009  0.39973280  1
  V  V11  1  0.66281491  0.48803338  0.62048970  1
  V  V12  1  -0.02018941  0.50729374  -0.00623744  1
  V  V13  1  0.60545813  0.37658671  0.25235286  1
  V  V14  1  -0.00590550  0.62638546  0.12898272  1
  V  V15  1  0.62117685  0.72987442  0.89103695  1
  V  V16  1  0.24914406  0.89051868  0.62724167  1
  V  V17  1  0.12959733  0.62548203  0.51015543  1
  V  V18  1  0.39772587  0.12796459  0.23886632  1
  V  V19  1  0.38645712  0.78031055  0.62593960  1
  V  V20  1  0.50701091  0.87850683  0.89205950  1
  V  V21  1  0.75081154  0.51328903  0.24694797  1
  V  V22  1  0.12071392  0.25177177  0.87427728  1
  V  V23  1  0.87769585  0.75330989  0.14154167  1
  V  V24  1  0.38311876  0.26932961  0.11442665  1
  V  V25  1  0.00814602  -0.00783388  0.49572813  1
  V  V26  1  0.75363366  0.36529459  0.12420451  1
  V  V27  1  0.73262480  0.87852498  0.13719088  1
  V  V28  1  0.25623921  0.61399094  0.85862707  1
  V  V29  1  0.86072175  0.60886715  0.76302634  1
  V  V30  1  0.50668532  -0.00079935  0.02898651  1
  V  V31  1  0.86931269  0.37324605  0.49089546  1
  V  V32  1  0.23910317  0.38600341  0.11319583  1
  V  V33  1  0.12644693  0.61526554  -0.00582967  1
  V  V34  1  -0.00990337  0.38279455  0.85829536  1
  V  V35  1  0.13969342  0.22494641  0.36370833  1
  V  V36  1  0.11591703  0.76966817  0.86469845  1
  V  V37  1  -0.02080371  0.14719820  0.11324396  1
  V  V38  1  0.00327847  0.62513604  0.63864203  1
  V  V39  1  0.74019885  0.88741593  0.63780111  1
  V  V40  1  0.88668268  0.50740273  0.37465578  1
  V  V41  1  0.50013468  0.88609677  0.37722036  1
  V  V42  1  0.12971619  0.11860899  -0.00433018  1
  V  V43  1  0.12724701  0.48211211  0.64088841  1
  V  V44  1  0.62475187  0.74451328  0.36946077  1
  V  V45  1  0.75946585  0.74315877  -0.00095395  1
  V  V46  1  0.49315448  0.61782647  0.11311353  1
  V  V47  1  0.38534445  0.00330685  0.86815635  1
  V  V48  1  0.86118755  -0.01985154  0.89721631  1
  V  V49  1  0.86959938  0.35913051  -0.00245023  1
  V  V50  1  0.63450850  0.14323250  0.00850094  1
  V  V51  1  0.01568269  0.36673932  0.36028634  1
  V  V52  1  0.23444972  0.00764894  0.75492635  1
  V  V53  1  0.75257371  0.62548580  0.38295487  1
  V  V54  1  -0.00870215  0.23886676  0.74181339  1
  V  V55  1  0.62067416  0.51274357  0.11242667  1
  V  V56  1  0.24708814  0.76238810  -0.00432366  1
  V  V57  1  0.00927556  0.12104861  0.60617607  1
  V  V58  1  0.75037038  0.12781565  0.86602329  1
  V  V59  1  0.50677610  0.13253140  0.62128998  1
  V  V60  1  0.13902116  0.76161122  0.39850330  1
  V  V61  1  0.48090562  0.73701036  0.25781175  1
  V  V62  1  0.15169472  0.85131364  0.23967060  1
  V  V63  1  0.62160913  0.62248945  0.51199085  1
  Zn  Zn64  1  0.16621547  0.23520492  0.15504409  1
  Zn  Zn65  1  0.18360941  0.19028883  0.69130724  1
  Zn  Zn66  1  0.17152978  0.68004248  0.18984934  1
  Zn  Zn67  1  0.19802173  0.70097284  0.68296902  1
  Zn  Zn68  1  0.56880382  0.19279237  0.18311865  1
  Zn  Zn69  1  0.69576989  0.19232261  0.68834117  1
  Zn  Zn70  1  0.68346001  0.69333123  0.18626946  1
  Zn  Zn71  1  0.69015745  0.69221414  0.69604329  1
  Zn  Zn72  1  0.31431020  0.30989800  0.30777543  1
  Zn  Zn73  1  0.27667002  0.15258601  0.86676950  1
  Zn  Zn74  1  0.31311472  0.81048714  0.32965609  1
  Zn  Zn75  1  0.32062762  0.82048823  0.80990338  1
  Zn  Zn76  1  0.82218915  0.32906885  0.29076039  1
  Zn  Zn77  1  0.80479721  0.30635840  0.80068738  1
  Zn  Zn78  1  0.81773999  0.81136853  0.30983909  1
  Zn  Zn79  1  0.80148582  0.81127146  0.81492287  1
  Zn  Zn80  1  0.18589161  0.44814190  0.44372500  1
  Zn  Zn81  1  0.18329334  0.43213273  0.93117520  1
  Zn  Zn82  1  0.19508509  0.93027208  0.45170148  1
  Zn  Zn83  1  0.19464887  0.94526527  0.93817699  1
  Zn  Zn84  1  0.68181381  0.43601924  0.43413727  1
  Zn  Zn85  1  0.68356475  0.43073352  0.93841441  1
  Zn  Zn86  1  0.69984633  0.91941011  0.42961356  1
  Zn  Zn87  1  0.68868174  0.93092002  0.95054956  1
  Zn  Zn88  1  0.33289224  0.10171834  0.03593385  1
  Zn  Zn89  1  0.32341668  0.05363864  0.56504018  1
  Zn  Zn90  1  0.28863841  0.58209816  0.09123050  1
  Zn  Zn91  1  0.29158468  0.57038584  0.59283349  1
  Zn  Zn92  1  0.80594076  0.06053288  0.06431189  1
  Zn  Zn93  1  0.83098801  0.04686577  0.56911154  1
  Zn  Zn94  1  0.80903391  0.57020402  0.05946750  1
  Zn  Zn95  1  0.82368047  0.56990746  0.55669401  1
  Zn  Zn96  1  0.39868678  0.43247053  0.20337604  1
  Zn  Zn97  1  0.44613863  0.42967020  0.73805989  1
  Zn  Zn98  1  0.41392285  0.92058726  0.19939227  1
  Zn  Zn99  1  0.47869699  0.94866575  0.69799637  1
  Zn  Zn100  1  0.93828936  0.44352875  0.18373304  1
  Zn  Zn101  1  0.93197050  0.44190262  0.67322067  1
  Zn  Zn102  1  0.95060670  0.93911456  0.16533451  1
  Zn  Zn103  1  0.94625583  0.92849201  0.68648288  1
  Zn  Zn104  1  0.06309886  0.04997483  0.31737118  1
  Zn  Zn105  1  0.05153288  0.06542823  0.81134128  1
  Zn  Zn106  1  0.03593611  0.62634963  0.33723137  1
  Zn  Zn107  1  0.06316583  0.57069676  0.81061455  1
  Zn  Zn108  1  0.54639258  0.01101032  0.23769382  1
  Zn  Zn109  1  0.58142309  0.05943398  0.81158342  1
  Zn  Zn110  1  0.55838953  0.55929368  0.31046190  1
  Zn  Zn111  1  0.57356380  0.56159637  0.80117251  1
  Zn  Zn112  1  0.42096480  0.15438977  0.43763161  1
  Zn  Zn113  1  0.45733169  0.17796632  0.94684158  1
  Zn  Zn114  1  0.44282461  0.68464119  0.45704957  1
  Zn  Zn115  1  0.43080366  0.68460515  0.93463202  1
  Zn  Zn116  1  0.92089320  0.20158410  0.39231300  1
  Zn  Zn117  1  0.93037869  0.17545808  0.93043544  1
  Zn  Zn118  1  0.96985604  0.72028617  0.46529888  1
  Zn  Zn119  1  0.93659653  0.69666886  0.92735640  1
  Zn  Zn120  1  0.05497968  0.31782694  0.05740521  1
  Zn  Zn121  1  0.05130210  0.31431123  0.54478695  1
  Zn  Zn122  1  0.06307277  0.81573211  0.06056288  1
  Zn  Zn123  1  0.05643421  0.81908943  0.58978783  1
  Zn  Zn124  1  0.57494189  0.31400897  0.06772646  1
  Zn  Zn125  1  0.53098766  0.34785064  0.60148371  1
  Zn  Zn126  1  0.55922679  0.81020352  0.07107117  1
  Zn  Zn127  1  0.56627779  0.81457787  0.55464859  1
  O  O128  1  0.13213476  0.14402645  0.09638592  1
  O  O129  1  0.10636966  0.12344192  0.63027185  1
  O  O130  1  0.10819387  0.63402174  0.10169283  1
  O  O131  1  0.11051504  0.63058632  0.63933493  1
  O  O132  1  0.63642487  0.13574187  0.11133399  1
  O  O133  1  0.61360524  0.14060080  0.62483086  1
  O  O134  1  0.61227060  0.61914449  0.12859825  1
  O  O135  1  0.63733892  0.61330736  0.61730769  1
  O  O136  1  0.40923883  0.35536537  0.36388882  1
  O  O137  1  0.41824082  0.30512650  0.84085021  1
  O  O138  1  0.38802295  0.89664401  0.37267596  1
  O  O139  1  0.39252923  0.88749437  0.87819050  1
  O  O140  1  0.88454380  0.39569858  0.37079773  1
  O  O141  1  0.88254520  0.36937079  0.88709156  1
  O  O142  1  0.87899208  0.86269745  0.39125562  1
  O  O143  1  0.85822556  0.87835833  0.88603882  1
  O  O144  1  0.25381648  -0.00516161  0.37324346  1
  O  O145  1  0.27264656  -0.00284803  0.86472292  1
  O  O146  1  0.24892899  0.51159964  0.34827622  1
  O  O147  1  0.23437585  0.51568199  0.87262452  1
  O  O148  1  0.77263811  -0.02466879  0.36402141  1
  O  O149  1  0.75497200  -0.00085084  0.88509970  1
  O  O150  1  0.74750921  0.51031727  0.36372580  1
  O  O151  1  0.75581799  0.47028557  0.85075842  1
  O  O152  1  0.23992299  0.48907684  0.12183976  1
  O  O153  1  0.23132851  0.48690348  0.63414549  1
  O  O154  1  0.21511290  1.01591741  0.16420440  1
  O  O155  1  0.25872301  1.00593696  0.64669076  1
  O  O156  1  0.74050299  0.51020770  0.13524962  1
  O  O157  1  0.76144757  0.49330822  0.62053001  1
  O  O158  1  0.75042606  0.97745113  0.12119307  1
  O  O159  1  0.76290484  0.98769365  0.63556198  1
  O  O160  1  -0.00539673  0.38658565  0.26171970  1
  O  O161  1  -0.01451416  0.37471589  0.75730563  1
  O  O162  1  0.04074693  0.89178371  0.25085526  1
  O  O163  1  0.02559056  0.85188705  0.69939614  1
  O  O164  1  0.50833620  0.39124779  0.23788877  1
  O  O165  1  0.53306554  0.35584412  0.72233768  1
  O  O166  1  0.49254830  0.84822863  0.26396803  1
  O  O167  1  0.50740828  0.86019512  0.77036244  1
  O  O168  1  0.50335216  0.11992493  0.24234352  1
  O  O169  1  0.51965563  0.13322214  0.72924026  1
  O  O170  1  0.49790164  0.63241666  0.24333561  1
  O  O171  1  0.50815567  0.63304287  0.73142996  1
  O  O172  1  1.01359231  0.10373360  0.21957812  1
  O  O173  1  0.98659870  0.13663322  0.73817800  1
  O  O174  1  1.01519763  0.61585029  0.22550013  1
  O  O175  1  0.98558636  0.62748919  0.74405706  1
  O  O176  1  0.37875122  0.21650799  0.02242029  1
  O  O177  1  0.33790956  0.21429420  0.50391539  1
  O  O178  1  0.36067037  0.74224277  0.01258272  1
  O  O179  1  0.39369890  0.75939224  0.52669728  1
  O  O180  1  0.87953528  0.26218626  0.00097371  1
  O  O181  1  0.88187984  0.26148088  0.49297147  1
  O  O182  1  0.86203273  0.74661618  0.00064571  1
  O  O183  1  0.87721245  0.76051504  0.51402948  1
  O  O184  1  0.13160973  0.25645993  0.48150687  1
  O  O185  1  0.11153671  0.24982616  0.97902043  1
  O  O186  1  0.11421693  0.75321838  0.50387443  1
  O  O187  1  0.13478229  0.74626949  0.99240212  1
  O  O188  1  0.58313039  0.20767382  0.40181969  1
  O  O189  1  0.61646156  0.24360860  0.99039744  1
  O  O190  1  0.61571953  0.72862966  0.48900806  1
  O  O191  1  0.61550648  0.74298837  0.99335757  1
  O  O192  1  0.49365111  0.25608225  0.12107965  1
  O  O193  1  0.49920969  0.23690506  0.61791387  1
  O  O194  1  0.48589162  0.73876248  0.13678730  1
  O  O195  1  0.50415302  0.75804589  0.64010312  1
  O  O196  1  1.00070938  0.24619531  0.12984296  1
  O  O197  1  0.99581653  0.24038287  0.62418307  1
  O  O198  1  0.98654894  0.73686292  0.11301668  1
  O  O199  1  0.97973701  0.73777390  0.62771875  1
  O  O200  1  0.02685466  0.25988894  0.36845977  1
  O  O201  1  -0.01325585  0.25629129  0.85491949  1
  O  O202  1  0.02565448  0.73411477  0.37051327  1
  O  O203  1  0.01588409  0.75944174  0.87940090  1
  O  O204  1  0.51317716  0.22928370  0.38912131  1
  O  O205  1  0.47856106  0.27520235  0.87341411  1
  O  O206  1  0.49975014  0.73946637  0.37071773  1
  O  O207  1  0.50333550  0.75374639  0.87466038  1
  O  O208  1  0.27739410  0.15630472  0.51405516  1
  O  O209  1  0.23619549  0.12621561  0.97573925  1
  O  O210  1  0.22445196  0.65093424  0.54510612  1
  O  O211  1  0.23335440  0.62642804  0.99458575  1
  O  O212  1  0.70901818  0.07602341  0.49663626  1
  O  O213  1  0.73783553  0.12281397  0.99400819  1
  O  O214  1  0.74029954  0.62230299  0.48864985  1
  O  O215  1  0.73996829  0.64297778  1.00785305  1
  O  O216  1  0.24675605  0.38007500  0.00990213  1
  O  O217  1  0.25373825  0.37193954  0.49699970  1
  O  O218  1  0.24856732  0.86065034  0.00314901  1
  O  O219  1  0.27718891  0.90928056  0.52900161  1
  O  O220  1  0.75981025  0.37962894  0.00937830  1
  O  O221  1  0.76879533  0.37299171  0.47458525  1
  O  O222  1  0.73571209  0.85054277  0.02135183  1
  O  O223  1  0.76781629  0.87735317  0.51300959  1
  O  O224  1  0.20558347  0.54009985  0.29031120  1
  O  O225  1  0.11337027  0.49551727  0.74147854  1
  O  O226  1  0.09816212  0.95256126  0.25382678  1
  O  O227  1  0.13536296  1.00072939  0.76362730  1
  O  O228  1  0.63341879  0.49541292  0.24177330  1
  O  O229  1  0.62814426  0.48910526  0.72751135  1
  O  O230  1  0.66775237  1.03657863  0.25580331  1
  O  O231  1  0.58573538  0.98440395  0.73053869  1
  O  O232  1  0.38757109  0.00883371  0.26432639  1
  O  O233  1  0.39782754  0.00278213  0.76786985  1
  O  O234  1  0.38238155  0.52935349  0.25569312  1
  O  O235  1  0.32711092  0.44105161  0.76603871  1
  O  O236  1  0.89805978  -0.02109278  0.26031995  1
  O  O237  1  0.91105598  -0.01101616  0.78102273  1
  O  O238  1  0.85771902  0.50263453  0.25709717  1
  O  O239  1  0.87680279  0.51012445  0.74546282  1
  O  O240  1  0.11095424  0.39842637  0.37102832  1
  O  O241  1  0.09753246  0.36478418  0.87866045  1
  O  O242  1  0.13181773  0.86259380  0.38249612  1
  O  O243  1  0.13355215  0.86828475  0.88072933  1
  O  O244  1  0.60231549  0.38494286  0.36426139  1
  O  O245  1  0.61322283  0.38368396  0.86190585  1
  O  O246  1  0.62123586  0.84899142  0.38017661  1
  O  O247  1  0.60994837  0.86325351  0.88665859  1
  O  O248  1  0.35551689  0.10526808  0.14884143  1
  O  O249  1  0.40381231  0.12260665  0.63270470  1
  O  O250  1  0.38608337  0.62697785  0.12682297  1
  O  O251  1  0.37961201  0.63656599  0.62892163  1
  O  O252  1  0.87986849  0.13361557  0.11474870  1
  O  O253  1  0.88457918  0.14170620  0.60417520  1
  O  O254  1  0.88626241  0.63127286  0.12214172  1
  O  O255  1  0.87945876  0.63319064  0.63269928  1
  O  O256  1  0.27427096  0.26917203  0.12356588  1
  O  O257  1  0.22142815  0.26382374  0.61250907  1
  O  O258  1  0.25927208  0.72107906  0.11753035  1
  O  O259  1  0.27749522  0.78066301  0.64162469  1
  O  O260  1  0.74764473  0.27055648  0.12995577  1
  O  O261  1  0.76470822  0.24061674  0.60703497  1
  O  O262  1  0.76205587  0.74694463  0.12263687  1
  O  O263  1  0.76071469  0.75133547  0.62318273  1
  O  O264  1  0.24138807  0.25769493  0.38380886  1
  O  O265  1  0.21944690  0.25425291  0.85672063  1
  O  O266  1  0.24247701  0.75155282  0.39710488  1
  O  O267  1  0.25090458  0.74622956  0.88811936  1
  O  O268  1  0.72831931  0.24074572  0.35657956  1
  O  O269  1  0.76570380  0.22846727  0.87533076  1
  O  O270  1  0.73538579  0.73426673  0.36676741  1
  O  O271  1  0.73078767  0.75171564  0.89028380  1
  O  O272  1  0.00496112  0.13142059  0.00909192  1
  O  O273  1  0.00609679  0.11146954  0.50303512  1
  O  O274  1  0.00226275  0.61615492  -0.00658615  1
  O  O275  1  0.01562655  0.63079112  0.52212401  1
  O  O276  1  0.52185309  0.10796021  0.00798311  1
  O  O277  1  0.50848718  0.13566016  0.51614116  1
  O  O278  1  0.49488511  0.62801043  0.01415039  1
  O  O279  1  0.51103062  0.61862970  0.52923200  1
  O  O280  1  0.50029937  0.38165291  0.49858686  1
  O  O281  1  0.45615510  0.43789935  0.95863719  1
  O  O282  1  0.50874013  0.87787692  0.47752887  1
  O  O283  1  0.49727596  0.88158003  1.00008942  1
  O  O284  1  0.98539865  0.37722633  0.46990443  1
  O  O285  1  0.98250562  0.38990378  0.99962940  1
  O  O286  1  0.98505831  0.88501041  0.51850410  1
  O  O287  1  1.00636694  0.91029374  1.07021830  1
  O  O288  1  0.49055727  0.50215293  0.38426105  1
  O  O289  1  0.48351506  0.49021562  0.82981118  1
  O  O290  1  0.53130168  0.97914521  0.35095172  1
  O  O291  1  0.50387649  0.98794220  0.88319144  1
  O  O292  1  0.98449146  0.52322046  0.36392839  1
  O  O293  1  0.99855889  0.48884676  0.88146566  1
  O  O294  1  0.99277133  0.99433139  0.39023255  1
  O  O295  1  0.97005287  0.98686786  0.84334314  1
  O  O296  1  0.02004318  0.04833299  0.15595667  1
  O  O297  1  -0.01867185  0.01581035  0.61366546  1
  O  O298  1  -0.00906379  0.51278210  0.10464929  1
  O  O299  1  0.00532360  0.51817153  0.62488501  1
  O  O300  1  0.49845598  -0.01707180  0.13353258  1
  O  O301  1  0.51238286  0.02657305  0.61450427  1
  O  O302  1  0.51202259  0.51092022  0.12419727  1
  O  O303  1  0.46750152  0.50235528  0.64551286  1
  O  O304  1  0.29265920  0.38307389  0.22129811  1
  O  O305  1  0.28894038  0.38106261  0.78729035  1
  O  O306  1  0.24998282  0.87451588  0.25724862  1
  O  O307  1  0.26462225  0.89913155  0.74373967  1
  O  O308  1  0.74293126  0.39098335  0.23884867  1
  O  O309  1  0.75264152  0.41791517  0.79114261  1
  O  O310  1  0.75009345  0.86219343  0.23760825  1
  O  O311  1  0.73886402  0.86484479  0.73692833  1
  O  O312  1  0.20696368  0.06106935  0.22060046  1
  O  O313  1  0.24681049  0.11657645  0.75747312  1
  O  O314  1  0.24038795  0.60152126  0.25152559  1
  O  O315  1  0.25059517  0.62957794  0.75862762  1
  O  O316  1  0.74253175  0.20229636  0.41688810  1
  O  O317  1  0.73371646  0.11811933  0.76478582  1
  O  O318  1  0.73955612  0.61704112  0.26051240  1
  O  O319  1  0.75961887  0.62090232  0.75061798  1
  O  O320  1  0.36156026  0.12267801  0.34281543  1
  O  O321  1  0.38590260  0.11407472  0.87972881  1
  O  O322  1  0.35709146  0.60103600  0.42651382  1
  O  O323  1  0.35550169  0.62230782  0.87990439  1
  O  O324  1  0.87502959  0.09877998  0.37464964  1
  O  O325  1  0.85918014  0.10360212  0.87853085  1
  O  O326  1  0.85628685  0.61814539  0.37972211  1
  O  O327  1  0.87627495  0.62555122  0.86257497  1
  O  O328  1  0.14008386  0.35467644  0.12900316  1
  O  O329  1  0.10044908  0.38717494  0.62034012  1
  O  O330  1  0.14727330  0.83542507  0.14075804  1
  O  O331  1  0.15200671  0.87943093  0.61932769  1
  O  O332  1  0.63504628  0.39207476  0.12847127  1
  O  O333  1  0.64225381  0.38846345  0.61178289  1
  O  O334  1  0.63010525  0.86431041  0.14029660  1
  O  O335  1  0.64290888  0.87653284  0.60729322  1
  O  O336  1  0.14400983  0.24155791  0.26470525  1
  O  O337  1  0.09817324  0.24950439  0.75476624  1
  O  O338  1  0.14027809  0.74941432  0.27462973  1
  O  O339  1  0.13759549  0.75396329  0.76704069  1
  O  O340  1  0.61979134  0.27722778  0.24259236  1
  O  O341  1  0.68733076  0.29410500  0.74409394  1
  O  O342  1  0.60932978  0.73590439  0.26622501  1
  O  O343  1  0.61359286  0.74142441  0.76944699  1
  O  O344  1  0.38405629  0.23388500  0.22978426  1
  O  O345  1  0.35245343  0.29593638  0.68035582  1
  O  O346  1  0.37616009  0.73974715  0.24943051  1
  O  O347  1  0.39594619  0.75296695  0.74439146  1
  O  O348  1  0.88095937  0.23984491  0.29240361  1
  O  O349  1  0.88040267  0.26404938  0.71998072  1
  O  O350  1  0.87974289  0.74166986  0.24110355  1
  O  O351  1  0.86731202  0.74193008  0.74402011  1
  O  O352  1  0.34711667  0.54247365  0.47357499  1
  O  O353  1  0.43476907  0.48819298  0.90936452  1
  O  O354  1  0.38439597  1.03643682  0.46613892  1
  O  O355  1  0.40093970  1.01109813  0.99561365  1
  O  O356  1  0.87237015  0.49437522  0.48152082  1
  O  O357  1  0.87806570  0.50337050  0.99158696  1
  O  O358  1  0.88205651  0.98446007  0.48742730  1
  O  O359  1  0.87809790  0.99509294  0.99575336  1
  O  O360  1  0.12333875  0.01766172  -0.00970772  1
  O  O361  1  0.10737757  -0.01307879  0.50054644  1
  O  O362  1  0.11058703  0.51309324  -0.00917682  1
  O  O363  1  0.13222515  0.51914807  0.52018369  1
  O  O364  1  0.60861550  -0.00781297  0.01111945  1
  O  O365  1  0.65528648  0.02774240  0.47676947  1
  O  O366  1  0.63098560  0.50023435  0.01358307  1
  O  O367  1  0.63287801  0.50927262  0.51248790  1
  O  O368  1  0.39141684  0.37007274  0.09947881  1
  O  O369  1  0.38326177  0.35359160  0.64523285  1
  O  O370  1  0.36489123  0.84758297  0.13074552  1
  O  O371  1  0.40299952  0.88067781  0.63523616  1
  O  O372  1  0.86205964  0.38489948  0.11457325  1
  O  O373  1  0.88244002  0.36796143  0.59791387  1
  O  O374  1  0.86907841  0.85460404  0.12889562  1
  O  O375  1  0.86412220  0.86308796  0.62788213  1
  O  O376  1  0.13145379  0.12436975  0.37025563  1
  O  O377  1  0.10414353  0.14045547  0.88081306  1
  O  O378  1  0.13496332  0.62969824  0.40604320  1
  O  O379  1  0.12922457  0.63891163  0.88304563  1
  O  O380  1  0.68195816  0.09789866  0.29516049  1
  O  O381  1  0.63648265  0.11761416  0.88883435  1
  O  O382  1  0.62813843  0.62374452  0.38805508  1
  O  O383  1  0.61478693  0.62941336  0.88192660  1
