# generated using pymatgen
data_VZnO4
_symmetry_space_group_name_H-M   'P 1'
_cell_length_a   16.98144766
_cell_length_b   16.92636775
_cell_length_c   17.00743298
_cell_angle_alpha   90.15254893
_cell_angle_beta   89.99619398
_cell_angle_gamma   90.01156520
_symmetry_Int_Tables_number   1
_chemical_formula_structural   VZnO4
_chemical_formula_sum   'V64 Zn64 O256'
_cell_volume   4888.50093440
_cell_formula_units_Z   64
loop_
 _symmetry_equiv_pos_site_id
 _symmetry_equiv_pos_as_xyz
  1  'x, y, z'
loop_
 _atom_site_type_symbol
 _atom_site_label
 _atom_site_symmetry_multiplicity
 _atom_site_fract_x
 _atom_site_fract_y
 _atom_site_fract_z
 _atom_site_occupancy
  V  V0  1  0.88283098  0.86927749  0.48377255  1
  V  V1  1  0.75152884  0.11047392  0.36684509  1
  V  V2  1  0.47838310  0.10946991  0.58208470  1
  V  V3  1  0.88238554  0.23115149  0.63340659  1
  V  V4  1  0.59446930  0.63457752  0.00953805  1
  V  V5  1  0.75209718  0.62183093  0.36426656  1
  V  V6  1  0.90275872  0.13359450  0.25965295  1
  V  V7  1  0.25909560  0.26024640  0.49269323  1
  V  V8  1  0.63398933  0.45599438  0.09404904  1
  V  V9  1  0.50560012  0.25425667  0.23360857  1
  V  V10  1  -0.00016297  0.49978551  0.51627734  1
  V  V11  1  0.25334661  0.48960383  0.24413872  1
  V  V12  1  0.65288038  0.11156869  -0.00598149  1
  V  V13  1  0.61686315  0.74736479  0.37536038  1
  V  V14  1  0.26712222  0.38794311  0.61553205  1
  V  V15  1  0.63672269  0.39368067  0.27245570  1
  V  V16  1  0.12047091  0.25294646  0.35966174  1
  V  V17  1  0.09295476  0.86645551  0.25612430  1
  V  V18  1  0.63552702  0.00732866  0.59901626  1
  V  V19  1  0.12148613  0.38519337  0.73165546  1
  V  V20  1  0.10966455  0.63005692  0.00576448  1
  V  V21  1  0.01383430  0.01415135  0.48695048  1
  V  V22  1  0.11828038  0.14040173  -0.00411800  1
  V  V23  1  0.61209883  0.01019406  0.13673042  1
  V  V24  1  0.26246436  0.62003061  0.38162382  1
  V  V25  1  0.92551846  0.67084697  0.19258465  1
  V  V26  1  0.49008530  0.88290240  0.87288668  1
  V  V27  1  0.50769355  0.61356095  0.61891713  1
  V  V28  1  0.25027648  0.86038663  0.14790999  1
  V  V29  1  0.75230477  0.87807980  0.63042273  1
  V  V30  1  0.31554457  0.04285257  0.34241612  1
  V  V31  1  0.12132824  0.49186608  0.12623465  1
  V  V32  1  0.37624632  0.62384900  0.74268824  1
  V  V33  1  0.74779913  0.75296424  0.50321461  1
  V  V34  1  0.38622110  0.76670726  0.61515570  1
  V  V35  1  0.39217442  0.50574394  0.88061308  1
  V  V36  1  0.63620105  0.25653872  0.86568424  1
  V  V37  1  0.11230805  0.74458001  0.36975775  1
  V  V38  1  0.25440044  0.76569239  0.49613080  1
  V  V39  1  0.74814250  0.50224681  0.76782118  1
  V  V40  1  0.61809417  0.25257357  0.38933034  1
  V  V41  1  0.84930199  0.24694024  0.12429444  1
  V  V42  1  0.49023434  0.88678140  0.38900321  1
  V  V43  1  -0.02538586  0.37268255  0.86825987  1
  V  V44  1  0.63057979  0.75197088  0.88101767  1
  V  V45  1  0.76083546  0.38293605  0.61421656  1
  V  V46  1  0.76649301  0.24132364  0.49362082  1
  V  V47  1  0.62435967  0.87683166  0.24884138  1
  V  V48  1  0.25004517  0.88439450  0.64503677  1
  V  V49  1  0.10506357  -0.00488297  0.11778407  1
  V  V50  1  0.47530147  0.00916569  0.01006815  1
  V  V51  1  0.87443130  0.49661198  0.37530394  1
  V  V52  1  0.61995404  0.37330872  0.73781248  1
  V  V53  1  0.00718996  0.38311574  0.36363674  1
  V  V54  1  0.74897329  0.87479008  0.10501864  1
  V  V55  1  0.36080474  0.85908032  0.00315865  1
  V  V56  1  0.89098371  0.61338542  0.73501204  1
  V  V57  1  0.49115647  0.75088123  0.23476673  1
  V  V58  1  0.50910018  0.75936600  0.74727111  1
  V  V59  1  0.37747677  0.62138586  0.22389803  1
  V  V60  1  0.11796671  0.63167716  0.51740007  1
  V  V61  1  0.23318056  0.62738241  0.87804593  1
  V  V62  1  0.13185303  0.13701686  0.51582885  1
  V  V63  1  0.62392031  0.61216519  0.50002982  1
  Zn  Zn64  1  0.14679625  0.20125500  0.16116739  1
  Zn  Zn65  1  0.20536155  0.21126984  0.68509995  1
  Zn  Zn66  1  0.19203667  0.68046561  0.19055017  1
  Zn  Zn67  1  0.19573328  0.71096597  0.70056022  1
  Zn  Zn68  1  0.68108100  0.19107748  0.20795994  1
  Zn  Zn69  1  0.70810507  0.18566233  0.68869315  1
  Zn  Zn70  1  0.69034745  0.69989503  0.18580974  1
  Zn  Zn71  1  0.68720539  0.68760931  0.68694391  1
  Zn  Zn72  1  0.30562741  0.25148335  0.29336287  1
  Zn  Zn73  1  0.25787157  0.41294051  0.82972447  1
  Zn  Zn74  1  0.31633799  0.80515987  0.31940192  1
  Zn  Zn75  1  0.31420007  0.80449258  0.81175973  1
  Zn  Zn76  1  0.82056740  0.31583687  0.31445243  1
  Zn  Zn77  1  0.80767383  0.30727879  0.80583034  1
  Zn  Zn78  1  0.81118867  0.80700826  0.30758854  1
  Zn  Zn79  1  0.81273985  0.80882689  0.80762036  1
  Zn  Zn80  1  0.18262126  0.44460308  0.44117432  1
  Zn  Zn81  1  0.10409013  0.44221273  0.93765139  1
  Zn  Zn82  1  0.18632795  0.94719344  0.42070761  1
  Zn  Zn83  1  0.17019258  0.93260881  0.95141832  1
  Zn  Zn84  1  0.69387923  0.43411595  0.44145064  1
  Zn  Zn85  1  0.65406093  0.45054216  0.92061885  1
  Zn  Zn86  1  0.68219767  0.93371707  0.43148005  1
  Zn  Zn87  1  0.66223872  0.93764506  0.94897314  1
  Zn  Zn88  1  0.28336294  0.04304561  0.06537798  1
  Zn  Zn89  1  0.30427382  0.05304680  0.53679482  1
  Zn  Zn90  1  0.29679799  0.55874824  0.05199012  1
  Zn  Zn91  1  0.29034298  0.59153460  0.59041442  1
  Zn  Zn92  1  0.79915667  0.05524975  0.16282009  1
  Zn  Zn93  1  0.82199420  0.05588531  0.54941288  1
  Zn  Zn94  1  0.77860459  0.58505733  0.07577930  1
  Zn  Zn95  1  0.81786820  0.57044222  0.56179696  1
  Zn  Zn96  1  0.45464567  0.43039064  0.19240124  1
  Zn  Zn97  1  0.43913291  0.43544304  0.68820257  1
  Zn  Zn98  1  0.42868114  0.93841649  0.19483712  1
  Zn  Zn99  1  0.44943988  0.94561448  0.67806327  1
  Zn  Zn100  1  0.92381509  0.47541007  0.18098369  1
  Zn  Zn101  1  0.93315996  0.42829974  0.69435048  1
  Zn  Zn102  1  0.93152771  0.93566485  0.19251113  1
  Zn  Zn103  1  0.94365362  0.93836303  0.63601594  1
  Zn  Zn104  1  0.09083327  0.05975626  0.31370170  1
  Zn  Zn105  1  0.06734525  0.21357621  0.81545059  1
  Zn  Zn106  1  0.06651411  0.56348900  0.31221968  1
  Zn  Zn107  1  0.05899464  0.55310007  0.81001008  1
  Zn  Zn108  1  0.55770773  0.07198471  0.32343700  1
  Zn  Zn109  1  0.53924170  0.08862283  0.84789180  1
  Zn  Zn110  1  0.57336343  0.57105600  0.20256105  1
  Zn  Zn111  1  0.56696370  0.56924686  0.80916439  1
  Zn  Zn112  1  0.42725428  0.17780057  0.41010197  1
  Zn  Zn113  1  0.45792029  0.21382782  0.93753194  1
  Zn  Zn114  1  0.44040105  0.68910541  0.43970134  1
  Zn  Zn115  1  0.43479396  0.69331339  0.93133283  1
  Zn  Zn116  1  0.94276962  0.19213576  0.43368038  1
  Zn  Zn117  1  0.95103350  0.20887271  0.96235522  1
  Zn  Zn118  1  0.93462802  0.68358394  0.44301094  1
  Zn  Zn119  1  0.91548487  0.66504063  1.01755944  1
  Zn  Zn120  1  0.04764727  0.32616748  0.06984417  1
  Zn  Zn121  1  0.05616817  0.31346338  0.55980505  1
  Zn  Zn122  1  0.06694187  0.77256230  0.09743396  1
  Zn  Zn123  1  0.07553101  0.83701362  0.55539663  1
  Zn  Zn124  1  0.63718418  0.28403293  0.07753494  1
  Zn  Zn125  1  0.58358050  0.27635265  0.58243808  1
  Zn  Zn126  1  0.55621396  0.82103730  0.05908285  1
  Zn  Zn127  1  0.57173553  0.82075759  0.56274088  1
  O  O128  1  0.10890112  0.09002142  0.15047444  1
  O  O129  1  0.13515621  0.13856612  0.61448235  1
  O  O130  1  0.13110704  0.62191926  0.11257505  1
  O  O131  1  0.13823627  0.64662675  0.61363793  1
  O  O132  1  0.62701710  0.11206253  0.12455378  1
  O  O133  1  0.65391265  0.09654529  0.64546921  1
  O  O134  1  0.62042629  0.63978693  0.11389983  1
  O  O135  1  0.61553905  0.63260630  0.61165862  1
  O  O136  1  0.45744066  0.35622771  0.50103303  1
  O  O137  1  0.36646105  0.40861489  0.85895604  1
  O  O138  1  0.39304685  0.86357628  0.37647044  1
  O  O139  1  0.38350587  0.86446363  0.88532744  1
  O  O140  1  0.88492698  0.39165090  0.38404342  1
  O  O141  1  0.87536593  0.38035046  0.86214303  1
  O  O142  1  0.86594402  0.86970130  0.38507144  1
  O  O143  1  0.87872455  0.95726816  0.78542202  1
  O  O144  1  0.21274118  0.02546636  0.33813143  1
  O  O145  1  0.21896419  0.00901063  0.85070955  1
  O  O146  1  0.24183368  0.51690509  0.36627533  1
  O  O147  1  0.26614951  0.53350842  0.85206624  1
  O  O148  1  0.74759746  0.01230197  0.37856414  1
  O  O149  1  0.87024975  0.01236479  0.93794047  1
  O  O150  1  0.76313829  0.51401150  0.39290279  1
  O  O151  1  0.74503476  0.49603180  0.86666156  1
  O  O152  1  0.24815430  0.50216032  0.13875538  1
  O  O153  1  0.25570893  0.48675413  0.59561465  1
  O  O154  1  0.21771262  0.96341587  0.11827067  1
  O  O155  1  0.25798755  0.97819107  0.60993747  1
  O  O156  1  0.71919473  0.50515835  0.12184799  1
  O  O157  1  0.75784933  0.48396403  0.61214121  1
  O  O158  1  0.71816553  0.98692568  0.13050995  1
  O  O159  1  0.75068139  0.98459838  0.60834049  1
  O  O160  1  -0.00343505  0.39370678  0.26760895  1
  O  O161  1  0.01019964  0.37345008  0.76048230  1
  O  O162  1  -0.00527346  0.85622578  0.25210104  1
  O  O163  1  -0.09396407  0.88150105  0.78978788  1
  O  O164  1  0.52268214  0.36678621  0.25894696  1
  O  O165  1  0.52149714  0.36914562  0.72715337  1
  O  O166  1  0.50104277  0.86170608  0.25773531  1
  O  O167  1  0.49280696  0.87551951  0.76451783  1
  O  O168  1  0.50841832  0.15538180  0.26553524  1
  O  O169  1  0.45992052  0.08730554  0.75917914  1
  O  O170  1  0.48758064  0.63556053  0.24138567  1
  O  O171  1  0.50197204  0.63720127  0.73249916  1
  O  O172  1  1.00034644  0.13278578  0.26834071  1
  O  O173  1  1.02953507  0.10591134  0.76986654  1
  O  O174  1  0.99621998  0.63092019  0.25086225  1
  O  O175  1  0.99003106  0.60573065  0.73735901  1
  O  O176  1  0.40256398  0.27998032  0.01439682  1
  O  O177  1  0.35468376  0.24865918  0.47102549  1
  O  O178  1  0.37505302  0.76074349  0.00240594  1
  O  O179  1  0.36853273  0.74853234  0.50830802  1
  O  O180  1  0.86436898  0.24431932  0.02473953  1
  O  O181  1  0.86922554  0.24986313  0.50489025  1
  O  O182  1  0.80917140  0.65608432  0.00110233  1
  O  O183  1  0.85134201  0.74976159  0.49321395  1
  O  O184  1  0.12560849  0.24584154  0.49368719  1
  O  O185  1  0.10976984  0.23105097  1.05920361  1
  O  O186  1  0.13277537  0.74652872  0.48930918  1
  O  O187  1  0.11567911  0.73173775  1.00340970  1
  O  O188  1  0.64713007  0.24590750  0.49296715  1
  O  O189  1  0.62723680  0.21678252  0.98202633  1
  O  O190  1  0.63160994  0.74901950  0.48959188  1
  O  O191  1  0.61384110  0.74559445  0.99097285  1
  O  O192  1  0.53543505  0.25354376  0.13713774  1
  O  O193  1  0.51524425  0.19787712  0.61850023  1
  O  O194  1  0.49556763  0.76011139  0.13758208  1
  O  O195  1  0.50214566  0.75956891  0.63155825  1
  O  O196  1  0.95067480  0.30765931  0.13750680  1
  O  O197  1  0.97955880  0.25528037  0.62076970  1
  O  O198  1  0.96581676  0.72700101  0.11128224  1
  O  O199  1  1.02459804  0.76483901  0.68040910  1
  O  O200  1  0.00674509  0.27367576  0.38105429  1
  O  O201  1  -0.02343871  0.25982116  0.86525848  1
  O  O202  1  0.01488641  0.73695342  0.37806644  1
  O  O203  1  -0.01709667  0.80233136  0.90385734  1
  O  O204  1  0.51930162  0.24791274  0.39601977  1
  O  O205  1  0.53836260  0.20466623  0.85752190  1
  O  O206  1  0.50878042  0.75015246  0.37023707  1
  O  O207  1  0.50320539  0.76184594  0.86405278  1
  O  O208  1  0.23704768  0.14487653  0.49678189  1
  O  O209  1  0.21818055  0.12236907  1.02459042  1
  O  O210  1  0.24198554  0.63661320  0.49354203  1
  O  O211  1  0.24929308  0.63922920  0.97737305  1
  O  O212  1  0.76427066  0.13311047  0.48204908  1
  O  O213  1  0.74645338  0.10224238  1.01068954  1
  O  O214  1  0.73737430  0.63733277  0.50219336  1
  O  O215  1  0.62830724  0.53544131  0.99571804  1
  O  O216  1  0.24550843  0.31801281  0.00423454  1
  O  O217  1  0.24433449  0.36892112  0.50099742  1
  O  O218  1  0.26134364  0.87376719  -0.01609296  1
  O  O219  1  0.24077085  0.86523650  0.48606684  1
  O  O220  1  0.83132868  0.41380278  0.00734816  1
  O  O221  1  0.75312292  0.36248553  0.51009059  1
  O  O222  1  0.74628615  0.88918541  0.00382645  1
  O  O223  1  0.75193962  0.86265553  0.49495584  1
  O  O224  1  0.14363314  0.51256324  0.23911067  1
  O  O225  1  0.12140644  0.48706770  0.73955998  1
  O  O226  1  0.10433799  0.96884097  0.24237949  1
  O  O227  1  0.17767463  1.02225197  0.79217594  1
  O  O228  1  0.61910420  0.49344795  0.27506509  1
  O  O229  1  0.63168009  0.48240536  0.75652709  1
  O  O230  1  0.60226041  0.99307465  0.24072456  1
  O  O231  1  0.74646608  1.03795460  0.78754632  1
  O  O232  1  0.36409319  -0.00572320  0.26732690  1
  O  O233  1  0.40798813  0.03027257  0.75631459  1
  O  O234  1  0.37316223  0.51366163  0.23813903  1
  O  O235  1  0.39426910  0.52225916  0.74893792  1
  O  O236  1  0.88375472  0.02865498  0.23921992  1
  O  O237  1  0.90698730  -0.00034780  0.72478467  1
  O  O238  1  0.87151803  0.50372584  0.27708499  1
  O  O239  1  0.85890656  0.50753918  0.74600478  1
  O  O240  1  0.11268481  0.37698391  0.37618043  1
  O  O241  1  0.15233440  0.38396866  0.85213944  1
  O  O242  1  0.12524082  0.85888489  0.36306087  1
  O  O243  1  0.09799919  0.86596451  0.88630905  1
  O  O244  1  0.62531548  0.36388599  0.38351281  1
  O  O245  1  0.61649301  0.35912788  0.85858768  1
  O  O246  1  0.61273156  0.86573091  0.36775967  1
  O  O247  1  0.60094523  0.86581420  0.88640215  1
  O  O248  1  0.32078085  0.19113921  0.13754479  1
  O  O249  1  0.38106628  0.10292602  0.60540926  1
  O  O250  1  0.36234987  0.62899164  0.12844702  1
  O  O251  1  0.39837707  0.64051086  0.62180178  1
  O  O252  1  0.87480858  0.14382623  0.14312709  1
  O  O253  1  0.87470577  0.13091286  0.61597452  1
  O  O254  1  0.87675063  0.59017367  0.14655389  1
  O  O255  1  0.86285462  0.63885627  0.64117930  1
  O  O256  1  0.25873603  0.19866142  0.19581782  1
  O  O257  1  0.25780502  0.26634008  0.60020349  1
  O  O258  1  0.24355970  0.76195128  0.12614928  1
  O  O259  1  0.26865645  0.76546048  0.61648987  1
  O  O260  1  0.74408073  0.25112291  0.12982643  1
  O  O261  1  0.76027696  0.24908498  0.60784862  1
  O  O262  1  0.73731881  0.77503298  0.11936977  1
  O  O263  1  0.73191898  0.76369432  0.60984318  1
  O  O264  1  0.22804352  0.26690535  0.37944570  1
  O  O265  1  0.26051710  0.27968609  0.94512200  1
  O  O266  1  0.24774687  0.73708070  0.38229721  1
  O  O267  1  0.23464203  0.71870288  0.81948879  1
  O  O268  1  0.75222034  0.25022620  0.38781009  1
  O  O269  1  0.73595592  0.24584689  0.87538870  1
  O  O270  1  0.73698058  0.73982574  0.38152848  1
  O  O271  1  0.72805410  0.76964245  0.87227875  1
  O  O272  1  0.01393815  0.12373799  -0.00344854  1
  O  O273  1  0.00888763  0.11886913  0.49924018  1
  O  O274  1  0.01171936  0.61342436  -0.00551952  1
  O  O275  1  0.01337703  0.62971613  0.50879452  1
  O  O276  1  0.47902607  0.10854076  -0.00836531  1
  O  O277  1  0.48464517  0.11057424  0.48220594  1
  O  O278  1  0.49627429  0.63205887  0.00670032  1
  O  O279  1  0.51344430  0.62933496  0.50782080  1
  O  O280  1  0.52247032  0.37627483  0.52831632  1
  O  O281  1  0.43303814  0.34847232  1.04385654  1
  O  O282  1  0.50616657  0.87421877  0.48775447  1
  O  O283  1  0.48017672  0.88379386  0.99581244  1
  O  O284  1  1.00744798  0.39884205  0.49202488  1
  O  O285  1  1.01400737  0.36397682  0.96939678  1
  O  O286  1  0.97547509  0.83285412  0.49744324  1
  O  O287  1  1.03052588  0.85335080  0.93147851  1
  O  O288  1  0.47205431  0.48427153  0.39708625  1
  O  O289  1  0.49376659  0.50956352  0.87403961  1
  O  O290  1  0.50360988  0.98528297  0.37147600  1
  O  O291  1  0.49602139  0.98745470  0.89293639  1
  O  O292  1  0.99330555  0.50110545  0.38204554  1
  O  O293  1  1.00604785  0.47602619  0.87488763  1
  O  O294  1  1.01785319  0.99072534  0.39100538  1
  O  O295  1  1.02450330  0.99842437  0.84638472  1
  O  O296  1  0.00977972  -0.03750981  0.11392435  1
  O  O297  1  0.03529941  -0.04785327  0.57415414  1
  O  O298  1  0.02134609  0.50034766  0.13098360  1
  O  O299  1  -0.01236186  0.49362548  0.61372823  1
  O  O300  1  0.49746760  -0.00404986  0.11804888  1
  O  O301  1  0.52334252  0.01335724  0.62018074  1
  O  O302  1  0.53778430  0.48900938  0.12658854  1
  O  O303  1  0.50084094  0.51610565  0.62341505  1
  O  O304  1  0.26132115  0.39466076  0.25858972  1
  O  O305  1  0.23996058  0.37930787  0.71888986  1
  O  O306  1  0.25269322  0.86633769  0.24762373  1
  O  O307  1  0.26547958  0.88309332  0.74468234  1
  O  O308  1  0.73795497  0.38418203  0.27816885  1
  O  O309  1  0.74555202  0.38992321  0.73883717  1
  O  O310  1  0.72501590  0.86901681  0.25642377  1
  O  O311  1  0.75303519  0.86834407  0.72861749  1
  O  O312  1  0.35166749  0.12066606  0.13480782  1
  O  O313  1  0.27737069  0.15570083  0.76958014  1
  O  O314  1  0.26893945  0.62596509  0.26297374  1
  O  O315  1  0.27976881  0.62320328  0.70714360  1
  O  O316  1  0.75250631  0.11910556  0.26025009  1
  O  O317  1  0.77806673  0.10110722  0.76802993  1
  O  O318  1  0.73293486  0.62684527  0.26698094  1
  O  O319  1  0.73447703  0.60118411  0.74230489  1
  O  O320  1  0.34306605  0.14430084  0.34056494  1
  O  O321  1  0.35583789  0.17081618  0.87440853  1
  O  O322  1  0.36276048  0.62128270  0.38794674  1
  O  O323  1  0.37604714  0.63277233  0.85122562  1
  O  O324  1  0.86777336  0.13222983  0.36403916  1
  O  O325  1  0.99989038  0.06834693  0.83364372  1
  O  O326  1  0.85569931  0.62734844  0.37742721  1
  O  O327  1  0.86280313  0.64801495  0.83836620  1
  O  O328  1  0.12940874  0.39175919  0.12009782  1
  O  O329  1  0.12241320  0.37689105  0.62781815  1
  O  O330  1  0.12382500  0.85582298  0.14810272  1
  O  O331  1  0.15233328  0.85636324  0.63510073  1
  O  O332  1  0.64122101  0.37588105  0.16126960  1
  O  O333  1  0.64594730  0.36029628  0.63376671  1
  O  O334  1  0.62100220  0.88453955  0.13152325  1
  O  O335  1  0.63734259  0.89670036  0.62038264  1
  O  O336  1  0.12285616  0.25250450  0.26052142  1
  O  O337  1  0.12880414  0.26887998  0.74280492  1
  O  O338  1  0.12663514  0.74932438  0.26349170  1
  O  O339  1  0.07317518  0.75242771  0.73460636  1
  O  O340  1  0.62272490  0.26315730  0.27526183  1
  O  O341  1  0.64424693  0.25835907  0.75472843  1
  O  O342  1  0.60862451  0.75382893  0.25601207  1
  O  O343  1  0.61577784  0.74633530  0.76251965  1
  O  O344  1  0.40523357  0.27631273  0.24488266  1
  O  O345  1  0.33182759  0.20077333  0.80589067  1
  O  O346  1  0.38629505  0.73550073  0.25448683  1
  O  O347  1  0.39169606  0.74386683  0.73583707  1
  O  O348  1  0.86931203  0.23982220  0.24674874  1
  O  O349  1  0.85487211  0.23557917  0.73215598  1
  O  O350  1  0.86244129  0.73256762  0.24183517  1
  O  O351  1  0.87964617  0.71435825  0.78898215  1
  O  O352  1  0.40723839  0.45465765  0.40919160  1
  O  O353  1  0.37096948  0.51654395  0.97811918  1
  O  O354  1  0.33692391  1.00937614  0.43578020  1
  O  O355  1  0.37354994  0.99101721  1.01081877  1
  O  O356  1  0.89509108  0.52329113  0.48989631  1
  O  O357  1  0.87005823  0.47538206  1.00689595  1
  O  O358  1  0.90122514  0.98075268  0.50280426  1
  O  O359  1  0.90930812  0.95464616  0.95636981  1
  O  O360  1  0.11508431  0.01180628  0.01069138  1
  O  O361  1  0.12863914  0.02913311  0.48748945  1
  O  O362  1  0.14238584  0.51312048  0.01707318  1
  O  O363  1  0.11375948  0.52296238  0.50013332  1
  O  O364  1  0.60207194  0.00761185  0.01938338  1
  O  O365  1  0.63428521  0.01455666  0.50070370  1
  O  O366  1  0.64369697  0.38635556  0.01606601  1
  O  O367  1  0.62958683  0.51429753  0.49761843  1
  O  O368  1  0.39010121  0.37608669  0.10348785  1
  O  O369  1  0.36687104  0.38011375  0.62426105  1
  O  O370  1  0.35517616  0.87752058  0.11654123  1
  O  O371  1  0.37669186  0.87154145  0.62772425  1
  O  O372  1  0.88540119  0.36196763  0.14189830  1
  O  O373  1  0.86086776  0.36076046  0.63274681  1
  O  O374  1  0.84313507  0.89333352  0.13454139  1
  O  O375  1  0.85680497  0.86851831  0.60431855  1
  O  O376  1  0.11396631  0.15174477  0.38009443  1
  O  O377  1  0.13221598  0.16950048  0.90193689  1
  O  O378  1  0.13623398  0.63585532  0.38163186  1
  O  O379  1  0.12924489  0.61150315  0.88593116  1
  O  O380  1  0.64494753  0.13934104  0.37154744  1
  O  O381  1  0.64432963  0.07937140  0.89466684  1
  O  O382  1  0.63409959  0.63201041  0.39142400  1
  O  O383  1  0.61485776  0.64499436  0.88804438  1
