# generated using pymatgen
data_VZnO4
_symmetry_space_group_name_H-M   'P 1'
_cell_length_a   16.96626033
_cell_length_b   16.99526695
_cell_length_c   16.97626112
_cell_angle_alpha   90.22166259
_cell_angle_beta   90.42662402
_cell_angle_gamma   90.09869770
_symmetry_Int_Tables_number   1
_chemical_formula_structural   VZnO4
_chemical_formula_sum   'V64 Zn64 O256'
_cell_volume   4894.85924598
_cell_formula_units_Z   64
loop_
 _symmetry_equiv_pos_site_id
 _symmetry_equiv_pos_as_xyz
  1  'x, y, z'
loop_
 _atom_site_type_symbol
 _atom_site_label
 _atom_site_symmetry_multiplicity
 _atom_site_fract_x
 _atom_site_fract_y
 _atom_site_fract_z
 _atom_site_occupancy
  V  V0  1  0.75305711  0.00253916  0.73828063  1
  V  V1  1  0.25745217  0.36880761  0.61961684  1
  V  V2  1  0.34519146  0.86963121  -0.00853920  1
  V  V3  1  0.48724764  0.49619449  0.50115013  1
  V  V4  1  0.60003889  0.74220866  0.36212879  1
  V  V5  1  0.12033155  0.53714166  0.12359466  1
  V  V6  1  0.13125197  0.37816138  0.75474266  1
  V  V7  1  0.50870793  0.10395305  0.12475650  1
  V  V8  1  0.25260926  0.10735337  0.36618799  1
  V  V9  1  0.11677825  0.87804091  0.73299267  1
  V  V10  1  0.38212402  0.11779306  0.25301240  1
  V  V11  1  0.24464230  0.37541752  0.12622799  1
  V  V12  1  0.75237814  0.36571022  0.61955999  1
  V  V13  1  0.48866642  0.62269554  0.14124606  1
  V  V14  1  0.25751252  0.24332384  0.48611525  1
  V  V15  1  0.38607511  0.24618005  0.63850554  1
  V  V16  1  0.88710626  0.36588463  0.49752920  1
  V  V17  1  0.76488940  0.37260333  0.11751505  1
  V  V18  1  0.12688615  0.83694930  0.23198721  1
  V  V19  1  -0.00289750  0.51320867  -0.01059367  1
  V  V20  1  0.26141916  0.50254918  0.76054126  1
  V  V21  1  0.27435409  0.11263482  0.88159844  1
  V  V22  1  0.25510557  -0.00047839  0.74220478  1
  V  V23  1  0.63383176  0.61435395  0.49948150  1
  V  V24  1  0.48610100  0.36711722  0.86834319  1
  V  V25  1  0.88022188  0.60501501  0.24637432  1
  V  V26  1  0.13388043  0.26859926  0.36174031  1
  V  V27  1  0.73984160  0.88172295  0.12865625  1
  V  V28  1  0.12626281  0.51078450  0.61463788  1
  V  V29  1  0.84260193  0.48945021  0.37373993  1
  V  V30  1  -0.00138060  0.81974629  0.37143682  1
  V  V31  1  0.74040027  0.75999096  0.50368981  1
  V  V32  1  0.62156980  0.49680814  0.63790273  1
  V  V33  1  0.13296828  0.24659229  0.88782000  1
  V  V34  1  0.87622729  0.13340664  0.74473197  1
  V  V35  1  -0.00885972  0.88011176  0.87827709  1
  V  V36  1  0.62326216  0.14173087  0.00124579  1
  V  V37  1  0.62994595  0.85858212  0.75445442  1
  V  V38  1  0.17394545  0.74872279  0.41359387  1
  V  V39  1  0.35567541  0.75091035  0.13357216  1
  V  V40  1  0.36338067  0.76213511  0.62104444  1
  V  V41  1  0.86792491  0.77539347  0.65042598  1
  V  V42  1  0.63430095  0.12112740  0.50396432  1
  V  V43  1  0.88273431  0.01152396  0.88262488  1
  V  V44  1  0.75845729  0.63276996  0.87295755  1
  V  V45  1  0.62768157  0.49722584  0.13552863  1
  V  V46  1  0.50094445  0.10136973  0.62678494  1
  V  V47  1  0.49578193  0.89680712  0.40230670  1
  V  V48  1  0.11807480  0.75643903  0.87724606  1
  V  V49  1  0.48901211  0.49685570  -0.01135528  1
  V  V50  1  0.01898147  0.11428670  0.61503991  1
  V  V51  1  0.63076876  0.25666376  0.38356897  1
  V  V52  1  0.87033217  0.11166857  0.26211884  1
  V  V53  1  0.48106066  0.36657666  0.37893274  1
  V  V54  1  0.38774442  0.64688426  0.75828129  1
  V  V55  1  0.77142117  0.49484060  0.75766389  1
  V  V56  1  -0.02360958  0.62237029  0.62911142  1
  V  V57  1  -0.01758061  0.37831148  0.87754523  1
  V  V58  1  0.24228701  0.63688272  0.88056749  1
  V  V59  1  0.15416757  0.04609398  0.10951756  1
  V  V60  1  0.00593512  0.25302820  0.73670440  1
  V  V61  1  0.39739930  0.26087605  0.11556194  1
  V  V62  1  0.63762150  0.26026702  0.86354886  1
  V  V63  1  0.62360142  0.62763323  -0.01259005  1
  Zn  Zn64  1  0.20832790  0.20475141  0.18457439  1
  Zn  Zn65  1  0.19277448  0.18379285  0.69591182  1
  Zn  Zn66  1  0.15278874  0.74137547  0.08629537  1
  Zn  Zn67  1  0.18502408  0.69379026  0.69432324  1
  Zn  Zn68  1  0.61989492  0.24037923  0.17613247  1
  Zn  Zn69  1  0.67911465  0.19079724  0.68327351  1
  Zn  Zn70  1  0.67927792  0.68210461  0.18357459  1
  Zn  Zn71  1  0.69541463  0.67811526  0.68569466  1
  Zn  Zn72  1  0.33749863  0.32229226  0.28559523  1
  Zn  Zn73  1  0.30982961  0.30392763  0.81730476  1
  Zn  Zn74  1  0.38364544  0.75090672  0.34872036  1
  Zn  Zn75  1  0.30336425  0.81966550  0.80482988  1
  Zn  Zn76  1  0.80145804  0.31422182  0.30887221  1
  Zn  Zn77  1  0.80996750  0.30965788  0.80402195  1
  Zn  Zn78  1  0.81737008  0.77360282  0.35675659  1
  Zn  Zn79  1  0.79009734  0.83058897  0.82528584  1
  Zn  Zn80  1  0.20429093  0.44570621  0.43657164  1
  Zn  Zn81  1  0.19860897  0.44235988  0.94479493  1
  Zn  Zn82  1  0.28524174  0.89428275  0.35652530  1
  Zn  Zn83  1  0.17697459  0.94580079  0.94071210  1
  Zn  Zn84  1  0.68050852  0.42593996  0.44466453  1
  Zn  Zn85  1  0.68312181  0.43893945  0.94015107  1
  Zn  Zn86  1  0.68330538  0.94763081  0.57461485  1
  Zn  Zn87  1  0.70224071  0.95974771  0.93082318  1
  Zn  Zn88  1  0.33697634  0.06135589  0.04913213  1
  Zn  Zn89  1  0.30595638  0.07596674  0.57075768  1
  Zn  Zn90  1  0.30618879  0.55549295  0.06136438  1
  Zn  Zn91  1  0.32789533  0.55478354  0.59731581  1
  Zn  Zn92  1  0.80664374  0.07726695  0.05693997  1
  Zn  Zn93  1  0.81664707  0.09820797  0.57276998  1
  Zn  Zn94  1  0.80630839  0.55192658  0.05064620  1
  Zn  Zn95  1  0.80718980  0.54338402  0.55911571  1
  Zn  Zn96  1  0.48735042  0.41256135  0.17282446  1
  Zn  Zn97  1  0.44229938  0.43296440  0.69130346  1
  Zn  Zn98  1  0.29977109  0.93647166  0.18545646  1
  Zn  Zn99  1  0.44531102  0.93067708  0.70996413  1
  Zn  Zn100  1  0.92229234  0.46756856  0.16087686  1
  Zn  Zn101  1  0.94143913  0.43669191  0.67991224  1
  Zn  Zn102  1  0.92471403  0.90500264  0.22945510  1
  Zn  Zn103  1  0.94374909  0.94601185  0.68793884  1
  Zn  Zn104  1  0.08173069  0.08779773  0.28202049  1
  Zn  Zn105  1  0.07187918  0.06122182  0.80822072  1
  Zn  Zn106  1  0.08565123  0.64101214  0.28187588  1
  Zn  Zn107  1  0.06354403  0.56187152  0.80423790  1
  Zn  Zn108  1  0.54521297  0.08599242  0.33451636  1
  Zn  Zn109  1  0.57308856  0.08948658  0.80309273  1
  Zn  Zn110  1  0.55301797  0.55531621  0.32145380  1
  Zn  Zn111  1  0.56418695  0.55752353  0.81559822  1
  Zn  Zn112  1  0.43740737  0.18763687  0.45201417  1
  Zn  Zn113  1  0.44522260  0.18562703  0.93637119  1
  Zn  Zn114  1  0.46245330  0.69986513  0.50123266  1
  Zn  Zn115  1  0.41383071  0.67410343  0.96087423  1
  Zn  Zn116  1  0.95652640  0.20216841  0.43914583  1
  Zn  Zn117  1  0.98125620  0.17173545  0.91849617  1
  Zn  Zn118  1  0.92756365  0.65447797  0.45007897  1
  Zn  Zn119  1  0.94628205  0.67780691  0.89840574  1
  Zn  Zn120  1  0.08534164  0.36396253  0.04324130  1
  Zn  Zn121  1  0.07615896  0.31738809  0.55282946  1
  Zn  Zn122  1  0.03680414  0.91933354  0.07318465  1
  Zn  Zn123  1  0.04914201  0.79783474  0.55804258  1
  Zn  Zn124  1  0.56655258  0.31818267  0.04100578  1
  Zn  Zn125  1  0.56327578  0.31637775  0.55977041  1
  Zn  Zn126  1  0.56238777  0.79786228  0.07612902  1
  Zn  Zn127  1  0.55141854  0.81848186  0.58898973  1
  O  O128  1  0.14618911  0.14575718  0.10741220  1
  O  O129  1  0.11797251  0.13390220  0.62579039  1
  O  O130  1  0.11777830  0.63087331  0.09468618  1
  O  O131  1  0.14294047  0.60891992  0.62831875  1
  O  O132  1  0.61462683  0.13492385  0.11842913  1
  O  O133  1  0.61067920  0.12834494  0.61804906  1
  O  O134  1  0.61459153  0.61439064  0.11602986  1
  O  O135  1  0.63287424  0.60283343  0.62006303  1
  O  O136  1  0.37889263  0.36714199  0.38247731  1
  O  O137  1  0.38503320  0.36328915  0.87672498  1
  O  O138  1  0.40136152  0.86998763  0.36121999  1
  O  O139  1  0.36382450  0.85939127  0.89250446  1
  O  O140  1  0.86806809  0.38113007  0.38050937  1
  O  O141  1  0.88577286  0.37332510  0.86466845  1
  O  O142  1  0.89962297  0.84747129  0.32870514  1
  O  O143  1  0.88393785  0.89319806  0.86615213  1
  O  O144  1  0.25475433  0.00847789  0.37143201  1
  O  O145  1  0.24166193  0.01074499  0.87105424  1
  O  O146  1  0.28596700  0.51208433  0.38511493  1
  O  O147  1  0.24466380  0.50901819  0.86293094  1
  O  O148  1  0.83565299  -0.03457177  0.45352362  1
  O  O149  1  0.77787097  0.00769193  0.85725148  1
  O  O150  1  0.74364034  0.48899865  0.36876325  1
  O  O151  1  0.74628069  0.49137111  0.85814645  1
  O  O152  1  0.22401764  0.50657247  0.11995574  1
  O  O153  1  0.24555370  0.48698927  0.63771435  1
  O  O154  1  0.25325461  1.01734901  0.11842651  1
  O  O155  1  0.24644011  1.01618535  0.64234860  1
  O  O156  1  0.73215294  0.48669039  0.12345623  1
  O  O157  1  0.74205145  0.49234141  0.64085416  1
  O  O158  1  0.76144131  0.98462036  0.12019193  1
  O  O159  1  0.76086444  1.01563129  0.63306582  1
  O  O160  1  0.02420683  0.40917704  0.27245458  1
  O  O161  1  0.01111304  0.37089174  0.75405089  1
  O  O162  1  0.02985988  0.86797366  0.26488970  1
  O  O163  1  0.01087954  0.88362567  0.75997539  1
  O  O164  1  0.49333180  0.38425430  0.27929134  1
  O  O165  1  0.49953203  0.37720111  0.76933394  1
  O  O166  1  0.49813169  0.86395368  0.19717515  1
  O  O167  1  0.53266241  0.88481316  0.76965833  1
  O  O168  1  0.49448643  0.11441384  0.23815883  1
  O  O169  1  0.50157205  0.12563530  0.72742323  1
  O  O170  1  0.48590469  0.60775231  0.23885404  1
  O  O171  1  0.48308664  0.62226164  0.76917142  1
  O  O172  1  0.97709602  0.12044733  0.24573915  1
  O  O173  1  1.00706114  0.14235283  0.74008661  1
  O  O174  1  0.97514044  0.63334943  0.24586031  1
  O  O175  1  1.00955562  0.62610223  0.72842821  1
  O  O176  1  0.38536513  0.24037159  0.01776734  1
  O  O177  1  0.35936361  0.25041090  0.51857700  1
  O  O178  1  0.38703526  0.76619751  0.01869896  1
  O  O179  1  0.35719103  0.74288196  0.51959980  1
  O  O180  1  0.83781268  0.18957655  0.02046903  1
  O  O181  1  0.87586341  0.26658453  0.48768083  1
  O  O182  1  0.89397211  0.73385265  0.02066850  1
  O  O183  1  0.83875337  0.73795263  0.46757677  1
  O  O184  1  0.15186344  0.25562164  0.49151292  1
  O  O185  1  0.12731871  0.26927401  0.98309650  1
  O  O186  1  0.14521677  0.75448610  0.50972508  1
  O  O187  1  0.12129681  0.75177398  0.97587487  1
  O  O188  1  0.61606235  0.24048796  0.49631810  1
  O  O189  1  0.64282541  0.24211756  1.00159219  1
  O  O190  1  0.63348263  0.72603771  0.51957403  1
  O  O191  1  0.62109227  0.72591496  1.00703747  1
  O  O192  1  0.50732011  0.25275194  0.12370586  1
  O  O193  1  0.48320649  0.26748863  0.62821797  1
  O  O194  1  0.49919315  0.72616828  0.13019665  1
  O  O195  1  0.48060552  0.73671231  0.61106568  1
  O  O196  1  0.90115502  0.22043240  0.05472871  1
  O  O197  1  1.01142576  0.26000950  0.63737231  1
  O  O198  1  0.93506255  0.73601708  0.08157667  1
  O  O199  1  0.96492808  0.73866832  0.62120493  1
  O  O200  1  0.03525517  0.25645486  0.38086213  1
  O  O201  1  0.01445322  0.27072220  0.86193097  1
  O  O202  1  -0.00964836  0.72100471  0.37422992  1
  O  O203  1  0.00683015  0.76346961  0.86427594  1
  O  O204  1  0.49530821  0.26294592  0.38984652  1
  O  O205  1  0.50988735  0.26460898  0.88730952  1
  O  O206  1  0.49466748  0.72742350  0.39129556  1
  O  O207  1  0.53331965  0.83950654  0.92000974  1
  O  O208  1  0.26241930  0.13325825  0.48032450  1
  O  O209  1  0.25965673  0.11795143  0.98115609  1
  O  O210  1  0.29947864  0.58622004  0.41402240  1
  O  O211  1  0.24878190  0.61879731  0.97785425  1
  O  O212  1  0.73491133  0.13912249  0.51248359  1
  O  O213  1  0.70572717  0.07716921  1.00067379  1
  O  O214  1  0.73607700  0.61527797  0.50018420  1
  O  O215  1  0.73580299  0.61107072  0.98525832  1
  O  O216  1  0.26445524  0.39851345  0.02596971  1
  O  O217  1  0.25510265  0.37027151  0.51750455  1
  O  O218  1  0.24457754  0.87242806  -0.00177661  1
  O  O219  1  0.30275144  0.91631361  0.50253716  1
  O  O220  1  0.74127488  0.37880871  0.01877034  1
  O  O221  1  0.76009768  0.37851059  0.51447367  1
  O  O222  1  0.75030970  0.89021254  0.02161538  1
  O  O223  1  0.73451581  0.85740299  0.51596803  1
  O  O224  1  0.11135094  0.54294787  0.22444896  1
  O  O225  1  0.13903182  0.49159452  0.74268074  1
  O  O226  1  0.11003536  1.01772441  0.19732856  1
  O  O227  1  0.13006641  0.98659699  0.74966167  1
  O  O228  1  0.61804945  0.51310102  0.23406740  1
  O  O229  1  0.62377624  0.49672555  0.73875120  1
  O  O230  1  0.50961353  0.92295867  0.23737340  1
  O  O231  1  0.65631432  1.02358109  0.75833209  1
  O  O232  1  0.36810836  0.01832710  0.23820848  1
  O  O233  1  0.35457843  -0.01340059  0.75547555  1
  O  O234  1  0.28680246  0.55642506  0.24410751  1
  O  O235  1  0.36259286  0.50363928  0.74488716  1
  O  O236  1  0.88889955  0.00880316  0.27442931  1
  O  O237  1  0.87460267  0.01976091  0.74983941  1
  O  O238  1  0.87792546  0.49447281  0.26633924  1
  O  O239  1  0.87033429  0.49744209  0.75093267  1
  O  O240  1  0.15449730  0.36775945  0.37286731  1
  O  O241  1  0.13833756  0.36583423  0.86379964  1
  O  O242  1  0.11544992  0.82213346  0.36499225  1
  O  O243  1  0.11236807  0.86948233  0.87169361  1
  O  O244  1  0.60661616  0.36175286  0.38929773  1
  O  O245  1  0.61570945  0.36257457  0.88451065  1
  O  O246  1  0.58059724  0.84881911  0.35973921  1
  O  O247  1  0.67615475  0.87474890  0.85370865  1
  O  O248  1  0.39823637  0.12811194  0.12495891  1
  O  O249  1  0.38922186  0.13773265  0.62015860  1
  O  O250  1  0.38619345  0.62954456  0.10956922  1
  O  O251  1  0.36982124  0.64005774  0.65211373  1
  O  O252  1  0.85504302  0.10941028  0.16062678  1
  O  O253  1  0.89925210  0.13324472  0.64093682  1
  O  O254  1  0.86335964  0.58589345  0.14595516  1
  O  O255  1  0.87816134  0.60363688  0.62820263  1
  O  O256  1  0.27485671  0.27182339  0.12288165  1
  O  O257  1  0.25333789  0.25946388  0.62507685  1
  O  O258  1  0.26084034  0.72452612  0.11786870  1
  O  O259  1  0.26466339  0.75634730  0.64693878  1
  O  O260  1  0.72419625  0.27627262  0.14138226  1
  O  O261  1  0.74869346  0.26728389  0.63375839  1
  O  O262  1  0.73094982  0.77724976  0.12926900  1
  O  O263  1  0.77212396  0.73540023  0.61196977  1
  O  O264  1  0.25863398  0.24897131  0.38333928  1
  O  O265  1  0.23594567  0.22800252  0.86727147  1
  O  O266  1  0.27050017  0.78012294  0.38749289  1
  O  O267  1  0.23583661  0.74241712  0.86881354  1
  O  O268  1  0.73132417  0.26509673  0.38332067  1
  O  O269  1  0.73857286  0.25818373  0.87234087  1
  O  O270  1  0.70607822  0.76000392  0.39208974  1
  O  O271  1  0.75672314  0.73105831  0.87412672  1
  O  O272  1  -0.02715018  0.19165296  0.03278389  1
  O  O273  1  -0.00269582  0.13687861  0.51869687  1
  O  O274  1  0.00801557  0.60999404  -0.02999945  1
  O  O275  1  0.00406032  0.62713355  0.52902949  1
  O  O276  1  0.51590353  0.12464018  0.01003418  1
  O  O277  1  0.50443061  0.12384659  0.51765560  1
  O  O278  1  0.50947671  0.61451372  -0.01136883  1
  O  O279  1  0.51685891  0.60077193  0.51051334  1
  O  O280  1  0.49659872  0.38861928  0.49751139  1
  O  O281  1  0.49665231  0.39194388  0.99191633  1
  O  O282  1  0.50396148  0.87626307  0.49967434  1
  O  O283  1  0.51670094  0.86517146  0.98685418  1
  O  O284  1  0.98780372  0.37460998  0.50731027  1
  O  O285  1  0.99116936  0.37371887  0.97977118  1
  O  O286  1  0.99538593  0.84969173  0.46727992  1
  O  O287  1  0.99440445  0.87367357  0.97744176  1
  O  O288  1  0.49568615  0.49023458  0.39474746  1
  O  O289  1  0.50396587  0.48624191  0.88309134  1
  O  O290  1  0.50530331  0.99439603  0.38357974  1
  O  O291  1  0.53342964  0.99807225  0.88831436  1
  O  O292  1  1.02053162  0.43853652  0.33800202  1
  O  O293  1  1.01096129  0.48377894  0.87545984  1
  O  O294  1  1.05474604  0.99360260  0.36523328  1
  O  O295  1  0.99445033  0.99234340  0.86997150  1
  O  O296  1  -0.04883690  -0.04613021  0.13394623  1
  O  O297  1  0.00555948  0.01517836  0.62280648  1
  O  O298  1  0.01344670  0.50009637  0.10375096  1
  O  O299  1  0.02008805  0.50634247  0.62974066  1
  O  O300  1  0.51325890  0.00973587  0.11512259  1
  O  O301  1  0.49186332  0.00276181  0.62886411  1
  O  O302  1  0.50338481  0.51329708  0.11074610  1
  O  O303  1  0.51579286  0.48437143  0.61968163  1
  O  O304  1  0.28297111  0.39737253  0.22105213  1
  O  O305  1  0.24778766  0.38400090  0.74919680  1
  O  O306  1  0.22016099  0.88489237  0.25503724  1
  O  O307  1  0.23135191  0.88943906  0.75111231  1
  O  O308  1  0.74360103  0.36839086  0.22896032  1
  O  O309  1  0.76045364  0.38604609  0.73477239  1
  O  O310  1  0.70811137  0.89925482  0.22418586  1
  O  O311  1  0.74991909  0.90034274  0.73379219  1
  O  O312  1  0.26663416  0.13107268  0.26058270  1
  O  O313  1  0.23833096  0.10995786  0.76876576  1
  O  O314  1  0.26378612  0.62282754  0.25668141  1
  O  O315  1  0.25645733  0.61287059  0.75861272  1
  O  O316  1  0.77444738  0.09004652  0.28936703  1
  O  O317  1  0.77452386  0.13582301  0.74101274  1
  O  O318  1  0.76612632  0.64710663  0.25453128  1
  O  O319  1  0.74619039  0.60729778  0.76390117  1
  O  O320  1  0.37728456  0.12813481  0.35982784  1
  O  O321  1  0.37412407  0.12101876  0.87339174  1
  O  O322  1  0.36457522  0.61818540  0.38822042  1
  O  O323  1  0.35557926  0.63838348  0.86640509  1
  O  O324  1  0.90084725  0.13261666  0.36352964  1
  O  O325  1  0.89971989  0.11924143  0.85749053  1
  O  O326  1  0.87400233  0.59407393  0.36722674  1
  O  O327  1  0.85768188  0.61508552  0.88215976  1
  O  O328  1  0.14312451  0.36591163  0.13819666  1
  O  O329  1  0.13948677  0.38015806  0.63576318  1
  O  O330  1  0.11199371  0.84751579  0.12856927  1
  O  O331  1  0.10384062  0.86676152  0.63505533  1
  O  O332  1  0.59959098  0.39511906  0.12745182  1
  O  O333  1  0.64194587  0.38662971  0.61598768  1
  O  O334  1  0.63505551  0.88382451  0.10463522  1
  O  O335  1  0.62565091  0.88178451  0.64552850  1
  O  O336  1  0.14075249  0.25271887  0.26230518  1
  O  O337  1  0.11970197  0.25985557  0.75613037  1
  O  O338  1  0.13213451  0.73698190  0.22991983  1
  O  O339  1  0.12888803  0.77032404  0.75954023  1
  O  O340  1  0.60942087  0.23654191  0.28499191  1
  O  O341  1  0.62405275  0.24682041  0.76480361  1
  O  O342  1  0.60977026  0.72577573  0.26520503  1
  O  O343  1  0.63922080  0.75907077  0.74397650  1
  O  O344  1  0.38040029  0.23148696  0.22793793  1
  O  O345  1  0.36580371  0.24573218  0.73623869  1
  O  O346  1  0.37175287  0.74278089  0.23363056  1
  O  O347  1  0.38326853  0.74847966  0.75500326  1
  O  O348  1  0.85234050  0.21572932  0.25991391  1
  O  O349  1  0.89728658  0.24400520  0.75684269  1
  O  O350  1  0.82602225  0.70656337  0.25892768  1
  O  O351  1  0.85808017  0.76784496  0.74821220  1
  O  O352  1  0.38849324  0.50742429  0.51846965  1
  O  O353  1  0.39067800  0.51232666  0.99567649  1
  O  O354  1  0.35232543  0.96959634  0.51409298  1
  O  O355  1  0.38075088  0.96464123  1.01000807  1
  O  O356  1  0.86863174  0.48872974  0.47877943  1
  O  O357  1  0.89720732  0.50240019  1.00143888  1
  O  O358  1  0.87732067  1.00804521  0.49681034  1
  O  O359  1  0.87687448  1.02249543  0.98150332  1
  O  O360  1  0.11056618  -0.00393255  0.02589325  1
  O  O361  1  0.04645431  0.01064379  0.43625813  1
  O  O362  1  0.11000754  0.48005964  0.00659723  1
  O  O363  1  0.13920125  0.49466670  0.51668991  1
  O  O364  1  0.58341353  -0.00544218  -0.05542784  1
  O  O365  1  0.63341499  0.01931511  0.50337866  1
  O  O366  1  0.61326957  0.50951781  0.00800947  1
  O  O367  1  0.62195553  0.50379794  0.50910498  1
  O  O368  1  0.39842809  0.36248733  0.12278876  1
  O  O369  1  0.36071388  0.36803797  0.63689984  1
  O  O370  1  0.35258127  0.85621012  0.12489500  1
  O  O371  1  0.38808555  0.85948697  0.64005613  1
  O  O372  1  0.86594450  0.37599017  0.12403831  1
  O  O373  1  0.86727808  0.38331766  0.60941881  1
  O  O374  1  0.83773440  0.85964766  0.15523646  1
  O  O375  1  0.87798320  0.87187889  0.62815998  1
  O  O376  1  0.15053931  0.13404559  0.36198118  1
  O  O377  1  0.09490189  0.14619923  0.88589562  1
  O  O378  1  0.15137710  0.65714141  0.37553653  1
  O  O379  1  0.13287063  0.64074048  0.85850484  1
  O  O380  1  0.62103062  0.13662136  0.39626596  1
  O  O381  1  0.61397980  0.14940215  0.89076249  1
  O  O382  1  0.61527012  0.62834454  0.39329806  1
  O  O383  1  0.63274313  0.62112721  0.88237295  1
