# generated using pymatgen
data_VZnO4
_symmetry_space_group_name_H-M   'P 1'
_cell_length_a   16.95510094
_cell_length_b   17.06148227
_cell_length_c   16.93115624
_cell_angle_alpha   90.25378156
_cell_angle_beta   90.32596055
_cell_angle_gamma   89.82361915
_symmetry_Int_Tables_number   1
_chemical_formula_structural   VZnO4
_chemical_formula_sum   'V64 Zn64 O256'
_cell_volume   4897.68042017
_cell_formula_units_Z   64
loop_
 _symmetry_equiv_pos_site_id
 _symmetry_equiv_pos_as_xyz
  1  'x, y, z'
loop_
 _atom_site_type_symbol
 _atom_site_label
 _atom_site_symmetry_multiplicity
 _atom_site_fract_x
 _atom_site_fract_y
 _atom_site_fract_z
 _atom_site_occupancy
  V  V0  1  0.14583940  0.74323690  0.38167568  1
  V  V1  1  0.75459005  0.24220627  0.49947380  1
  V  V2  1  0.24019274  -0.00707011  0.74812292  1
  V  V3  1  0.25773595  0.14789909  0.86803393  1
  V  V4  1  0.00210798  0.76304350  0.25884912  1
  V  V5  1  0.36909197  -0.02224509  0.37936418  1
  V  V6  1  0.12410286  0.14466318  0.49026808  1
  V  V7  1  0.75462908  0.12916544  0.37160316  1
  V  V8  1  -0.00415204  0.36905263  0.86244152  1
  V  V9  1  0.37709353  0.00542736  0.86629524  1
  V  V10  1  0.35856829  0.86086299  0.52447510  1
  V  V11  1  0.69775738  0.94237984  0.07058882  1
  V  V12  1  0.88363884  0.13907786  0.24504952  1
  V  V13  1  0.75397837  -0.00047399  0.24386473  1
  V  V14  1  0.01737497  0.11915283  0.12293108  1
  V  V15  1  0.87271986  0.77526907  0.11996604  1
  V  V16  1  -0.01516335  0.51080554  -0.00889405  1
  V  V17  1  0.77438961  0.01841720  0.76766480  1
  V  V18  1  0.62979400  0.89905260  0.75750271  1
  V  V19  1  0.74791560  0.37686064  0.63696445  1
  V  V20  1  0.87279706  0.36976909  0.00543093  1
  V  V21  1  0.47384402  0.12979138  0.62110642  1
  V  V22  1  0.21432200  0.86299192  0.63321857  1
  V  V23  1  0.02242441  0.25729951  0.24472489  1
  V  V24  1  0.50863002  0.25885297  0.76162442  1
  V  V25  1  -0.01267740  0.63438827  0.11333461  1
  V  V26  1  0.13655195  0.87218522  0.23870156  1
  V  V27  1  0.35635843  0.87240493  0.00058189  1
  V  V28  1  0.88815477  -0.00584254  0.37403264  1
  V  V29  1  0.61968240  0.62945623  0.02053269  1
  V  V30  1  0.12120042  0.49891708  0.64907320  1
  V  V31  1  0.25099908  -0.00666997  0.24112577  1
  V  V32  1  0.14609503  0.13738464  0.00343578  1
  V  V33  1  0.23087150  0.35384283  0.62954453  1
  V  V34  1  0.87718606  0.36840591  0.48769153  1
  V  V35  1  0.63818294  0.75715353  0.86498232  1
  V  V36  1  0.72727734  0.25449166  0.00447674  1
  V  V37  1  0.57765014  0.61594344  0.49643275  1
  V  V38  1  0.11271060  0.49696777  0.12965325  1
  V  V39  1  0.88125914  0.24315170  0.64391240  1
  V  V40  1  0.85019406  0.50540562  0.86089603  1
  V  V41  1  0.01034173  -0.01207423  0.49388939  1
  V  V42  1  0.02046399  0.36839691  0.37232597  1
  V  V43  1  0.86827316  0.61526305  0.25217396  1
  V  V44  1  0.35273312  0.47832531  0.35737258  1
  V  V45  1  0.00502182  0.50016191  0.49856262  1
  V  V46  1  0.72410065  0.12990063  0.88734010  1
  V  V47  1  -0.00971537  0.86992641  0.89608356  1
  V  V48  1  0.73802733  0.39181038  0.12866537  1
  V  V49  1  0.38265176  0.62957512  0.75451086  1
  V  V50  1  0.13603914  0.63382698  -0.00396230  1
  V  V51  1  0.25383003  0.12410092  0.38278804  1
  V  V52  1  0.68133061  -0.01649965  0.59665719  1
  V  V53  1  0.50686850  0.74218795  0.21536720  1
  V  V54  1  0.12919838  0.75351267  0.86679977  1
  V  V55  1  0.83792681  0.63223466  0.73676239  1
  V  V56  1  0.63054896  0.11890528  0.49655853  1
  V  V57  1  0.50671236  0.88455488  0.88228879  1
  V  V58  1  0.49952952  -0.01969803  0.50472348  1
  V  V59  1  0.62610605  0.87867835  0.26185104  1
  V  V60  1  0.00829454  0.12674101  0.63001975  1
  V  V61  1  0.63484500  0.38140262  0.27971647  1
  V  V62  1  -0.00967934  0.62730325  0.63443402  1
  V  V63  1  0.75346481  0.75128625  0.00120252  1
  Zn  Zn64  1  0.19776215  0.18225943  0.20083233  1
  Zn  Zn65  1  0.20063190  0.15506723  0.67352685  1
  Zn  Zn66  1  0.17386153  0.62104452  0.26068891  1
  Zn  Zn67  1  0.17392000  0.68170376  0.68793960  1
  Zn  Zn68  1  0.70321778  0.20622381  0.19790863  1
  Zn  Zn69  1  0.69082193  0.17561206  0.68634697  1
  Zn  Zn70  1  0.69560507  0.69758347  0.19224529  1
  Zn  Zn71  1  0.66617976  0.70624698  0.66798145  1
  Zn  Zn72  1  0.35121030  0.26788824  0.30218212  1
  Zn  Zn73  1  0.32077645  0.28551592  0.74909851  1
  Zn  Zn74  1  0.34845553  0.77499589  0.33849172  1
  Zn  Zn75  1  0.30980012  0.81846241  0.81648990  1
  Zn  Zn76  1  0.81072892  0.31652116  0.30833883  1
  Zn  Zn77  1  0.80803189  0.30890839  0.82008268  1
  Zn  Zn78  1  0.81892243  0.81967433  0.30480558  1
  Zn  Zn79  1  0.85945510  0.84157174  0.75581261  1
  Zn  Zn80  1  0.18572587  0.42029858  0.46321797  1
  Zn  Zn81  1  0.16969069  0.45777581  0.91599855  1
  Zn  Zn82  1  0.18201285  0.92327108  0.43416746  1
  Zn  Zn83  1  0.17784278  0.94171167  0.93589453  1
  Zn  Zn84  1  0.67818174  0.43690968  0.47848714  1
  Zn  Zn85  1  0.68465732  0.44566286  0.95033388  1
  Zn  Zn86  1  0.69750032  0.94177761  0.42499922  1
  Zn  Zn87  1  0.77990989  0.90794934  0.89947598  1
  Zn  Zn88  1  0.30258053  0.04885718  0.04240068  1
  Zn  Zn89  1  0.30369934  0.04689500  0.55817801  1
  Zn  Zn90  1  0.28051489  0.58434189  0.11117899  1
  Zn  Zn91  1  0.32688868  0.51771351  0.59411932  1
  Zn  Zn92  1  0.81977206  0.08641841  0.06421097  1
  Zn  Zn93  1  0.82904278  0.05897272  0.56132340  1
  Zn  Zn94  1  0.80943865  0.56902237  0.06052776  1
  Zn  Zn95  1  0.81338664  0.54886747  0.55798596  1
  Zn  Zn96  1  0.42115984  0.41480490  0.18775242  1
  Zn  Zn97  1  0.47915577  0.45323774  0.69977747  1
  Zn  Zn98  1  0.42109874  0.89719042  0.20173664  1
  Zn  Zn99  1  0.43965440  0.94634650  0.69008507  1
  Zn  Zn100  1  0.94204027  0.43618899  0.18344436  1
  Zn  Zn101  1  0.92730187  0.43922252  0.68434833  1
  Zn  Zn102  1  0.94619187  0.94627216  0.18703034  1
  Zn  Zn103  1  0.95705703  0.97837796  0.70278576  1
  Zn  Zn104  1  0.07123833  0.06239435  0.31040893  1
  Zn  Zn105  1  0.07767318  0.07670444  0.82358556  1
  Zn  Zn106  1  0.02677646  0.57031662  0.31720017  1
  Zn  Zn107  1  0.04758376  0.57100897  0.81671730  1
  Zn  Zn108  1  0.55831006  0.05310695  0.31633441  1
  Zn  Zn109  1  0.56125853  0.06673252  0.80623661  1
  Zn  Zn110  1  0.54241509  0.55776223  0.28669945  1
  Zn  Zn111  1  0.58277833  0.57610522  0.79959028  1
  Zn  Zn112  1  0.44552113  0.15675424  0.43118711  1
  Zn  Zn113  1  0.45257716  0.18260240  0.92427610  1
  Zn  Zn114  1  0.38115941  0.65933763  0.47597547  1
  Zn  Zn115  1  0.45315399  0.70429761  0.93885466  1
  Zn  Zn116  1  0.94228246  0.18834206  0.43090795  1
  Zn  Zn117  1  0.95116165  0.19603604  0.94873770  1
  Zn  Zn118  1  0.94669902  0.68313311  0.43439416  1
  Zn  Zn119  1  0.92042706  0.69237580  0.91872277  1
  Zn  Zn120  1  0.06248325  0.31364330  0.05593781  1
  Zn  Zn121  1  0.05997197  0.31089225  0.56861915  1
  Zn  Zn122  1  0.06485798  0.81611677  0.05678622  1
  Zn  Zn123  1  0.00736499  0.83375111  0.61113517  1
  Zn  Zn124  1  0.55914812  0.30056879  0.15112301  1
  Zn  Zn125  1  0.58527471  0.28910483  0.60275812  1
  Zn  Zn126  1  0.56931545  0.82295359  0.05582220  1
  Zn  Zn127  1  0.57605365  0.80639242  0.56438279  1
  O  O128  1  0.12931793  0.13435176  0.12076859  1
  O  O129  1  0.11540717  0.12716672  0.60507860  1
  O  O130  1  0.09944153  0.62118830  0.10272086  1
  O  O131  1  0.10328683  0.60880681  0.63296336  1
  O  O132  1  0.61499713  0.14172670  0.13585398  1
  O  O133  1  0.64927232  0.09371145  0.60364008  1
  O  O134  1  0.62818328  0.64026796  0.12029179  1
  O  O135  1  0.61494103  0.61509507  0.59312256  1
  O  O136  1  0.34977900  0.37388885  0.34398999  1
  O  O137  1  0.40060354  0.38399251  0.90435670  1
  O  O138  1  0.36512784  0.87530359  0.40244834  1
  O  O139  1  0.39337677  0.88321717  0.86774852  1
  O  O140  1  0.87574354  0.37193177  0.38626601  1
  O  O141  1  0.87326129  0.38752577  0.88151290  1
  O  O142  1  0.87451458  0.89646075  0.36953388  1
  O  O143  1  0.88685299  0.87264717  0.86975002  1
  O  O144  1  0.25857559  -0.00636695  0.37547389  1
  O  O145  1  0.26202375  -0.00469968  0.86241569  1
  O  O146  1  0.25225817  0.47520354  0.38216219  1
  O  O147  1  0.26587983  0.49955156  0.91069773  1
  O  O148  1  0.76851488  0.01269567  0.36334689  1
  O  O149  1  0.75555820  0.02582026  0.87962841  1
  O  O150  1  0.74952519  0.52501744  0.47024800  1
  O  O151  1  0.75184080  0.49125573  0.86888879  1
  O  O152  1  0.21109923  0.49297744  0.11246237  1
  O  O153  1  0.22113404  0.50331142  0.63247381  1
  O  O154  1  0.26658849  1.01514456  0.14544611  1
  O  O155  1  0.24745470  0.99741165  0.64313311  1
  O  O156  1  0.75194697  0.48931568  0.11706987  1
  O  O157  1  0.76853543  0.47300809  0.63497745  1
  O  O158  1  0.76226984  1.00797079  0.12912604  1
  O  O159  1  0.76708324  1.01733696  0.65485543  1
  O  O160  1  -0.00351991  0.36741298  0.26202381  1
  O  O161  1  -0.01351161  0.38105561  0.76319795  1
  O  O162  1  0.00810833  0.86726179  0.24442554  1
  O  O163  1  0.01131918  0.93657255  0.80181494  1
  O  O164  1  0.50810917  0.36390248  0.23138709  1
  O  O165  1  0.49543479  0.35776860  0.75115246  1
  O  O166  1  0.52891419  0.90069099  0.24918799  1
  O  O167  1  0.52520620  0.89451592  0.75302894  1
  O  O168  1  0.49124244  0.06846985  0.20602511  1
  O  O169  1  0.51071559  0.11365204  0.71628116  1
  O  O170  1  0.50226754  0.64456232  0.23293144  1
  O  O171  1  0.48619325  0.64147264  0.74848112  1
  O  O172  1  1.00550567  0.14084854  0.24722367  1
  O  O173  1  1.01581477  0.10975189  0.72871716  1
  O  O174  1  0.98850109  0.64788701  0.22888258  1
  O  O175  1  0.98203851  0.62440602  0.73639007  1
  O  O176  1  0.43436982  0.27104531  0.02280236  1
  O  O177  1  0.43242776  0.27528631  0.45383830  1
  O  O178  1  0.37861848  0.77550035  -0.02354283  1
  O  O179  1  0.36193717  0.76253394  0.51783744  1
  O  O180  1  0.87380007  0.26969794  -0.00198150  1
  O  O181  1  0.87307761  0.25369314  0.50052890  1
  O  O182  1  0.86212010  0.75338525  0.00683966  1
  O  O183  1  0.84154765  0.74062695  0.46537629  1
  O  O184  1  0.12689349  0.24292285  0.49811421  1
  O  O185  1  0.12757617  0.24013780  1.00476276  1
  O  O186  1  0.13025971  0.74914817  0.47682031  1
  O  O187  1  0.12065511  0.73659981  0.99558118  1
  O  O188  1  0.64567092  0.22898644  0.51191432  1
  O  O189  1  0.63211624  0.26241036  0.99747480  1
  O  O190  1  0.54966183  0.71806984  0.48906304  1
  O  O191  1  0.63669800  0.75028932  0.99154286  1
  O  O192  1  0.55454869  0.18500012  0.11999506  1
  O  O193  1  0.49048989  0.22876309  0.60236898  1
  O  O194  1  0.50121516  0.75809071  0.11675053  1
  O  O195  1  0.55453003  0.74150528  0.65389212  1
  O  O196  1  1.00659739  0.24710416  0.14147244  1
  O  O197  1  0.99257340  0.23904900  0.62687919  1
  O  O198  1  0.98341734  0.75025873  0.11619643  1
  O  O199  1  0.99293345  0.72188580  0.60567589  1
  O  O200  1  0.00133847  0.26188049  0.36237508  1
  O  O201  1  -0.01195017  0.26882974  0.87435415  1
  O  O202  1  -0.00449013  0.75588982  0.35930243  1
  O  O203  1  -0.00040978  0.76497930  0.88080230  1
  O  O204  1  0.49704926  0.17261779  0.32512586  1
  O  O205  1  0.52121170  0.24025015  0.86241251  1
  O  O206  1  0.41667055  0.69448434  0.37929556  1
  O  O207  1  0.52421239  0.77602868  0.87185731  1
  O  O208  1  0.23287125  0.11362132  0.49330215  1
  O  O209  1  0.25511047  0.14123323  0.98814361  1
  O  O210  1  0.30693696  0.58667307  0.50992137  1
  O  O211  1  0.23358592  0.62270471  1.00971791  1
  O  O212  1  0.75551690  0.12478129  0.48876771  1
  O  O213  1  0.74422576  0.14399288  0.99977838  1
  O  O214  1  0.66921859  0.64592962  0.46012576  1
  O  O215  1  0.74334625  0.64844344  1.00197210  1
  O  O216  1  0.40362691  0.43362839  -0.04321670  1
  O  O217  1  0.26102158  0.37729245  0.53515867  1
  O  O218  1  0.25601919  0.87802642  -0.00549084  1
  O  O219  1  0.25034177  0.88348487  0.52735181  1
  O  O220  1  0.75426604  0.36973292  0.00225153  1
  O  O221  1  0.76831715  0.35838144  0.50640259  1
  O  O222  1  0.74980906  0.87719517  0.00572661  1
  O  O223  1  0.74752236  0.94751131  0.52797668  1
  O  O224  1  0.10354131  0.52529229  0.23039005  1
  O  O225  1  0.11229346  0.50083228  0.74945988  1
  O  O226  1  0.13885009  0.98375658  0.25698739  1
  O  O227  1  0.14216697  1.00327117  0.75994154  1
  O  O228  1  0.61272404  0.47881880  0.25729886  1
  O  O229  1  0.57115500  0.51177823  0.71390458  1
  O  O230  1  0.64646778  0.99855643  0.25816971  1
  O  O231  1  0.64479495  1.00206468  0.75596787  1
  O  O232  1  0.36403242  -0.02428705  0.27106283  1
  O  O233  1  0.36529812  -0.00191937  0.76037971  1
  O  O234  1  0.33667422  0.47251507  0.24938522  1
  O  O235  1  0.39455471  0.52588591  0.76129473  1
  O  O236  1  0.87537566  0.01220132  0.25588590  1
  O  O237  1  0.87225986  0.02581383  0.76758794  1
  O  O238  1  0.87771564  0.51723152  0.23491769  1
  O  O239  1  0.86452470  0.50630119  0.75748691  1
  O  O240  1  0.11860169  0.37140009  0.38159427  1
  O  O241  1  0.09412746  0.38663148  0.88650907  1
  O  O242  1  0.13498661  0.85388419  0.35564816  1
  O  O243  1  0.11061180  0.85930847  0.88807149  1
  O  O244  1  0.64424563  0.38245604  0.37965289  1
  O  O245  1  0.57546642  0.42719828  0.89087026  1
  O  O246  1  0.63850674  0.87138676  0.36295715  1
  O  O247  1  0.62054107  0.88553586  0.86765093  1
  O  O248  1  0.40320499  0.12137003  0.07069012  1
  O  O249  1  0.37457028  0.12050091  0.61158908  1
  O  O250  1  0.34298640  0.70715666  0.11078887  1
  O  O251  1  0.37591853  0.61982695  0.64909886  1
  O  O252  1  0.90058068  0.12558004  0.13524498  1
  O  O253  1  0.89332429  0.13680303  0.61839349  1
  O  O254  1  0.87444498  0.63897089  0.13027381  1
  O  O255  1  0.87490521  0.61078709  0.63111756  1
  O  O256  1  0.29414849  0.25187784  0.19833929  1
  O  O257  1  0.24284054  0.25279358  0.64304818  1
  O  O258  1  0.29217403  0.75671687  0.12501843  1
  O  O259  1  0.22868414  0.76477295  0.63610092  1
  O  O260  1  0.74873535  0.26684380  0.11107031  1
  O  O261  1  0.76822800  0.24020272  0.61624545  1
  O  O262  1  0.76334258  0.76175582  0.11608932  1
  O  O263  1  0.68389310  0.76748140  0.57451989  1
  O  O264  1  0.27516624  0.22053913  0.37307683  1
  O  O265  1  0.27537873  0.24305546  0.85320468  1
  O  O266  1  0.24605056  0.73604103  0.36276313  1
  O  O267  1  0.22998216  0.75894998  0.87006563  1
  O  O268  1  0.75836974  0.23610692  0.38232675  1
  O  O269  1  0.75127741  0.23797777  0.89019084  1
  O  O270  1  0.79138275  0.75355110  0.40942843  1
  O  O271  1  0.74433430  0.77231870  0.89519007  1
  O  O272  1  0.01675451  0.13289147  0.01919688  1
  O  O273  1  0.01624522  0.12634781  0.49535740  1
  O  O274  1  -0.02539023  0.62217254  -0.00151960  1
  O  O275  1  -0.01440282  0.60179473  0.50574312  1
  O  O276  1  0.46233058  0.11364025  0.02391284  1
  O  O277  1  0.51439291  0.11177939  0.50885183  1
  O  O278  1  0.52193512  0.63674576  -0.00821489  1
  O  O279  1  0.47314731  0.61044653  0.52519265  1
  O  O280  1  0.49580768  0.31175459  0.43902535  1
  O  O281  1  0.48204947  0.32226975  1.04979222  1
  O  O282  1  0.50188786  0.87844268  0.51364453  1
  O  O283  1  0.50660361  0.88873093  0.98260553  1
  O  O284  1  0.99458466  0.36617466  0.48712674  1
  O  O285  1  0.97993962  0.38853406  0.99421754  1
  O  O286  1  1.00095163  0.89144482  0.50631781  1
  O  O287  1  0.99397210  0.88419102  0.99564684  1
  O  O288  1  0.45357268  0.49080183  0.32978593  1
  O  O289  1  0.54031540  0.49287223  0.87999001  1
  O  O290  1  0.48280677  0.99901391  0.39123203  1
  O  O291  1  0.48758946  0.99920411  0.86578324  1
  O  O292  1  1.00340832  0.48138367  0.38985327  1
  O  O293  1  0.97731693  0.49972387  0.87982292  1
  O  O294  1  0.99547216  1.00323460  0.37577636  1
  O  O295  1  1.01460879  0.98786418  0.86959908  1
  O  O296  1  0.01576160  0.02104393  0.13795293  1
  O  O297  1  -0.00575396  0.02122330  0.60052264  1
  O  O298  1  -0.01257033  0.51740239  0.10830257  1
  O  O299  1  0.00274522  0.50021693  0.61922311  1
  O  O300  1  0.49681626  0.01876394  0.15170630  1
  O  O301  1  0.49287583  0.00862107  0.60687529  1
  O  O302  1  0.44334528  0.51018657  0.12063873  1
  O  O303  1  0.41596099  0.45741090  0.61052677  1
  O  O304  1  0.28040509  0.31607001  0.14213031  1
  O  O305  1  0.15006066  0.29836746  0.77602722  1
  O  O306  1  0.24282425  0.88311099  0.23982545  1
  O  O307  1  0.24961975  0.88282220  0.73934218  1
  O  O308  1  0.74341674  0.38060894  0.24027939  1
  O  O309  1  0.74431868  0.35340087  0.73461533  1
  O  O310  1  0.74599160  0.88906798  0.24841600  1
  O  O311  1  0.75770651  0.90860414  0.77541060  1
  O  O312  1  0.24376848  0.10163395  0.27212554  1
  O  O313  1  0.25128603  0.11294220  0.76502415  1
  O  O314  1  0.27084494  0.62178090  0.21498024  1
  O  O315  1  0.27716969  0.62511138  0.75528354  1
  O  O316  1  0.76288216  0.12303351  0.25210468  1
  O  O317  1  0.74428292  0.12678429  0.77612865  1
  O  O318  1  0.77020995  0.64286547  0.25713854  1
  O  O319  1  0.73877066  0.63079462  0.71666238  1
  O  O320  1  0.35879824  0.09371575  0.39500142  1
  O  O321  1  0.36771151  0.11342873  0.88233529  1
  O  O322  1  0.33950459  0.57985102  0.35832043  1
  O  O323  1  0.38769636  0.63104239  0.85948382  1
  O  O324  1  0.87332343  0.12048279  0.36290081  1
  O  O325  1  0.88453807  0.10470923  0.91555595  1
  O  O326  1  0.90596711  0.61755117  0.34928729  1
  O  O327  1  0.85776377  0.61538228  0.85455320  1
  O  O328  1  0.08591788  0.39998742  0.12447745  1
  O  O329  1  0.12516732  0.38050790  0.63348861  1
  O  O330  1  0.12367904  0.86844836  0.13876911  1
  O  O331  1  0.11621805  0.87485564  0.63163938  1
  O  O332  1  0.63896816  0.38297872  0.11680025  1
  O  O333  1  0.64955370  0.37925748  0.59343766  1
  O  O334  1  0.63532936  0.88524639  0.12990561  1
  O  O335  1  0.63872529  0.90097013  0.64040640  1
  O  O336  1  0.12074421  0.25471467  0.25142805  1
  O  O337  1  0.11134122  0.24079415  0.75399666  1
  O  O338  1  0.10894000  0.75767977  0.24761665  1
  O  O339  1  0.11384782  0.73771292  0.76771654  1
  O  O340  1  0.62957584  0.27644300  0.24738451  1
  O  O341  1  0.60493346  0.24448304  0.71206470  1
  O  O342  1  0.61269268  0.76856885  0.24277829  1
  O  O343  1  0.65620156  0.78471158  0.76314145  1
  O  O344  1  0.44582647  0.20396041  0.27249994  1
  O  O345  1  0.41206716  0.22562821  0.74575915  1
  O  O346  1  0.41996726  0.78995015  0.25115348  1
  O  O347  1  0.37268888  0.73346766  0.75365106  1
  O  O348  1  0.87946095  0.24089248  0.25360466  1
  O  O349  1  0.87304001  0.24425513  0.74158013  1
  O  O350  1  0.88398371  0.75711407  0.23365936  1
  O  O351  1  0.85396734  0.72897053  0.74517388  1
  O  O352  1  0.38892965  0.46270677  0.45167904  1
  O  O353  1  0.39042904  0.54337099  1.07740203  1
  O  O354  1  0.38225131  0.98075402  0.49910629  1
  O  O355  1  0.36801148  0.98439182  0.97391915  1
  O  O356  1  0.89360906  0.47001395  0.51297140  1
  O  O357  1  0.86818328  0.49846157  0.98479708  1
  O  O358  1  0.89282034  1.01234228  0.47914463  1
  O  O359  1  0.88507296  1.04795631  0.96935333  1
  O  O360  1  0.14278956  0.03316552  -0.00466940  1
  O  O361  1  0.11184079  0.00187238  0.48571176  1
  O  O362  1  0.09912110  0.51784296  -0.00287652  1
  O  O363  1  0.10701569  0.48858102  0.51357026  1
  O  O364  1  0.64403245  -0.00173627  0.01474318  1
  O  O365  1  0.61131810  -0.00410653  0.49855334  1
  O  O366  1  0.64023929  0.53325842  0.00174143  1
  O  O367  1  0.58887867  0.51126299  0.50304307  1
  O  O368  1  0.34268143  0.35564107  0.12150929  1
  O  O369  1  0.29129119  0.38507186  0.70718060  1
  O  O370  1  0.38275500  0.88733999  0.09731885  1
  O  O371  1  0.37678532  0.87687323  0.62327969  1
  O  O372  1  0.86631616  0.38361057  0.10907998  1
  O  O373  1  0.87224692  0.35281344  0.62067169  1
  O  O374  1  0.88169051  0.87303067  0.12363600  1
  O  O375  1  0.92337539  0.87719317  0.67160279  1
  O  O376  1  0.13752577  0.12596043  0.38277295  1
  O  O377  1  0.14786506  0.14153227  0.88461495  1
  O  O378  1  0.11405898  0.64049055  0.35358927  1
  O  O379  1  0.11405999  0.63522101  0.88815537  1
  O  O380  1  0.64053254  0.10933480  0.38679208  1
  O  O381  1  0.62581897  0.12300073  0.88585652  1
  O  O382  1  0.55414374  0.59404730  0.39494268  1
  O  O383  1  0.63104895  0.65696889  0.85657331  1
