# generated using pymatgen
data_VZnO4
_symmetry_space_group_name_H-M   'P 1'
_cell_length_a   16.97535324
_cell_length_b   16.96686041
_cell_length_c   16.93608750
_cell_angle_alpha   90.20915273
_cell_angle_beta   89.35330629
_cell_angle_gamma   90.09004585
_symmetry_Int_Tables_number   1
_chemical_formula_structural   VZnO4
_chemical_formula_sum   'V64 Zn64 O256'
_cell_volume   4877.55673349
_cell_formula_units_Z   64
loop_
 _symmetry_equiv_pos_site_id
 _symmetry_equiv_pos_as_xyz
  1  'x, y, z'
loop_
 _atom_site_type_symbol
 _atom_site_label
 _atom_site_symmetry_multiplicity
 _atom_site_fract_x
 _atom_site_fract_y
 _atom_site_fract_z
 _atom_site_occupancy
  V  V0  1  0.89652375  0.00999123  0.87863006  1
  V  V1  1  0.23628740  0.87917822  0.63550565  1
  V  V2  1  0.00976204  0.63048174  0.61783146  1
  V  V3  1  0.76528298  0.61062151  0.36445621  1
  V  V4  1  0.72710281  0.23512576  0.00897584  1
  V  V5  1  0.24449034  -0.00616543  0.76447332  1
  V  V6  1  0.63489790  0.38517443  0.73710369  1
  V  V7  1  0.10558442  0.37867920  0.76039793  1
  V  V8  1  0.38003055  0.76514450  0.62640970  1
  V  V9  1  0.36347830  0.36450199  -0.00852676  1
  V  V10  1  0.12065706  -0.00945227  0.09897025  1
  V  V11  1  0.62882449  0.61568088  0.49645156  1
  V  V12  1  -0.02219121  0.62492513  0.12428231  1
  V  V13  1  0.87939226  0.87469599  -0.01228445  1
  V  V14  1  0.11774178  0.49845181  0.12789190  1
  V  V15  1  0.00815871  0.24581427  0.24751457  1
  V  V16  1  0.38138998  0.11880038  0.76196727  1
  V  V17  1  0.64092813  0.75524015  0.38192826  1
  V  V18  1  0.37706311  0.50671327  0.88244297  1
  V  V19  1  0.50957407  0.61966046  0.62384747  1
  V  V20  1  0.49985656  0.37684994  0.87534264  1
  V  V21  1  0.63395308  0.76295307  0.86186674  1
  V  V22  1  -0.00634410  0.49262892  -0.02408371  1
  V  V23  1  0.14222830  0.75631727  0.87576983  1
  V  V24  1  0.38310377  0.38336238  0.49884464  1
  V  V25  1  0.50821580  0.12481911  0.61916567  1
  V  V26  1  0.51152217  0.76241178  0.75670507  1
  V  V27  1  0.39770722  -0.00704162  0.89343880  1
  V  V28  1  0.74493545  0.61018599  0.86418833  1
  V  V29  1  0.38282621  0.27874772  0.16525438  1
  V  V30  1  0.23894984  0.38352033  0.12779836  1
  V  V31  1  0.48662291  0.88323330  0.36834786  1
  V  V32  1  0.49010971  0.73809080  0.25161123  1
  V  V33  1  0.50047181  0.24667576  0.74722675  1
  V  V34  1  0.36779492  0.84547724  0.00665139  1
  V  V35  1  0.50330675  -0.01069038  0.49728102  1
  V  V36  1  0.63602034  -0.00205659  0.63562072  1
  V  V37  1  0.74608464  0.74156963  0.00162507  1
  V  V38  1  0.00390393  0.22030173  0.74830039  1
  V  V39  1  0.11562763  0.87318142  0.26195908  1
  V  V40  1  0.85867608  0.37397572  -0.01447445  1
  V  V41  1  0.62860105  0.49387385  0.10047256  1
  V  V42  1  0.87808844  0.74947310  0.60564713  1
  V  V43  1  0.85712104  0.11327564  0.23734027  1
  V  V44  1  0.13483604  0.50320073  0.61878702  1
  V  V45  1  0.75210277  0.10762086  0.38234637  1
  V  V46  1  0.47212385  0.11301048  0.13996080  1
  V  V47  1  0.75127687  0.89293148  0.11894236  1
  V  V48  1  0.62931852  0.24714047  0.86959177  1
  V  V49  1  0.87633860  0.61215443  0.75305877  1
  V  V50  1  0.23457908  0.75299151  0.50351976  1
  V  V51  1  0.62837398  0.25911042  0.37212041  1
  V  V52  1  0.75165796  0.25868553  0.50197735  1
  V  V53  1  0.37331635  0.62849445  0.75144712  1
  V  V54  1  0.88519862  0.23259940  0.61874110  1
  V  V55  1  0.74339338  0.11494781  0.85582785  1
  V  V56  1  0.74583103  0.85777963  0.62140998  1
  V  V57  1  -0.00494818  0.49502199  0.49664997  1
  V  V58  1  0.88290456  0.23723632  0.10922663  1
  V  V59  1  0.49902965  0.62092107  0.11063540  1
  V  V60  1  0.63634087  0.87853088  0.24519874  1
  V  V61  1  -0.00189134  0.75770640  0.76560979  1
  V  V62  1  0.25563138  0.48942830  0.75014235  1
  V  V63  1  0.14127577  0.62320562  -0.01061135  1
  Zn  Zn64  1  0.20257583  0.19584657  0.17977435  1
  Zn  Zn65  1  0.19347381  0.19487218  0.73849895  1
  Zn  Zn66  1  0.13553181  0.68715554  0.19495791  1
  Zn  Zn67  1  0.18968092  0.69059083  0.69718834  1
  Zn  Zn68  1  0.66054879  0.17555789  0.19740199  1
  Zn  Zn69  1  0.68863747  0.19037066  0.68165013  1
  Zn  Zn70  1  0.67973157  0.68912555  0.18417760  1
  Zn  Zn71  1  0.69031466  0.56411568  0.68102148  1
  Zn  Zn72  1  0.29501071  0.42911333  0.31319558  1
  Zn  Zn73  1  0.31270566  0.30803827  0.81500387  1
  Zn  Zn74  1  0.29176101  0.79112483  0.18769485  1
  Zn  Zn75  1  0.32558590  0.81895222  0.81960999  1
  Zn  Zn76  1  0.77686951  0.28649805  0.27895919  1
  Zn  Zn77  1  0.84211743  0.33570899  0.77275084  1
  Zn  Zn78  1  0.81023338  0.81688539  0.31080789  1
  Zn  Zn79  1  0.81193485  0.80927402  0.80436368  1
  Zn  Zn80  1  0.13291105  0.46751840  0.39464264  1
  Zn  Zn81  1  0.18718055  0.44219519  0.93401762  1
  Zn  Zn82  1  0.25588428  0.87301893  0.36101744  1
  Zn  Zn83  1  0.19464376  0.93285619  0.93584595  1
  Zn  Zn84  1  0.69348249  0.43778461  0.44066358  1
  Zn  Zn85  1  0.68474281  0.43051090  0.93063895  1
  Zn  Zn86  1  0.68926253  0.93471080  0.45060972  1
  Zn  Zn87  1  0.68936006  0.94150940  0.93121143  1
  Zn  Zn88  1  0.32980282  -0.01355958  0.09548157  1
  Zn  Zn89  1  0.33039960  0.04677931  0.58258687  1
  Zn  Zn90  1  0.29417732  0.59327854  0.18089260  1
  Zn  Zn91  1  0.31499787  0.57591683  0.56708508  1
  Zn  Zn92  1  0.80258479  0.06321457  0.04669793  1
  Zn  Zn93  1  0.81807318  0.05705415  0.56053506  1
  Zn  Zn94  1  0.80709088  0.55903102  0.05473937  1
  Zn  Zn95  1  0.77796025  0.40517708  0.61388028  1
  Zn  Zn96  1  0.41784647  0.47190986  0.16818252  1
  Zn  Zn97  1  0.44444263  0.43911002  0.68945540  1
  Zn  Zn98  1  0.45894482  0.89714767  0.15556125  1
  Zn  Zn99  1  0.45050597  0.94298433  0.69548661  1
  Zn  Zn100  1  0.93332559  0.42338724  0.16291412  1
  Zn  Zn101  1  0.94422907  0.43822746  0.67639570  1
  Zn  Zn102  1  0.94320920  0.93647170  0.16211068  1
  Zn  Zn103  1  0.89829462  0.91343820  0.70729725  1
  Zn  Zn104  1  0.03106506  0.04523378  0.24209199  1
  Zn  Zn105  1  0.03414051  0.02276290  0.78410820  1
  Zn  Zn106  1  -0.03610662  0.57213074  0.31705983  1
  Zn  Zn107  1  0.06583364  0.57023539  0.80767217  1
  Zn  Zn108  1  0.57584150  0.06607952  0.30995866  1
  Zn  Zn109  1  0.56508173  0.05535308  0.81424639  1
  Zn  Zn110  1  0.60130711  0.58670164  0.27865789  1
  Zn  Zn111  1  0.56036952  0.56567133  0.81352366  1
  Zn  Zn112  1  0.44891295  0.18688835  0.43946290  1
  Zn  Zn113  1  0.44850203  0.18272419  0.94704029  1
  Zn  Zn114  1  0.45089627  0.70695412  0.44731747  1
  Zn  Zn115  1  0.44721088  0.68669124  0.93769310  1
  Zn  Zn116  1  0.91662092  0.21142598  0.41145385  1
  Zn  Zn117  1  0.89856547  0.22068892  0.89721062  1
  Zn  Zn118  1  0.81996930  0.58120110  0.54691469  1
  Zn  Zn119  1  0.92951489  0.68265762  0.94011281  1
  Zn  Zn120  1  0.04215457  0.32260128  0.07347337  1
  Zn  Zn121  1  0.06321608  0.32239857  0.57471989  1
  Zn  Zn122  1  0.06159463  0.80309888  0.06022915  1
  Zn  Zn123  1  0.05946499  0.82625798  0.57023282  1
  Zn  Zn124  1  0.55934070  0.32798263  0.06349936  1
  Zn  Zn125  1  0.56928751  0.31169019  0.55591774  1
  Zn  Zn126  1  0.58106675  0.85230062  0.02866683  1
  Zn  Zn127  1  0.56561630  0.81346443  0.56534874  1
  O  O128  1  0.18785671  0.09394825  0.12130116  1
  O  O129  1  0.13489295  0.17411017  0.57838924  1
  O  O130  1  0.10807044  0.60916295  0.10274068  1
  O  O131  1  0.11529653  0.61529622  0.64283951  1
  O  O132  1  0.55743823  0.12179341  0.20285973  1
  O  O133  1  0.61654427  0.11112587  0.63322423  1
  O  O134  1  0.60748318  0.60093491  0.15614385  1
  O  O135  1  0.61914238  0.62852973  0.61179871  1
  O  O136  1  0.38270554  0.40687550  0.39834281  1
  O  O137  1  0.37903228  0.38103804  0.87524420  1
  O  O138  1  0.39077845  0.88981005  0.36322071  1
  O  O139  1  0.38787645  0.88237863  0.89618661  1
  O  O140  1  0.80104535  0.40175061  0.26980982  1
  O  O141  1  0.87279071  0.34174855  0.88541889  1
  O  O142  1  0.88301472  0.86661179  0.39853266  1
  O  O143  1  0.86840154  0.89250980  0.87971747  1
  O  O144  1  0.23640542  -0.01274617  0.38754506  1
  O  O145  1  0.27153720  -0.00836737  0.86489291  1
  O  O146  1  0.21978937  0.54977846  0.37692379  1
  O  O147  1  0.26716465  0.49822928  0.86011678  1
  O  O148  1  0.74988341  0.00805416  0.38359901  1
  O  O149  1  0.74382862  0.01321734  0.86532978  1
  O  O150  1  0.75017927  0.51245493  0.37912304  1
  O  O151  1  0.74571481  0.51198923  0.87554951  1
  O  O152  1  0.22972375  0.49473115  0.11595256  1
  O  O153  1  0.24142118  0.51326569  0.63793206  1
  O  O154  1  0.22983165  1.02209454  0.14037406  1
  O  O155  1  0.25826082  0.98661895  0.64405851  1
  O  O156  1  0.72784845  0.51086633  0.11702099  1
  O  O157  1  0.75181538  0.51116015  0.60423107  1
  O  O158  1  0.74090266  0.99002068  0.11633809  1
  O  O159  1  0.73777292  1.00403303  0.62437298  1
  O  O160  1  0.00315261  0.33445816  0.19255404  1
  O  O161  1  0.00641145  0.38915418  0.76202500  1
  O  O162  1  0.01084447  0.92561992  0.25210270  1
  O  O163  1  -0.00322269  0.85600908  0.74740650  1
  O  O164  1  0.51955991  0.42761050  0.27809069  1
  O  O165  1  0.50428042  0.36402835  0.75347606  1
  O  O166  1  0.51486642  0.87028376  0.25547080  1
  O  O167  1  0.50227737  0.86062196  0.75531608  1
  O  O168  1  0.41772661  0.12337643  0.33909553  1
  O  O169  1  0.50117946  0.13042706  0.74615807  1
  O  O170  1  0.49659787  0.64061479  0.27744870  1
  O  O171  1  0.49741212  0.63476520  0.73978933  1
  O  O172  1  0.97122098  0.14012561  0.24183483  1
  O  O173  1  1.03198526  0.12604608  0.73174334  1
  O  O174  1  1.00800058  0.62217771  0.22417134  1
  O  O175  1  0.99037316  0.63118714  0.74449492  1
  O  O176  1  0.37473800  0.26541398  -0.01251482  1
  O  O177  1  0.39402320  0.28089689  0.47751993  1
  O  O178  1  0.36553692  0.74759186  -0.01000333  1
  O  O179  1  0.37972962  0.75518979  0.52559350  1
  O  O180  1  0.84533980  0.24176294  0.00342528  1
  O  O181  1  0.87310551  0.25048314  0.51021342  1
  O  O182  1  0.85438922  0.76495236  -0.01965108  1
  O  O183  1  0.88239199  0.72965434  0.51160332  1
  O  O184  1  0.14414899  0.24266582  0.53985095  1
  O  O185  1  0.11778355  0.24083951  0.99714114  1
  O  O186  1  0.13447628  0.76116800  0.51288327  1
  O  O187  1  0.12376221  0.73278957  0.98766432  1
  O  O188  1  0.64585665  0.24490216  0.49737732  1
  O  O189  1  0.62474245  0.26243459  0.98508406  1
  O  O190  1  0.62541086  0.75633313  0.48492771  1
  O  O191  1  0.64022265  0.75906426  0.97951345  1
  O  O192  1  0.47950626  0.28646940  0.13286698  1
  O  O193  1  0.51352149  0.23267760  0.63066919  1
  O  O194  1  0.51631704  0.72669469  0.14928731  1
  O  O195  1  0.49655825  0.74986327  0.63803379  1
  O  O196  1  0.97902746  0.22318536  0.08829077  1
  O  O197  1  0.98912731  0.25109266  0.62634353  1
  O  O198  1  0.98855450  0.72210148  0.09871627  1
  O  O199  1  1.00020976  0.74018938  0.63096686  1
  O  O200  1  -0.01006798  0.26793861  0.34495530  1
  O  O201  1  0.00111459  0.22922653  0.84918615  1
  O  O202  1  -0.05859367  0.81898171  0.37691100  1
  O  O203  1  -0.00558399  0.74646896  0.86692413  1
  O  O204  1  0.53075440  0.23400369  0.37392004  1
  O  O205  1  0.50987249  0.25372620  0.86664568  1
  O  O206  1  0.50575304  0.77214454  0.37062797  1
  O  O207  1  0.51990594  0.74390499  0.86588262  1
  O  O208  1  0.21165885  -0.00187678  0.46424039  1
  O  O209  1  0.25701666  0.15728202  0.99299755  1
  O  O210  1  0.25291239  0.65368698  0.52008490  1
  O  O211  1  0.23522203  0.61312323  0.99462886  1
  O  O212  1  0.76586054  0.12869691  0.48504578  1
  O  O213  1  0.73266127  0.13307181  0.98653367  1
  O  O214  1  0.73615211  0.62989636  0.47978435  1
  O  O215  1  0.76005608  0.63699788  0.97794569  1
  O  O216  1  0.26127399  0.37637830  -0.00860437  1
  O  O217  1  0.28309195  0.36398185  0.50880527  1
  O  O218  1  0.27135794  0.87880650  -0.00045437  1
  O  O219  1  0.25625533  0.86325413  0.53606031  1
  O  O220  1  0.75382789  0.35910629  -0.00951335  1
  O  O221  1  0.75430605  0.36272721  0.50587177  1
  O  O222  1  0.75261317  0.86442858  0.00995582  1
  O  O223  1  0.76261270  0.88541326  0.52429170  1
  O  O224  1  0.11065293  0.49674214  0.22377076  1
  O  O225  1  0.14101171  0.49549364  0.75242516  1
  O  O226  1  0.12713877  0.98651917  0.22958174  1
  O  O227  1  0.14548292  1.00325653  0.77096566  1
  O  O228  1  0.55385187  0.47866127  0.31911035  1
  O  O229  1  0.62247881  0.49005798  0.74585507  1
  O  O230  1  0.62836567  0.97628714  0.25465429  1
  O  O231  1  0.61607447  0.99101476  0.73461317  1
  O  O232  1  0.36185991  0.07453866  0.33369609  1
  O  O233  1  0.38846112  0.00609433  0.76942074  1
  O  O234  1  0.34033082  0.50438392  0.24231799  1
  O  O235  1  0.36861283  0.50702576  0.74786358  1
  O  O236  1  0.87247330  0.01656679  0.22671204  1
  O  O237  1  0.91686130  0.00200763  0.77127064  1
  O  O238  1  0.86327994  0.42458580  0.31257916  1
  O  O239  1  0.88374891  0.51399749  0.74329914  1
  O  O240  1  0.21301808  0.39410183  0.38255384  1
  O  O241  1  0.13393010  0.37747079  0.85608784  1
  O  O242  1  0.11504375  0.86853485  0.35983516  1
  O  O243  1  0.12507628  0.85474064  0.88730772  1
  O  O244  1  0.62927021  0.35779893  0.39350298  1
  O  O245  1  0.61600074  0.36854765  0.85945048  1
  O  O246  1  0.63891350  0.86582905  0.36533214  1
  O  O247  1  0.64208117  0.86101977  0.85926911  1
  O  O248  1  0.38929128  0.16767369  0.17488949  1
  O  O249  1  0.40055800  0.11306645  0.64575296  1
  O  O250  1  0.40061303  0.61455042  0.13038835  1
  O  O251  1  0.39025060  0.63931014  0.63470865  1
  O  O252  1  0.85202094  0.13299030  0.12301837  1
  O  O253  1  0.88191648  0.13292494  0.61954349  1
  O  O254  1  0.87925568  0.60525533  0.12910915  1
  O  O255  1  0.88969149  0.63219438  0.63352647  1
  O  O256  1  0.27175201  0.26997354  0.12945296  1
  O  O257  1  0.19515101  0.15578691  0.62685819  1
  O  O258  1  0.24517565  0.69288780  0.15615077  1
  O  O259  1  0.26611920  0.76277652  0.64400578  1
  O  O260  1  0.71769700  0.23140926  0.10907556  1
  O  O261  1  0.76376352  0.24162341  0.61100647  1
  O  O262  1  0.74344107  0.73772778  0.10289826  1
  O  O263  1  0.76736244  0.75586611  0.62248941  1
  O  O264  1  0.26821924  0.17482980  0.47205762  1
  O  O265  1  0.23146146  0.23795958  0.83241876  1
  O  O266  1  0.26169574  0.77013327  0.40746218  1
  O  O267  1  0.24074535  0.75153372  0.86194310  1
  O  O268  1  0.75778042  0.24771758  0.39219609  1
  O  O269  1  0.73668917  0.23727713  0.88002504  1
  O  O270  1  0.74292287  0.74150251  0.36945950  1
  O  O271  1  0.74241808  0.74181922  0.86848030  1
  O  O272  1  0.08869144  0.18022662  -0.03154664  1
  O  O273  1  0.01676992  0.11952885  0.44424807  1
  O  O274  1  -0.02052892  0.60018205  0.00171993  1
  O  O275  1  0.01066404  0.61989133  0.51963644  1
  O  O276  1  0.49025653  0.13738405  0.04393689  1
  O  O277  1  0.50169767  0.11726296  0.51444433  1
  O  O278  1  0.51254330  0.63478520  0.01228718  1
  O  O279  1  0.51192123  0.63860883  0.51575047  1
  O  O280  1  0.49050446  0.38306205  0.50434973  1
  O  O281  1  0.48694251  0.37288653  0.97999218  1
  O  O282  1  0.50547568  0.88100307  0.48307729  1
  O  O283  1  0.47037579  0.86601188  1.04042812  1
  O  O284  1  1.00873547  0.39523728  0.50592216  1
  O  O285  1  0.98505801  0.38538233  0.99344835  1
  O  O286  1  1.01786090  0.92109580  0.50950237  1
  O  O287  1  0.97595968  0.86491881  1.00196635  1
  O  O288  1  0.39129675  0.56960172  0.36294933  1
  O  O289  1  0.48568042  0.48767041  0.85815636  1
  O  O290  1  0.51704315  0.99210786  0.38456205  1
  O  O291  1  0.49779500  0.99928056  0.88664650  1
  O  O292  1  1.02912227  0.51457196  0.39576126  1
  O  O293  1  0.99735504  0.50241204  0.87788685  1
  O  O294  1  1.02550063  1.06036493  0.40130153  1
  O  O295  1  0.99203412  1.02295481  0.89873481  1
  O  O296  1  0.02134996  0.01744495  0.11551004  1
  O  O297  1  -0.03050543  -0.02782887  0.54817524  1
  O  O298  1  0.00413812  0.49772413  0.10649634  1
  O  O299  1  0.01094128  0.51175656  0.61770338  1
  O  O300  1  0.43661410  0.01592110  0.14843960  1
  O  O301  1  0.51258190  0.00303085  0.61798342  1
  O  O302  1  0.50999350  0.50924191  0.11970515  1
  O  O303  1  0.49986060  0.52126951  0.63039464  1
  O  O304  1  0.22868825  0.38087961  0.22471435  1
  O  O305  1  0.25901431  0.38972739  0.74165704  1
  O  O306  1  0.22653009  0.86506263  0.24957059  1
  O  O307  1  0.26202356  0.88687663  0.74964406  1
  O  O308  1  0.91364207  0.47270971  0.26624579  1
  O  O309  1  0.73450382  0.37399769  0.74896752  1
  O  O310  1  0.74830364  0.86577979  0.23127378  1
  O  O311  1  0.78339018  0.88377651  0.71944228  1
  O  O312  1  0.23393085  0.15004593  0.30736092  1
  O  O313  1  0.27687763  0.10455249  0.74727833  1
  O  O314  1  0.21049625  0.64328672  0.28410250  1
  O  O315  1  0.26950936  0.62048290  0.74748398  1
  O  O316  1  0.75235213  0.12261478  0.25259940  1
  O  O317  1  0.75106570  0.13157109  0.75812078  1
  O  O318  1  0.71892417  0.61865301  0.27054965  1
  O  O319  1  0.76390789  0.61993752  0.75342870  1
  O  O320  1  0.32926367  0.13695597  0.49167617  1
  O  O321  1  0.39307361  0.11550406  0.86816361  1
  O  O322  1  0.36866468  0.62862270  0.40136777  1
  O  O323  1  0.39078678  0.61161782  0.86650525  1
  O  O324  1  0.85889491  0.13030674  0.35086022  1
  O  O325  1  0.85599071  0.11301187  0.88220109  1
  O  O326  1  0.86409357  0.62018504  0.35348002  1
  O  O327  1  0.86336264  0.62734668  0.85836191  1
  O  O328  1  0.13502696  0.38581651  0.09674369  1
  O  O329  1  0.12097009  0.39905957  0.64275519  1
  O  O330  1  0.12244553  0.88822154  0.10347352  1
  O  O331  1  0.13735269  0.87535366  0.64238555  1
  O  O332  1  0.62071399  0.39629888  0.12865393  1
  O  O333  1  0.62363393  0.37086405  0.63733026  1
  O  O334  1  0.63914288  0.86222215  0.13811987  1
  O  O335  1  0.64014147  0.87650452  0.62796467  1
  O  O336  1  0.10513841  0.22227937  0.23080340  1
  O  O337  1  0.10348145  0.27184379  0.73042674  1
  O  O338  1  0.08551089  0.78332907  0.22185656  1
  O  O339  1  0.11055291  0.73973929  0.76745465  1
  O  O340  1  0.66253065  0.26559244  0.27015548  1
  O  O341  1  0.61873496  0.25855927  0.75307978  1
  O  O342  1  0.61823605  0.75782589  0.26622768  1
  O  O343  1  0.61593149  0.74823201  0.75350479  1
  O  O344  1  0.37674648  0.31540467  0.25525944  1
  O  O345  1  0.39094182  0.23314450  0.75688189  1
  O  O346  1  0.39278243  0.75831252  0.24812593  1
  O  O347  1  0.39117373  0.74445653  0.75307920  1
  O  O348  1  0.86851105  0.24373339  0.21863824  1
  O  O349  1  0.89470394  0.23309873  0.73944509  1
  O  O350  1  0.92322325  0.77854254  0.30992364  1
  O  O351  1  0.88811468  0.74003429  0.74344159  1
  O  O352  1  0.37196523  0.48635318  0.51535476  1
  O  O353  1  0.37582210  0.49101367  0.97971598  1
  O  O354  1  0.40293807  0.99776586  0.50814991  1
  O  O355  1  0.37179249  1.01185373  0.98957484  1
  O  O356  1  0.89684922  0.50957763  0.49535583  1
  O  O357  1  0.87062753  0.47853625  0.99059176  1
  O  O358  1  0.90881637  0.99613589  0.50408636  1
  O  O359  1  0.86394042  0.98759004  0.98671265  1
  O  O360  1  0.13801976  0.00646482  0.00027938  1
  O  O361  1  0.16474986  0.05536520  0.47700490  1
  O  O362  1  0.10806005  0.50788960  -0.01089528  1
  O  O363  1  0.13063668  0.50114873  0.51933484  1
  O  O364  1  0.61295787  -0.04114001  0.00814333  1
  O  O365  1  0.61402735  -0.00820638  0.51848985  1
  O  O366  1  0.62098801  0.49526691  -0.00065798  1
  O  O367  1  0.61939380  0.51843109  0.48736660  1
  O  O368  1  0.35974931  0.38428469  0.10563046  1
  O  O369  1  0.39052470  0.37312246  0.60549793  1
  O  O370  1  0.34944166  0.87175743  0.12280859  1
  O  O371  1  0.38405331  0.86537572  0.63986465  1
  O  O372  1  0.87012397  0.34968453  0.09695852  1
  O  O373  1  0.86910947  0.35641452  0.65576958  1
  O  O374  1  0.85956533  0.88111501  0.10850133  1
  O  O375  1  0.89168685  0.85223732  0.61143578  1
  O  O376  1  0.18060326  0.14593583  0.35791864  1
  O  O377  1  0.23335914  0.13970420  0.92758577  1
  O  O378  1  0.19266198  0.62107890  0.35852404  1
  O  O379  1  0.12295312  0.63213038  0.88360677  1
  O  O380  1  0.64905197  0.13458016  0.36862179  1
  O  O381  1  0.63127022  0.13444498  0.86482624  1
  O  O382  1  0.61465624  0.64385259  0.38840387  1
  O  O383  1  0.64161871  0.63167099  0.86148213  1
