# generated using pymatgen
data_VZnO4
_symmetry_space_group_name_H-M   'P 1'
_cell_length_a   16.96445741
_cell_length_b   17.00809139
_cell_length_c   16.98212344
_cell_angle_alpha   89.80962487
_cell_angle_beta   90.04577635
_cell_angle_gamma   90.14896476
_symmetry_Int_Tables_number   1
_chemical_formula_structural   VZnO4
_chemical_formula_sum   'V64 Zn64 O256'
_cell_volume   4899.85859824
_cell_formula_units_Z   64
loop_
 _symmetry_equiv_pos_site_id
 _symmetry_equiv_pos_as_xyz
  1  'x, y, z'
loop_
 _atom_site_type_symbol
 _atom_site_label
 _atom_site_symmetry_multiplicity
 _atom_site_fract_x
 _atom_site_fract_y
 _atom_site_fract_z
 _atom_site_occupancy
  V  V0  1  0.13855536  0.36694964  0.24875840  1
  V  V1  1  0.38747001  0.37845821  0.51139371  1
  V  V2  1  0.24612555  0.61626814  0.87448641  1
  V  V3  1  0.38013909  0.87930388  0.48965997  1
  V  V4  1  0.26223450  0.75909448  0.00530035  1
  V  V5  1  0.36271285  0.76072637  0.63430345  1
  V  V6  1  0.59997633  0.50042006  0.63101189  1
  V  V7  1  0.25347114  0.36781311  0.63725002  1
  V  V8  1  0.75542883  0.25216274  0.50373201  1
  V  V9  1  0.37209057  0.60525268  0.75946866  1
  V  V10  1  0.13568753  0.23945718  0.38998574  1
  V  V11  1  -0.01425590  -0.00010494  0.46713099  1
  V  V12  1  0.12367356  0.24585956  0.87830869  1
  V  V13  1  0.53456183  0.39128384  0.89300519  1
  V  V14  1  0.61709609  0.87361060  0.72192590  1
  V  V15  1  0.23224457  0.90101062  0.15675033  1
  V  V16  1  0.00438488  -0.00207580  0.00711459  1
  V  V17  1  0.90424918  0.59757798  0.22927522  1
  V  V18  1  0.48152848  0.63478560  0.13858366  1
  V  V19  1  0.86382629  0.13040575  0.23798082  1
  V  V20  1  0.11808740  0.01534196  0.63896270  1
  V  V21  1  0.64776149  0.75312872  0.38571682  1
  V  V22  1  0.62370987  0.63947947  -0.00986434  1
  V  V23  1  0.51504594  0.20453437  0.73686361  1
  V  V24  1  0.89842300  0.24159871  0.62586909  1
  V  V25  1  0.13549137  0.49471326  0.65305292  1
  V  V26  1  0.77607673  0.63592782  0.82277185  1
  V  V27  1  0.25813475  0.49024628  0.25668172  1
  V  V28  1  -0.00828026  0.76337880  0.25120289  1
  V  V29  1  0.62757463  0.51272460  0.12817650  1
  V  V30  1  0.37298679  0.63549549  0.26100756  1
  V  V31  1  0.01128190  0.63586288  0.62080838  1
  V  V32  1  0.39818233  0.49789855  0.39076506  1
  V  V33  1  0.75567279  -0.00433978  0.70826086  1
  V  V34  1  0.88290031  0.37590627  0.50473526  1
  V  V35  1  0.28783855  0.04255676  0.76738411  1
  V  V36  1  0.59831433  0.00913015  0.60709371  1
  V  V37  1  0.75428369  0.50686473  0.26569161  1
  V  V38  1  0.62238477  0.39297528  0.26170750  1
  V  V39  1  -0.01025405  0.87654718  0.87660685  1
  V  V40  1  0.00854441  0.36317650  0.37741133  1
  V  V41  1  0.75385984  0.11644031  0.37556454  1
  V  V42  1  0.73054415  0.90710081  0.09089719  1
  V  V43  1  0.87957476  0.51374431  0.38912380  1
  V  V44  1  0.02675758  0.49951741  0.50170717  1
  V  V45  1  0.88036989  0.12398960  0.74810913  1
  V  V46  1  0.46654130  0.87080470  0.92483360  1
  V  V47  1  0.12286349  0.74976263  0.88422497  1
  V  V48  1  -0.01185068  0.75034376  0.74379971  1
  V  V49  1  0.85474395  -0.00194022  0.87942029  1
  V  V50  1  0.47211509  0.50729661  0.01038015  1
  V  V51  1  0.23930963  0.75377639  0.49757605  1
  V  V52  1  0.24201386  0.61440180  0.39124267  1
  V  V53  1  0.27106297  0.08507624  0.36204211  1
  V  V54  1  0.26715543  0.22569675  0.51043468  1
  V  V55  1  0.61084476  0.13098046  0.49571442  1
  V  V56  1  0.48519044  0.63135058  0.61774829  1
  V  V57  1  0.84444842  0.78264648  0.08165327  1
  V  V58  1  0.61875541  0.27341191  0.38560518  1
  V  V59  1  0.74613593  0.37703731  0.64067847  1
  V  V60  1  0.00083816  0.14908016  0.12563833  1
  V  V61  1  0.13593481  0.87220414  0.74444627  1
  V  V62  1  0.49854117  0.86202332  0.33526475  1
  V  V63  1  0.49937934  0.25502192  0.24959996  1
  Zn  Zn64  1  0.17719468  0.17690286  0.20571360  1
  Zn  Zn65  1  0.19411259  0.18748675  0.69313915  1
  Zn  Zn66  1  0.13801621  0.67234725  0.13575625  1
  Zn  Zn67  1  0.18736528  0.68779275  0.69225512  1
  Zn  Zn68  1  0.64086284  0.15808827  0.23113659  1
  Zn  Zn69  1  0.69200272  0.18288087  0.68926693  1
  Zn  Zn70  1  0.65094550  0.74054450  0.15288013  1
  Zn  Zn71  1  0.67619840  0.68452792  0.66929942  1
  Zn  Zn72  1  0.32523963  0.30953236  0.33069145  1
  Zn  Zn73  1  0.31980756  0.25543086  0.79318247  1
  Zn  Zn74  1  0.29990977  0.81691403  0.32179199  1
  Zn  Zn75  1  0.31300780  0.81355038  0.82277377  1
  Zn  Zn76  1  0.80899419  0.31750020  0.31458408  1
  Zn  Zn77  1  0.86722628  0.33944279  0.79265522  1
  Zn  Zn78  1  0.77340357  0.72600598  0.26595810  1
  Zn  Zn79  1  0.79398018  0.82111703  0.80734169  1
  Zn  Zn80  1  0.20518142  0.41988811  0.44112635  1
  Zn  Zn81  1  0.23467191  0.40981822  0.90809482  1
  Zn  Zn82  1  0.16697081  0.94054795  0.45463844  1
  Zn  Zn83  1  0.18805046  0.94108072  0.92925684  1
  Zn  Zn84  1  0.69392258  0.45070609  0.45464183  1
  Zn  Zn85  1  0.70259541  0.45106514  0.80524754  1
  Zn  Zn86  1  0.63051376  0.95877013  0.39489407  1
  Zn  Zn87  1  0.65116642  0.94134830  0.89451948  1
  Zn  Zn88  1  0.30287353  0.07994433  0.11427632  1
  Zn  Zn89  1  0.28107426  0.04618471  0.56214006  1
  Zn  Zn90  1  0.23893461  0.53685623  0.04642852  1
  Zn  Zn91  1  0.30934699  0.55701918  0.57020438  1
  Zn  Zn92  1  0.80980600  0.07945949  0.05938366  1
  Zn  Zn93  1  0.83091166  0.06534607  0.54512655  1
  Zn  Zn94  1  0.79248339  0.61759000  0.08240108  1
  Zn  Zn95  1  0.82568546  0.56556023  0.65169012  1
  Zn  Zn96  1  0.43481991  0.43580667  0.19288551  1
  Zn  Zn97  1  0.43331369  0.42621239  0.71012094  1
  Zn  Zn98  1  0.42618184  0.83275233  0.13142610  1
  Zn  Zn99  1  0.43002113  0.94153672  0.67621870  1
  Zn  Zn100  1  0.94504806  0.31154605  0.19634735  1
  Zn  Zn101  1  0.96764618  0.41942714  0.67936674  1
  Zn  Zn102  1  0.90458765  0.93292406  0.18908227  1
  Zn  Zn103  1  0.95015993  0.94635220  0.69177554  1
  Zn  Zn104  1  0.04036653  0.08267717  0.31410318  1
  Zn  Zn105  1  0.05430936  0.05530851  0.81375054  1
  Zn  Zn106  1  0.07163007  0.54385702  0.31287667  1
  Zn  Zn107  1  0.06295566  0.57084027  0.80728072  1
  Zn  Zn108  1  0.47304879  0.06544195  0.32060330  1
  Zn  Zn109  1  0.47809822  0.03160381  0.82839658  1
  Zn  Zn110  1  0.59338152  0.61865224  0.28958288  1
  Zn  Zn111  1  0.55686900  0.56639210  0.81474628  1
  Zn  Zn112  1  0.42796653  0.17767100  0.55811716  1
  Zn  Zn113  1  0.44320372  0.22576325  0.91561872  1
  Zn  Zn114  1  0.43395372  0.69521124  0.43890459  1
  Zn  Zn115  1  0.43654999  0.68760168  0.94099054  1
  Zn  Zn116  1  0.94041701  0.18040539  0.43819654  1
  Zn  Zn117  1  0.93978358  0.17243591  0.93394193  1
  Zn  Zn118  1  1.06803947  0.68995833  0.43197330  1
  Zn  Zn119  1  0.93048318  0.68200602  0.92701377  1
  Zn  Zn120  1  0.26863976  0.36592982  0.10145809  1
  Zn  Zn121  1  0.07994049  0.31056260  0.56275781  1
  Zn  Zn122  1  0.05249558  0.82188513  0.07938370  1
  Zn  Zn123  1  0.06367744  0.83199070  0.55750263  1
  Zn  Zn124  1  0.55370340  0.31343458  0.05775294  1
  Zn  Zn125  1  0.56642869  0.30698460  0.58293008  1
  Zn  Zn126  1  0.58612060  0.84523477  0.04027936  1
  Zn  Zn127  1  0.56234377  0.80918284  0.56356764  1
  O  O128  1  0.09860444  0.12800656  0.14083672  1
  O  O129  1  0.11928709  0.11385835  0.65509013  1
  O  O130  1  0.14638943  0.57350885  0.09774153  1
  O  O131  1  0.12402560  0.60349132  0.63748751  1
  O  O132  1  0.62086663  0.13008257  0.11876538  1
  O  O133  1  0.63235821  0.12081313  0.60253585  1
  O  O134  1  0.59574790  0.61578073  0.15315797  1
  O  O135  1  0.59255812  0.61500828  0.63135935  1
  O  O136  1  0.37898515  0.38808559  0.39976887  1
  O  O137  1  0.32907374  0.33926915  0.88799723  1
  O  O138  1  0.38410594  0.87279679  0.38213804  1
  O  O139  1  0.37506490  0.88418082  0.88538338  1
  O  O140  1  0.89134733  0.37094513  0.39127048  1
  O  O141  1  0.86696253  0.47640822  0.79972221  1
  O  O142  1  0.89051218  0.79272601  0.44463642  1
  O  O143  1  0.87704534  0.89014967  0.85999362  1
  O  O144  1  0.22512159  -0.00448496  0.37414762  1
  O  O145  1  0.24230325  0.01129139  0.85268565  1
  O  O146  1  0.25983017  0.50625347  0.38616143  1
  O  O147  1  0.23597181  0.51766558  0.87251792  1
  O  O148  1  0.73003537  0.02011381  0.37711437  1
  O  O149  1  0.75497291  -0.00643443  0.86318496  1
  O  O150  1  0.77183959  0.50121000  0.38477778  1
  O  O151  1  0.72776422  0.55136199  0.85250126  1
  O  O152  1  0.27227837  0.49390263  0.15964756  1
  O  O153  1  0.24150738  0.48659104  0.63529792  1
  O  O154  1  0.23665265  1.00447342  0.15201310  1
  O  O155  1  0.24507957  1.01307656  0.68086694  1
  O  O156  1  0.72997066  0.52475590  0.14329557  1
  O  O157  1  0.76351079  0.47606174  0.62976515  1
  O  O158  1  0.74191818  1.00506903  0.11080700  1
  O  O159  1  0.76137472  0.99966409  0.60943190  1
  O  O160  1  0.02436637  0.36880126  0.26590562  1
  O  O161  1  -0.02525268  0.36137374  0.77101841  1
  O  O162  1  -0.03348826  0.85983681  0.25381252  1
  O  O163  1  0.00507570  0.86387637  0.75507879  1
  O  O164  1  0.51675828  0.37410489  0.26049029  1
  O  O165  1  0.49101907  0.38495127  0.80070611  1
  O  O166  1  0.47429349  0.85916793  0.23931605  1
  O  O167  1  0.51774258  0.88628522  0.72840999  1
  O  O168  1  0.52750730  0.15163960  0.26684941  1
  O  O169  1  0.52350202  0.10672690  0.75513597  1
  O  O170  1  0.48102020  0.62160298  0.25292432  1
  O  O171  1  0.47697577  0.62142951  0.74656160  1
  O  O172  1  0.97787767  0.13544007  0.23552109  1
  O  O173  1  0.97936905  0.11246223  0.74632005  1
  O  O174  1  1.00422970  0.59577178  0.24151519  1
  O  O175  1  1.00725552  0.64156280  0.73551437  1
  O  O176  1  0.35369304  0.29863044  -0.04768590  1
  O  O177  1  0.36679827  0.26343742  0.49608122  1
  O  O178  1  0.36290913  0.75026223  0.00556079  1
  O  O179  1  0.36013108  0.76042920  0.50829371  1
  O  O180  1  0.88517213  0.26051237  -0.01258227  1
  O  O181  1  0.87583705  0.25344739  0.51159780  1
  O  O182  1  0.86941408  0.70376500  0.01678958  1
  O  O183  1  0.94304468  0.76184221  0.48444375  1
  O  O184  1  0.14262230  0.24115986  0.49689698  1
  O  O185  1  0.13251859  0.24404744  0.98119402  1
  O  O186  1  0.13408991  0.75031018  0.50562528  1
  O  O187  1  0.10392563  0.74973528  0.98140660  1
  O  O188  1  0.63398469  0.25112630  0.50109543  1
  O  O189  1  0.67304212  0.27367574  1.02489253  1
  O  O190  1  0.63508254  0.78038402  0.48351054  1
  O  O191  1  0.61588788  0.73261209  1.03672626  1
  O  O192  1  0.51446396  0.26038836  0.14957073  1
  O  O193  1  0.49394414  0.23107932  0.63641180  1
  O  O194  1  0.48710629  0.73395517  0.13383138  1
  O  O195  1  0.47583995  0.73722735  0.61986526  1
  O  O196  1  0.99775775  0.24748928  0.11480717  1
  O  O197  1  0.99631804  0.25109322  0.62020363  1
  O  O198  1  0.93952152  0.80970856  0.10608037  1
  O  O199  1  1.01644857  0.74273498  0.62823819  1
  O  O200  1  0.01776559  0.25610714  0.39331368  1
  O  O201  1  0.01875291  0.24844598  0.88539305  1
  O  O202  1  0.03240456  0.74267666  0.34031911  1
  O  O203  1  0.00161416  0.75228854  0.86057816  1
  O  O204  1  0.52153308  0.26511044  0.37975814  1
  O  O205  1  0.53209266  0.28945329  0.93761576  1
  O  O206  1  0.49628167  0.76489353  0.37511798  1
  O  O207  1  0.49722403  0.77965873  0.89862442  1
  O  O208  1  0.25266537  0.13039570  0.46101667  1
  O  O209  1  0.31802334  0.19811077  1.11530158  1
  O  O210  1  0.25333167  0.62650164  0.49532424  1
  O  O211  1  0.25259033  0.63610379  0.97764861  1
  O  O212  1  0.75556815  0.13705154  0.48988276  1
  O  O213  1  0.74862070  0.16840373  1.00912674  1
  O  O214  1  0.77136629  0.63742835  0.52252889  1
  O  O215  1  0.72327102  0.62657912  0.99291259  1
  O  O216  1  0.22820235  0.42599696  0.01670498  1
  O  O217  1  0.26567786  0.36284022  0.51938771  1
  O  O218  1  0.24001947  0.85706431  -0.01490010  1
  O  O219  1  0.24877024  0.85507946  0.48325611  1
  O  O220  1  0.84317334  0.35789401  -0.09430202  1
  O  O221  1  0.76640456  0.36997168  0.51407938  1
  O  O222  1  0.66433516  0.92008045  0.00225486  1
  O  O223  1  0.84056060  0.82302298  0.59908898  1
  O  O224  1  0.14772090  0.47964891  0.26242337  1
  O  O225  1  0.11771725  0.48904679  0.75065279  1
  O  O226  1  0.09550661  0.98619194  0.24710616  1
  O  O227  1  0.10996091  0.98103702  0.74899805  1
  O  O228  1  0.63699636  0.50748893  0.26671921  1
  O  O229  1  0.62294515  0.50509302  0.73635069  1
  O  O230  1  0.58217379  1.05731478  0.11186160  1
  O  O231  1  0.64275650  0.99358056  0.71377140  1
  O  O232  1  0.43320116  0.01835337  0.20454545  1
  O  O233  1  0.38626653  0.00635771  0.76116283  1
  O  O234  1  0.37294883  0.49453427  0.27918842  1
  O  O235  1  0.36580281  0.50696184  0.75945833  1
  O  O236  1  0.86349616  0.03032912  0.24083685  1
  O  O237  1  0.86714629  0.00578530  0.74471864  1
  O  O238  1  0.87969464  0.49815834  0.27851774  1
  O  O239  1  0.90026389  0.50780042  0.73748573  1
  O  O240  1  0.12210568  0.36169489  0.38360436  1
  O  O241  1  0.13448668  0.34861152  0.87401300  1
  O  O242  1  0.10021775  0.92662669  0.28900622  1
  O  O243  1  0.11075899  0.86411301  0.86571433  1
  O  O244  1  0.63407771  0.37802255  0.38337413  1
  O  O245  1  0.63239779  0.40211149  0.88218692  1
  O  O246  1  0.60993261  0.85614250  0.34518197  1
  O  O247  1  0.64714471  0.85801162  0.81700908  1
  O  O248  1  0.41777839  0.07372800  0.15593420  1
  O  O249  1  0.32156270  0.15118366  0.58241049  1
  O  O250  1  0.37631465  0.62057195  0.15329436  1
  O  O251  1  0.37254859  0.62533162  0.64180340  1
  O  O252  1  0.87350382  0.14090813  0.13308285  1
  O  O253  1  0.87802952  0.13771723  0.62502136  1
  O  O254  1  0.89038312  0.58307643  0.13244829  1
  O  O255  1  0.91366729  0.61988926  0.61218095  1
  O  O256  1  0.25225603  0.23922461  0.12621285  1
  O  O257  1  0.23213094  0.26073152  0.61335311  1
  O  O258  1  0.22673920  0.73619376  0.09677299  1
  O  O259  1  0.25649192  0.73866880  0.61068175  1
  O  O260  1  0.71910217  0.22257493  0.06010788  1
  O  O261  1  0.75278619  0.25973864  0.61722547  1
  O  O262  1  0.77323021  0.72186867  0.14077531  1
  O  O263  1  0.74774862  0.70062766  0.55088792  1
  O  O264  1  0.24538609  0.25854024  0.39744309  1
  O  O265  1  0.22656864  0.22713590  0.87846044  1
  O  O266  1  0.25159924  0.72834727  0.39090593  1
  O  O267  1  0.23371305  0.74771268  0.88414209  1
  O  O268  1  0.74688932  0.25989882  0.39594940  1
  O  O269  1  0.82659613  0.28858916  0.94115388  1
  O  O270  1  0.74923354  0.76126566  0.37242585  1
  O  O271  1  0.74579242  0.72924206  0.85013579  1
  O  O272  1  -0.01350859  0.10993203  0.01980063  1
  O  O273  1  0.00279224  0.09912081  0.48767821  1
  O  O274  1  -0.00384849  0.57686577  -0.04218413  1
  O  O275  1  0.02554600  0.60804973  0.50890265  1
  O  O276  1  0.44089270  0.10815998  -0.08512832  1
  O  O277  1  0.51281534  0.14160964  0.49028774  1
  O  O278  1  0.49471696  0.62139634  0.02161479  1
  O  O279  1  0.47483725  0.62024793  0.52016722  1
  O  O280  1  0.48502687  0.36360453  0.52428155  1
  O  O281  1  0.50284211  0.40612140  1.00911023  1
  O  O282  1  0.47845377  0.87226044  0.50742335  1
  O  O283  1  0.47669934  0.87478717  1.03075495  1
  O  O284  1  1.00248921  0.37985441  0.50096931  1
  O  O285  1  0.99577003  0.40402325  0.99466977  1
  O  O286  1  1.05604469  0.91391355  0.47777764  1
  O  O287  1  0.99789333  0.88159333  0.98029271  1
  O  O288  1  0.49299323  0.50426321  0.38833536  1
  O  O289  1  0.50365699  0.50202652  0.90304925  1
  O  O290  1  0.51794709  0.96901999  0.35722108  1
  O  O291  1  0.52986071  0.95001431  0.88872086  1
  O  O292  1  1.00219023  0.48625103  0.39091959  1
  O  O293  1  1.00013636  0.52902738  0.89905524  1
  O  O294  1  0.98164799  1.00257432  0.36604153  1
  O  O295  1  0.98374596  0.99417675  0.88338910  1
  O  O296  1  -0.01987101  -0.02169943  0.10369141  1
  O  O297  1  0.01942022  -0.00659143  0.61500476  1
  O  O298  1  -0.08814272  0.40995874  0.13811365  1
  O  O299  1  0.02223625  0.49624507  0.61575453  1
  O  O300  1  0.52771262  0.05585193  0.06094733  1
  O  O301  1  0.50006083  0.01623102  0.61650353  1
  O  O302  1  0.49395943  0.51189648  0.12480072  1
  O  O303  1  0.49772057  0.49576593  0.63352441  1
  O  O304  1  0.25080908  0.38205646  0.27688288  1
  O  O305  1  0.27011247  0.34327617  0.73456004  1
  O  O306  1  0.22909215  0.86788059  0.25442074  1
  O  O307  1  0.23350999  0.87023401  0.76190357  1
  O  O308  1  0.74155291  0.39738469  0.26243211  1
  O  O309  1  0.76040963  0.36713686  0.74453422  1
  O  O310  1  0.80980583  0.87205217  0.15837848  1
  O  O311  1  0.75935633  0.89297327  0.72438223  1
  O  O312  1  0.25362824  0.12477519  0.26943512  1
  O  O313  1  0.28392609  0.14807094  0.75786846  1
  O  O314  1  0.26321938  0.60411965  0.27455640  1
  O  O315  1  0.26124264  0.63222963  0.76146514  1
  O  O316  1  0.74843391  0.14010930  0.26755698  1
  O  O317  1  0.76257114  0.10501148  0.73413174  1
  O  O318  1  0.78573246  0.60702629  0.26048132  1
  O  O319  1  0.76484922  0.63648108  0.71504168  1
  O  O320  1  0.37099352  0.07655319  0.36537299  1
  O  O321  1  0.33750843  0.10751082  1.00027436  1
  O  O322  1  0.37186218  0.61259915  0.37863650  1
  O  O323  1  0.36389805  0.63339576  0.86469611  1
  O  O324  1  0.85877109  0.13225475  0.36804690  1
  O  O325  1  0.87224450  0.11225493  0.85845354  1
  O  O326  1  0.89620530  0.60818037  0.38979719  1
  O  O327  1  0.87333994  0.62718100  0.84711462  1
  O  O328  1  0.15242327  0.35894138  0.15286419  1
  O  O329  1  0.13870781  0.38465605  0.63046208  1
  O  O330  1  0.14183450  0.87947388  0.11387063  1
  O  O331  1  0.12839385  0.87680372  0.64254190  1
  O  O332  1  0.61794869  0.40890580  0.14751010  1
  O  O333  1  0.63899284  0.38163042  0.63406188  1
  O  O334  1  0.65139927  0.85970404  0.14114229  1
  O  O335  1  0.61696533  0.90889930  0.59981317  1
  O  O336  1  0.14397712  0.26243398  0.27536978  1
  O  O337  1  0.12611667  0.24467001  0.77217901  1
  O  O338  1  0.06309717  0.74387158  0.17587259  1
  O  O339  1  0.11767007  0.76005207  0.75622133  1
  O  O340  1  0.62996314  0.27267823  0.27322586  1
  O  O341  1  0.60981739  0.24033233  0.74777565  1
  O  O342  1  0.64861988  0.72102304  0.26326578  1
  O  O343  1  0.62680251  0.78166775  0.67352314  1
  O  O344  1  0.40143853  0.25549348  0.26833980  1
  O  O345  1  0.43319247  0.23402043  0.79764477  1
  O  O346  1  0.36077256  0.73225569  0.26672103  1
  O  O347  1  0.36146250  0.75453389  0.73516016  1
  O  O348  1  0.87029744  0.24776750  0.25262706  1
  O  O349  1  0.87167288  0.23342216  0.73594654  1
  O  O350  1  0.89772680  0.70741133  0.24673021  1
  O  O351  1  0.89119259  0.75963950  0.74099588  1
  O  O352  1  0.37526078  0.48918127  0.50240942  1
  O  O353  1  0.37527884  0.51162918  1.00881803  1
  O  O354  1  0.35317735  0.97296515  0.51324220  1
  O  O355  1  0.39448038  1.06352623  0.97012644  1
  O  O356  1  0.89522273  0.48602379  0.49840049  1
  O  O357  1  0.85146543  0.41080684  1.08548207  1
  O  O358  1  0.89003998  0.98313852  0.49703606  1
  O  O359  1  0.86695873  1.01101199  0.98039931  1
  O  O360  1  0.10297395  -0.00235011  -0.00875225  1
  O  O361  1  0.17209530  0.00686971  0.54977217  1
  O  O362  1  0.04792261  0.43740829  0.03136950  1
  O  O363  1  0.12455464  0.48485343  0.50087734  1
  O  O364  1  0.62047423  0.10569821  -0.05764860  1
  O  O365  1  0.61802902  0.02299215  0.49538160  1
  O  O366  1  0.61553835  0.52794763  0.02713904  1
  O  O367  1  0.63291912  0.49964525  0.53487533  1
  O  O368  1  0.37152068  0.36271004  0.13889913  1
  O  O369  1  0.36532790  0.38242820  0.62354434  1
  O  O370  1  0.32354774  0.87059153  0.12334576  1
  O  O371  1  0.36755854  0.86232960  0.62016112  1
  O  O372  1  0.80312316  0.35351635  0.08772305  1
  O  O373  1  0.87688650  0.35845080  0.62139355  1
  O  O374  1  0.79359445  0.84657984  0.01783768  1
  O  O375  1  0.89977075  0.86630765  0.60030698  1
  O  O376  1  0.12251314  0.14150530  0.36615808  1
  O  O377  1  0.10818187  0.14038778  0.87110916  1
  O  O378  1  0.13923548  0.61277966  0.37829195  1
  O  O379  1  0.13404019  0.64211145  0.86249060  1
  O  O380  1  0.64160676  0.15150949  0.39020947  1
  O  O381  1  0.63971147  0.15634893  0.89425852  1
  O  O382  1  0.61825696  0.65385222  0.39461731  1
  O  O383  1  0.59441266  0.64293146  0.89469654  1
