# generated using pymatgen
data_VZnO4
_symmetry_space_group_name_H-M   'P 1'
_cell_length_a   16.93591155
_cell_length_b   16.98141287
_cell_length_c   16.97459567
_cell_angle_alpha   90.02458567
_cell_angle_beta   89.57706682
_cell_angle_gamma   90.41761845
_symmetry_Int_Tables_number   1
_chemical_formula_structural   VZnO4
_chemical_formula_sum   'V64 Zn64 O256'
_cell_volume   4881.55781549
_cell_formula_units_Z   64
loop_
 _symmetry_equiv_pos_site_id
 _symmetry_equiv_pos_as_xyz
  1  'x, y, z'
loop_
 _atom_site_type_symbol
 _atom_site_label
 _atom_site_symmetry_multiplicity
 _atom_site_fract_x
 _atom_site_fract_y
 _atom_site_fract_z
 _atom_site_occupancy
  V  V0  1  0.36250735  0.63530950  0.76514831  1
  V  V1  1  0.24635513  0.51508816  0.76260646  1
  V  V2  1  0.25670584  0.49052072  0.25113493  1
  V  V3  1  0.37403714  0.74960781  0.62359709  1
  V  V4  1  0.87527119  0.24521624  0.62323751  1
  V  V5  1  0.12786161  0.77054532  0.86785737  1
  V  V6  1  0.74631723  0.12489012  0.89723578  1
  V  V7  1  0.74588869  0.27474743  0.00862851  1
  V  V8  1  0.13888452  0.24492775  0.87501707  1
  V  V9  1  0.62039500  -0.01151887  0.10523753  1
  V  V10  1  0.62377850  0.63988475  0.00465183  1
  V  V11  1  0.74800667  0.62785954  0.85673579  1
  V  V12  1  0.37507878  0.63653737  0.25640972  1
  V  V13  1  0.12513550  0.12069061  0.01629501  1
  V  V14  1  0.61861699  0.26176804  0.86678152  1
  V  V15  1  0.38311882  0.49044695  0.39195207  1
  V  V16  1  0.52238534  0.76528444  0.74344774  1
  V  V17  1  0.49989821  0.11907040  0.10808929  1
  V  V18  1  0.11231248  0.01166343  0.61431650  1
  V  V19  1  0.90595830  0.29032482  0.11662285  1
  V  V20  1  0.73021979  0.00616642  0.75469787  1
  V  V21  1  0.23195731  0.23560525  0.51329164  1
  V  V22  1  0.85843728  0.07174394  0.38995367  1
  V  V23  1  0.37931396  0.13416495  0.24808155  1
  V  V24  1  -0.00392411  0.38266509  0.88919575  1
  V  V25  1  0.49411269  0.48882522  -0.01658189  1
  V  V26  1  -0.00930388  0.38233544  0.37391950  1
  V  V27  1  0.50624731  0.75657972  0.26475761  1
  V  V28  1  0.23409178  0.75129500  0.49837009  1
  V  V29  1  0.77144867  0.86839891  0.55369482  1
  V  V30  1  0.13282856  0.49375232  0.12270185  1
  V  V31  1  0.36344159  0.86746421  -0.00085015  1
  V  V32  1  0.12921926  0.84967072  0.25085297  1
  V  V33  1  0.26629611  0.26142279  0.01573971  1
  V  V34  1  0.62309661  0.88327280  0.27026501  1
  V  V35  1  0.13286566  0.38044487  0.74657836  1
  V  V36  1  -0.00039590  0.25239469  0.75351060  1
  V  V37  1  0.62221399  0.49109253  0.12853881  1
  V  V38  1  0.86815757  0.50854800  0.87754905  1
  V  V39  1  0.00532151  0.84037389  0.38621439  1
  V  V40  1  0.37712588  0.12635606  0.74773122  1
  V  V41  1  0.49154644  0.60203742  0.62343002  1
  V  V42  1  0.23725671  0.87786468  0.62799290  1
  V  V43  1  0.89168034  -0.00675203  0.89203735  1
  V  V44  1  0.24251922  -0.00335058  0.23862976  1
  V  V45  1  0.76950808  0.74525220  0.00994949  1
  V  V46  1  0.12246801  0.51462230  0.62187212  1
  V  V47  1  0.39088615  -0.00211159  0.87816169  1
  V  V48  1  -0.02539203  0.62297207  0.62915203  1
  V  V49  1  0.37580173  0.00203271  0.37209461  1
  V  V50  1  0.76156589  0.86685523  0.13764315  1
  V  V51  1  0.05031355  0.25335004  0.26550472  1
  V  V52  1  0.37188918  0.26687560  0.61785503  1
  V  V53  1  0.76275287  0.37731143  0.65334178  1
  V  V54  1  0.62082207  0.25173389  0.36881109  1
  V  V55  1  -0.00703731  0.63218040  0.14043603  1
  V  V56  1  0.24111375  -0.00034033  0.75788464  1
  V  V57  1  0.10135822  0.61871157  -0.01308962  1
  V  V58  1  0.88314781  0.12107391  0.76327752  1
  V  V59  1  -0.02623973  0.75659530  0.75559400  1
  V  V60  1  0.49926261  0.10974614  0.61631807  1
  V  V61  1  0.38577772  0.87987399  0.49425086  1
  V  V62  1  0.61721168  0.61871297  0.49679510  1
  V  V63  1  0.24016330  0.62002131  0.38642037  1
  Zn  Zn64  1  0.20790899  0.18505058  0.18176300  1
  Zn  Zn65  1  0.18812778  0.18342680  0.68831246  1
  Zn  Zn66  1  0.14689165  0.64543023  0.22264375  1
  Zn  Zn67  1  0.17710922  0.69574875  0.69413509  1
  Zn  Zn68  1  0.64473184  0.20316936  0.16161402  1
  Zn  Zn69  1  0.69267013  0.17091191  0.68732584  1
  Zn  Zn70  1  0.66927150  0.69696470  0.18210200  1
  Zn  Zn71  1  0.67007017  0.73765764  0.60951348  1
  Zn  Zn72  1  0.31161946  0.31202600  0.31894592  1
  Zn  Zn73  1  0.32198204  0.31786962  0.81084594  1
  Zn  Zn74  1  0.30454579  0.81401576  0.31553163  1
  Zn  Zn75  1  0.31131317  0.82020032  0.81645944  1
  Zn  Zn76  1  0.82887821  0.26981196  0.30258856  1
  Zn  Zn77  1  0.81408450  0.31081302  0.82524129  1
  Zn  Zn78  1  0.94940187  0.97181032  0.28943623  1
  Zn  Zn79  1  0.79227985  0.82376501  0.81240833  1
  Zn  Zn80  1  0.17426298  0.43511492  0.43511178  1
  Zn  Zn81  1  0.18939316  0.43661741  0.93952024  1
  Zn  Zn82  1  0.18258072  0.94511664  0.42717970  1
  Zn  Zn83  1  0.18628378  0.93754504  0.94747458  1
  Zn  Zn84  1  0.55074744  0.43397012  0.46020544  1
  Zn  Zn85  1  0.67725432  0.44705766  0.93367367  1
  Zn  Zn86  1  0.79484526  0.89338098  0.34982397  1
  Zn  Zn87  1  0.70166062  0.92192223  0.93684529  1
  Zn  Zn88  1  0.30948705  0.06821158  0.05902278  1
  Zn  Zn89  1  0.30681485  0.06220524  0.55940757  1
  Zn  Zn90  1  0.34751575  0.52445609  0.08526939  1
  Zn  Zn91  1  0.30275715  0.55703203  0.56928513  1
  Zn  Zn92  1  0.80745698  0.04191409  0.06563875  1
  Zn  Zn93  1  0.81927230  0.05015550  0.58992983  1
  Zn  Zn94  1  0.81329063  0.54621009  0.06588142  1
  Zn  Zn95  1  0.76277330  0.58985303  0.64507900  1
  Zn  Zn96  1  0.49249296  0.62835407  0.12058397  1
  Zn  Zn97  1  0.42548073  0.43423309  0.71179038  1
  Zn  Zn98  1  0.43807601  0.93675237  0.18608070  1
  Zn  Zn99  1  0.43633880  0.93949023  0.68592461  1
  Zn  Zn100  1  0.95677516  0.44359740  0.20536748  1
  Zn  Zn101  1  0.93804971  0.43780886  0.69606387  1
  Zn  Zn102  1  0.97950069  0.87641159  0.15481673  1
  Zn  Zn103  1  0.92568954  0.93330736  0.67585801  1
  Zn  Zn104  1  0.05131503  0.06693828  0.18968615  1
  Zn  Zn105  1  0.06616925  0.05887429  0.81316531  1
  Zn  Zn106  1  0.05636512  0.53394642  0.31452669  1
  Zn  Zn107  1  0.04652579  0.56384127  0.80330363  1
  Zn  Zn108  1  0.55352407  0.05874821  0.31142831  1
  Zn  Zn109  1  0.55989940  0.07947712  0.81736502  1
  Zn  Zn110  1  0.56153160  0.56424576  0.31798519  1
  Zn  Zn111  1  0.54338966  0.60951062  0.83172194  1
  Zn  Zn112  1  0.42438637  0.18527721  0.44409017  1
  Zn  Zn113  1  0.43532874  0.18431923  0.92959110  1
  Zn  Zn114  1  0.43544582  0.68463911  0.44224229  1
  Zn  Zn115  1  0.44857618  0.70937632  0.93212708  1
  Zn  Zn116  1  0.93600791  0.23356340  0.42139767  1
  Zn  Zn117  1  0.93953477  0.19348111  0.94878840  1
  Zn  Zn118  1  1.06145251  0.67062397  0.44986269  1
  Zn  Zn119  1  0.93685466  0.68784999  0.93302140  1
  Zn  Zn120  1  0.08077703  0.31379543  0.05932786  1
  Zn  Zn121  1  0.05390755  0.32482116  0.56241039  1
  Zn  Zn122  1  0.10621791  0.76607033  0.08489702  1
  Zn  Zn123  1  0.04669085  0.81189548  0.57897405  1
  Zn  Zn124  1  0.55903176  0.31188598  0.04826752  1
  Zn  Zn125  1  0.57276967  0.26118308  0.56989893  1
  Zn  Zn126  1  0.55001053  0.81182635  0.07727430  1
  Zn  Zn127  1  0.59742210  0.84006694  0.47871927  1
  O  O128  1  0.12624745  0.12434247  0.12155249  1
  O  O129  1  0.12333505  0.11103720  0.62833097  1
  O  O130  1  0.11596001  0.63421550  0.10761023  1
  O  O131  1  0.12118565  0.61689202  0.63126467  1
  O  O132  1  0.62020591  0.09547594  0.12379044  1
  O  O133  1  0.59728136  0.15797840  0.61933704  1
  O  O134  1  0.61844809  0.62184308  0.11339938  1
  O  O135  1  0.58809516  0.61127808  0.64147552  1
  O  O136  1  0.37278557  0.39244935  0.37380726  1
  O  O137  1  0.41204354  0.37899541  0.80604283  1
  O  O138  1  0.36752442  0.87667054  0.39058755  1
  O  O139  1  0.37469966  0.88998143  0.88118193  1
  O  O140  1  0.89260396  0.33625188  0.37056207  1
  O  O141  1  0.89406927  0.36749536  0.88475380  1
  O  O142  1  0.91185643  0.87701861  0.35238664  1
  O  O143  1  0.86556515  0.89829525  0.87131877  1
  O  O144  1  0.26182033  -0.00428775  0.36088236  1
  O  O145  1  0.24446317  -0.00837710  0.85753145  1
  O  O146  1  0.25116991  0.51059894  0.37583404  1
  O  O147  1  0.24261391  0.50166828  0.86064173  1
  O  O148  1  0.80023092  0.00853115  0.33467653  1
  O  O149  1  0.76325108  0.01435016  0.87326348  1
  O  O150  1  0.79351454  0.54457025  0.39476900  1
  O  O151  1  0.75424434  0.51829090  0.87635550  1
  O  O152  1  0.25446109  0.50221069  0.14331070  1
  O  O153  1  0.23167056  0.50658011  0.64466539  1
  O  O154  1  0.26294386  0.99562094  0.13968341  1
  O  O155  1  0.24314701  0.98616069  0.62637597  1
  O  O156  1  0.72492614  0.50377505  0.12230833  1
  O  O157  1  0.75977309  0.47582189  0.64283815  1
  O  O158  1  0.73611308  0.97477994  0.12350383  1
  O  O159  1  0.72830223  1.05565456  0.66065426  1
  O  O160  1  0.00552132  0.34834146  0.25484086  1
  O  O161  1  0.00942349  0.36636395  0.76426078  1
  O  O162  1  0.02196663  0.85889633  0.26306297  1
  O  O163  1  -0.01455500  0.85592284  0.73150113  1
  O  O164  1  0.46712395  0.38742279  0.22755345  1
  O  O165  1  0.57135584  0.41574804  0.73313592  1
  O  O166  1  0.50811699  0.86416648  0.25094208  1
  O  O167  1  0.49184105  0.85979436  0.74648168  1
  O  O168  1  0.48457608  0.11700143  0.24086184  1
  O  O169  1  0.48344916  0.12203994  0.74084990  1
  O  O170  1  0.48277676  0.63486178  0.26494815  1
  O  O171  1  0.47253427  0.63467691  0.73681164  1
  O  O172  1  1.01529717  0.15946898  0.25222683  1
  O  O173  1  0.99622888  0.14326506  0.76467918  1
  O  O174  1  1.02132168  0.62378059  0.23982020  1
  O  O175  1  0.99213877  0.63813739  0.74143574  1
  O  O176  1  0.36206844  0.24698050  -0.01419509  1
  O  O177  1  0.35855087  0.25006870  0.51259761  1
  O  O178  1  0.36798555  0.76755295  -0.02088705  1
  O  O179  1  0.36540871  0.75894522  0.51137480  1
  O  O180  1  0.86538677  0.25185220  0.02261749  1
  O  O181  1  0.89528511  0.23551842  0.52718826  1
  O  O182  1  0.86834318  0.73780360  0.01224058  1
  O  O183  1  0.85667754  0.68730562  0.47693174  1
  O  O184  1  0.13299715  0.24904695  0.52974444  1
  O  O185  1  0.14236743  0.24805767  0.98573876  1
  O  O186  1  0.13359016  0.74667859  0.51079551  1
  O  O187  1  0.12247645  0.72577975  0.97940980  1
  O  O188  1  0.64305113  0.23705399  0.46945410  1
  O  O189  1  0.64084044  0.25525590  0.98261492  1
  O  O190  1  0.60349192  0.73276487  0.51561025  1
  O  O191  1  0.63113458  0.74218698  1.01090913  1
  O  O192  1  0.53346099  0.22014627  0.11850279  1
  O  O193  1  0.47040190  0.23736467  0.62721786  1
  O  O194  1  0.50057867  0.73877290  0.15285303  1
  O  O195  1  0.47526594  0.74850010  0.63615441  1
  O  O196  1  1.00532416  0.26240254  0.12718975  1
  O  O197  1  0.99379322  0.26110035  0.64830183  1
  O  O198  1  0.99454653  0.73413356  0.12444228  1
  O  O199  1  0.99097388  0.73474684  0.64064480  1
  O  O200  1  0.03633052  0.26856089  0.37156803  1
  O  O201  1  0.01414126  0.26185141  0.87058153  1
  O  O202  1  0.00442736  0.74026339  0.38066710  1
  O  O203  1  0.00465877  0.74590044  0.86239553  1
  O  O204  1  0.51630108  0.23803576  0.38505321  1
  O  O205  1  0.52053566  0.23760096  0.87748653  1
  O  O206  1  0.49033756  0.75055000  0.36567183  1
  O  O207  1  0.51989825  0.73027825  0.84249205  1
  O  O208  1  0.24688618  0.13687766  0.49702688  1
  O  O209  1  0.23767736  0.14471491  1.00833650  1
  O  O210  1  0.25129994  0.63705664  0.49419264  1
  O  O211  1  0.27723589  0.69476246  1.06567721  1
  O  O212  1  0.65366114  0.04647924  0.50996709  1
  O  O213  1  0.76018040  0.12206342  0.99797804  1
  O  O214  1  0.70970590  0.63159112  0.55159192  1
  O  O215  1  0.74149343  0.63672062  1.01342185  1
  O  O216  1  0.25033004  0.36066189  -0.00648293  1
  O  O217  1  0.24292904  0.34584821  0.46448140  1
  O  O218  1  0.26262629  0.87987699  0.00433249  1
  O  O219  1  0.25108415  0.86086494  0.50898260  1
  O  O220  1  0.75016553  0.37214638  -0.00759876  1
  O  O221  1  0.70194573  0.36305245  0.55287478  1
  O  O222  1  0.75432426  0.85386700  0.02016268  1
  O  O223  1  0.78574518  0.85099012  0.45425860  1
  O  O224  1  0.14821338  0.52265195  0.23382131  1
  O  O225  1  0.12888961  0.49457714  0.75009660  1
  O  O226  1  0.14163558  1.00553700  0.24553961  1
  O  O227  1  0.13735485  1.00186967  0.73966561  1
  O  O228  1  0.60298164  0.51136086  0.22797188  1
  O  O229  1  0.61119713  0.47609053  0.73843464  1
  O  O230  1  0.61876203  0.98418492  0.25457320  1
  O  O231  1  0.63289000  1.00067192  0.77567824  1
  O  O232  1  0.36866914  -0.00615321  0.26030398  1
  O  O233  1  0.36557594  0.00072448  0.76001273  1
  O  O234  1  0.35973850  0.51412852  0.27033828  1
  O  O235  1  0.35363800  0.52472891  0.74660272  1
  O  O236  1  0.96805038  -0.00822986  0.18129900  1
  O  O237  1  0.88525278  0.01878565  0.75898492  1
  O  O238  1  0.73946003  0.43789543  0.29367113  1
  O  O239  1  0.87130140  0.48159534  0.77699183  1
  O  O240  1  0.09106556  0.43064578  0.36241548  1
  O  O241  1  0.11895550  0.37193838  0.86368060  1
  O  O242  1  0.11268580  0.87637522  0.36639932  1
  O  O243  1  0.11667313  0.86754123  0.88771263  1
  O  O244  1  0.60255420  0.35401175  0.37626134  1
  O  O245  1  0.63102836  0.36263913  0.87018847  1
  O  O246  1  0.62431168  0.87631359  0.36996814  1
  O  O247  1  0.68828775  0.84732846  0.85533806  1
  O  O248  1  0.39054941  0.11962519  0.13366178  1
  O  O249  1  0.38062790  0.10880526  0.63650206  1
  O  O250  1  0.37352883  0.61651948  0.15435334  1
  O  O251  1  0.36799077  0.64060547  0.62446636  1
  O  O252  1  0.80947325  0.10544127  0.18643423  1
  O  O253  1  0.87908825  0.13685598  0.65442200  1
  O  O254  1  0.89776723  0.59762364  0.13038394  1
  O  O255  1  0.87614329  0.61073978  0.63105338  1
  O  O256  1  0.26473677  0.26078196  0.11644727  1
  O  O257  1  0.25789279  0.24666117  0.62052807  1
  O  O258  1  0.24937523  0.74538934  0.10949485  1
  O  O259  1  0.25108907  0.75864457  0.61919636  1
  O  O260  1  0.72635154  0.25948726  0.10719578  1
  O  O261  1  0.77196368  0.24752427  0.63535242  1
  O  O262  1  0.74851244  0.75659901  0.12554674  1
  O  O263  1  0.77742231  0.78118222  0.60485475  1
  O  O264  1  0.23572614  0.28204717  0.40703179  1
  O  O265  1  0.23871882  0.26003011  0.86223090  1
  O  O266  1  0.24931733  0.74030631  0.39351350  1
  O  O267  1  0.22826516  0.75840773  0.86452038  1
  O  O268  1  0.72324370  0.26603715  0.35269390  1
  O  O269  1  0.75871596  0.23702767  0.89510471  1
  O  O270  1  0.82217733  0.69252624  0.41464462  1
  O  O271  1  0.76343977  0.73108203  0.89718263  1
  O  O272  1  0.02715653  0.14286345  -0.00119467  1
  O  O273  1  0.04363409  0.12852182  0.46521984  1
  O  O274  1  0.00108945  0.61659411  0.00539547  1
  O  O275  1  -0.00244072  0.62534065  0.52881723  1
  O  O276  1  0.48855787  0.11696510  0.01016309  1
  O  O277  1  0.48097813  0.11832019  0.51681391  1
  O  O278  1  0.51614439  0.63959585  -0.00646653  1
  O  O279  1  0.49690379  0.62338372  0.51731313  1
  O  O280  1  0.52004716  0.33905957  0.50745150  1
  O  O281  1  0.49950763  0.38854121  0.98969459  1
  O  O282  1  0.48378161  0.87427331  0.50105192  1
  O  O283  1  0.48137735  0.87244632  1.01075881  1
  O  O284  1  1.00022466  0.37694809  0.47700499  1
  O  O285  1  1.01906996  0.37687275  0.98571518  1
  O  O286  1  1.00502930  0.85955256  0.48608898  1
  O  O287  1  0.97140986  0.85573619  0.97424667  1
  O  O288  1  0.48894779  0.49772248  0.38437393  1
  O  O289  1  0.51488527  0.51439762  0.88424055  1
  O  O290  1  0.47720494  0.99512083  0.37079035  1
  O  O291  1  0.48940860  1.00528081  0.87467545  1
  O  O292  1  0.95456359  0.47421435  0.31956484  1
  O  O293  1  0.98915328  0.48874742  0.87261786  1
  O  O294  1  0.95303982  1.03372033  0.38542704  1
  O  O295  1  0.99167772  1.00093304  0.87452168  1
  O  O296  1  0.00980935  -0.10963565  0.02547240  1
  O  O297  1  0.01482251  -0.00789980  0.62888449  1
  O  O298  1  0.03012499  0.50930626  0.13450454  1
  O  O299  1  0.01002140  0.51290560  0.64434435  1
  O  O300  1  0.51267241  0.00273428  0.12414130  1
  O  O301  1  0.50863487  0.01029213  0.63115497  1
  O  O302  1  0.50422772  0.51501451  0.09678091  1
  O  O303  1  0.47087237  0.50444551  0.63321520  1
  O  O304  1  0.25180347  0.39321524  0.26205964  1
  O  O305  1  0.23571781  0.38878995  0.75146490  1
  O  O306  1  0.23659600  0.88304495  0.25531995  1
  O  O307  1  0.25659653  0.88549632  0.73316854  1
  O  O308  1  0.77000197  0.39228822  0.24626564  1
  O  O309  1  0.74765886  0.36146461  0.75092904  1
  O  O310  1  0.73241782  0.86563865  0.24832197  1
  O  O311  1  0.76240451  0.91378781  0.73563278  1
  O  O312  1  0.27073735  0.10921981  0.24226698  1
  O  O313  1  0.25978355  0.10417060  0.73958305  1
  O  O314  1  0.25743253  0.62821256  0.27477959  1
  O  O315  1  0.24901767  0.62411567  0.75411059  1
  O  O316  1  0.74915539  0.12727737  0.22212623  1
  O  O317  1  0.77249446  0.12739236  0.77850030  1
  O  O318  1  0.75389272  0.61734384  0.25496121  1
  O  O319  1  0.74102029  0.63182313  0.75858348  1
  O  O320  1  0.37770904  0.11202767  0.36363225  1
  O  O321  1  0.37501307  0.11279417  0.85653992  1
  O  O322  1  0.36355730  0.61691936  0.37622869  1
  O  O323  1  0.37345825  0.64177621  0.86127215  1
  O  O324  1  0.86462629  0.17074941  0.35506637  1
  O  O325  1  0.87827614  0.12092593  0.87773173  1
  O  O326  1  0.88753135  0.50560826  0.47592806  1
  O  O327  1  0.86520481  0.61548909  0.87373032  1
  O  O328  1  0.13484023  0.39580970  0.12002827  1
  O  O329  1  0.11137795  0.38848680  0.64461529  1
  O  O330  1  0.11194372  0.86060777  0.14556495  1
  O  O331  1  0.13600405  0.87512387  0.62541368  1
  O  O332  1  0.60766448  0.39151559  0.11793347  1
  O  O333  1  0.65266999  0.34523014  0.61345655  1
  O  O334  1  0.62448161  0.88047523  0.13957034  1
  O  O335  1  0.67188662  0.89159800  0.55704179  1
  O  O336  1  0.14975726  0.25602878  0.24973362  1
  O  O337  1  0.12057781  0.26106666  0.75415779  1
  O  O338  1  0.14687576  0.75282751  0.25822299  1
  O  O339  1  0.11161068  0.75522313  0.76359365  1
  O  O340  1  0.61258879  0.25644428  0.26227009  1
  O  O341  1  0.64166780  0.23346261  0.77129479  1
  O  O342  1  0.61286768  0.75562822  0.26165511  1
  O  O343  1  0.61688756  0.75970793  0.71127306  1
  O  O344  1  0.36831638  0.23314964  0.26163133  1
  O  O345  1  0.35701116  0.22811578  0.73559640  1
  O  O346  1  0.37410669  0.74104979  0.25978083  1
  O  O347  1  0.35729288  0.74457035  0.73710243  1
  O  O348  1  0.85955020  0.25178263  0.19713006  1
  O  O349  1  0.89069231  0.24523088  0.75996967  1
  O  O350  1  0.82115784  0.64211902  0.26899958  1
  O  O351  1  0.87379227  0.75382446  0.76810527  1
  O  O352  1  0.36167264  0.50063570  0.49028742  1
  O  O353  1  0.39227299  0.51189555  0.98779630  1
  O  O354  1  0.36341833  0.98626955  0.48905929  1
  O  O355  1  0.36408026  1.00263056  0.97891454  1
  O  O356  1  0.81440138  0.50742553  0.45710834  1
  O  O357  1  0.86771172  0.49469716  0.97918174  1
  O  O358  1  0.82290138  1.07882557  0.48436139  1
  O  O359  1  0.88269635  1.00243866  0.99348127  1
  O  O360  1  0.13102252  0.02358314  -0.00702318  1
  O  O361  1  0.13194547  -0.00559832  0.51581951  1
  O  O362  1  0.14932712  0.52002806  0.01543229  1
  O  O363  1  0.13229075  0.49467474  0.52457119  1
  O  O364  1  0.62900830  -0.02095357  0.00645963  1
  O  O365  1  0.60204839  0.01554311  0.47028545  1
  O  O366  1  0.61686821  0.51499801  0.00512141  1
  O  O367  1  0.60992692  0.51568505  0.50687142  1
  O  O368  1  0.44003984  0.35229794  0.17094090  1
  O  O369  1  0.37454697  0.36448314  0.63079232  1
  O  O370  1  0.38803434  0.87931926  0.10172802  1
  O  O371  1  0.36359410  0.86831043  0.61400440  1
  O  O372  1  0.89599073  0.39065467  0.12523992  1
  O  O373  1  0.87103249  0.35877041  0.63718279  1
  O  O374  1  0.85961934  0.87106802  0.14539218  1
  O  O375  1  0.84469494  0.93753295  0.59496219  1
  O  O376  1  0.10005397  0.11957037  0.42160949  1
  O  O377  1  0.12756502  0.14470881  0.86802372  1
  O  O378  1  0.13492802  0.61379813  0.37956878  1
  O  O379  1  0.11266811  0.60781297  0.88757473  1
  O  O380  1  0.62172266  0.14578249  0.35373376  1
  O  O381  1  0.64510584  0.12687911  0.88457565  1
  O  O382  1  0.62362838  0.62326304  0.39572940  1
  O  O383  1  0.64455445  0.62679771  0.89028931  1
