# generated using pymatgen
data_VZnO4
_symmetry_space_group_name_H-M   'P 1'
_cell_length_a   17.03582234
_cell_length_b   17.02891991
_cell_length_c   17.13140894
_cell_angle_alpha   88.39291936
_cell_angle_beta   88.74549299
_cell_angle_gamma   89.35220608
_symmetry_Int_Tables_number   1
_chemical_formula_structural   VZnO4
_chemical_formula_sum   'V64 Zn64 O256'
_cell_volume   4966.42019366
_cell_formula_units_Z   64
loop_
 _symmetry_equiv_pos_site_id
 _symmetry_equiv_pos_as_xyz
  1  'x, y, z'
loop_
 _atom_site_type_symbol
 _atom_site_label
 _atom_site_symmetry_multiplicity
 _atom_site_fract_x
 _atom_site_fract_y
 _atom_site_fract_z
 _atom_site_occupancy
  V  V0  1  0.37068681  0.86236140  0.48679005  1
  V  V1  1  0.88393061  0.13286692  0.24351622  1
  V  V2  1  -0.00085076  0.87571895  0.37217203  1
  V  V3  1  0.61770135  0.25615091  0.36962185  1
  V  V4  1  -0.00045200  0.50428995  -0.00335138  1
  V  V5  1  0.37509408  0.13187219  0.25154984  1
  V  V6  1  0.01467525  -0.00074826  0.00670680  1
  V  V7  1  0.75930271  0.49149810  0.23582529  1
  V  V8  1  0.38066339  0.02998403  0.88935592  1
  V  V9  1  0.38322781  0.60650421  0.25394742  1
  V  V10  1  0.87209924  0.26638613  0.12477212  1
  V  V11  1  0.13184570  0.88251444  0.24570000  1
  V  V12  1  0.24994178  0.38332802  0.11995070  1
  V  V13  1  0.51234571  0.62224235  0.13312090  1
  V  V14  1  0.14113863  0.88443189  0.74880149  1
  V  V15  1  0.73863075  0.26382279  0.49786556  1
  V  V16  1  0.73852449  0.11344078  0.37701950  1
  V  V17  1  0.68703855  0.86839397  0.65773356  1
  V  V18  1  0.86612426  0.77368756  0.12790434  1
  V  V19  1  0.61554048  0.26548356  0.86824768  1
  V  V20  1  0.63606486  0.73708196  0.37915780  1
  V  V21  1  0.88465545  0.02188868  0.87099258  1
  V  V22  1  0.00169345  0.00419531  0.50405502  1
  V  V23  1  0.35864959  0.72607264  0.61239059  1
  V  V24  1  0.24574334  0.01196196  0.25080547  1
  V  V25  1  0.69696991  0.50304658  0.74925369  1
  V  V26  1  0.59827076  0.45812617  0.61769138  1
  V  V27  1  0.48239718  0.38432291  0.38004614  1
  V  V28  1  0.75744126  0.00453439  0.22915267  1
  V  V29  1  0.38256292  0.23518195  0.61658013  1
  V  V30  1  0.86088056  0.21006804  0.61060301  1
  V  V31  1  0.26653079  0.87177303  0.12217210  1
  V  V32  1  0.24032070  0.22287939  0.49764542  1
  V  V33  1  0.25987585  0.88478873  0.62567698  1
  V  V34  1  0.00755649  0.75638733  0.24538128  1
  V  V35  1  0.13164157  0.75114398  0.38442065  1
  V  V36  1  0.24910686  0.62565177  0.38362062  1
  V  V37  1  -0.02237527  0.86555990  0.84388599  1
  V  V38  1  0.50321246  0.61635321  0.59167782  1
  V  V39  1  0.49999381  0.25157913  0.24668164  1
  V  V40  1  -0.00003647  0.49475208  0.50227637  1
  V  V41  1  0.36924827  0.25639546  0.11635813  1
  V  V42  1  0.87387343  -0.00303999  0.37062297  1
  V  V43  1  0.48107217  0.48128292  0.01533677  1
  V  V44  1  0.72913465  0.74695391  -0.01651633  1
  V  V45  1  0.11533231  0.37557920  0.26173569  1
  V  V46  1  0.63534528  0.88243992  0.25560143  1
  V  V47  1  0.49534191  0.71480623  0.75880428  1
  V  V48  1  0.87207257  0.62933005  0.26061700  1
  V  V49  1  0.01050833  0.62697175  0.12848459  1
  V  V50  1  0.19340496  0.50669562  0.74759851  1
  V  V51  1  0.63912298  0.13199276  -0.00095947  1
  V  V52  1  0.49742686  -0.00014501  0.52352041  1
  V  V53  1  0.76873641  0.26764570  -0.01978644  1
  V  V54  1  0.16822310  0.75617983  0.87641311  1
  V  V55  1  0.24022307  0.50048687  0.25224379  1
  V  V56  1  0.36317441  0.58177964  0.74683663  1
  V  V57  1  0.49441084  0.77141428  0.25416017  1
  V  V58  1  0.01812441  0.13819387  0.11730491  1
  V  V59  1  0.38086711  0.00590497  0.37498651  1
  V  V60  1  0.10749438  0.23947048  0.37968026  1
  V  V61  1  0.86678509  0.85913128  0.51184227  1
  V  V62  1  0.14827001  0.63669959  0.00672127  1
  V  V63  1  0.60583746  0.00948602  0.12165276  1
  Zn  Zn64  1  0.18977874  0.20098582  0.19743356  1
  Zn  Zn65  1  0.29239551  0.14267244  0.74222941  1
  Zn  Zn66  1  0.19580509  0.69350002  0.19087740  1
  Zn  Zn67  1  0.19529885  0.67991484  0.69949911  1
  Zn  Zn68  1  0.69288186  0.18673099  0.18320523  1
  Zn  Zn69  1  0.67539671  0.19276546  0.68644908  1
  Zn  Zn70  1  0.71468260  0.65327253  0.15104989  1
  Zn  Zn71  1  0.67778686  0.68207113  0.66771640  1
  Zn  Zn72  1  0.30832640  0.31400405  0.32381395  1
  Zn  Zn73  1  0.26798243  0.33814059  0.67168459  1
  Zn  Zn74  1  0.31071936  0.81545836  0.30915992  1
  Zn  Zn75  1  0.33526418  0.79734869  0.78778333  1
  Zn  Zn76  1  0.79454374  0.30386519  0.29888221  1
  Zn  Zn77  1  0.77476590  0.31314787  0.77202008  1
  Zn  Zn78  1  0.81176748  0.81320582  0.30757785  1
  Zn  Zn79  1  0.78719709  0.79361363  0.79821876  1
  Zn  Zn80  1  0.18818053  0.43635527  0.43276866  1
  Zn  Zn81  1  0.19358840  0.46664315  0.94587620  1
  Zn  Zn82  1  0.19490800  0.94726480  0.43511136  1
  Zn  Zn83  1  0.18278053  0.93948536  0.94195725  1
  Zn  Zn84  1  0.67097786  0.57995977  0.49411216  1
  Zn  Zn85  1  0.71397655  0.42356735  0.90774641  1
  Zn  Zn86  1  0.66505476  0.90215274  0.45883490  1
  Zn  Zn87  1  0.70033371  0.93723810  0.93853198  1
  Zn  Zn88  1  0.30038597  0.07615062  0.07408613  1
  Zn  Zn89  1  0.31934234  0.06326303  0.56004111  1
  Zn  Zn90  1  0.32643918  0.56915114  0.07533036  1
  Zn  Zn91  1  0.27869254  0.55653000  0.58274921  1
  Zn  Zn92  1  0.82562481  0.07559102  0.04905862  1
  Zn  Zn93  1  0.79219894  0.02913148  0.56094146  1
  Zn  Zn94  1  0.82894652  0.57774775  0.06411035  1
  Zn  Zn95  1  0.79402931  0.45261558  0.56498013  1
  Zn  Zn96  1  0.43716070  0.43178352  0.19150670  1
  Zn  Zn97  1  0.42457746  0.42830637  0.56088962  1
  Zn  Zn98  1  0.43397335  0.94452509  0.18741994  1
  Zn  Zn99  1  0.47300357  0.89039273  0.67857491  1
  Zn  Zn100  1  0.93809591  0.44774368  0.18626724  1
  Zn  Zn101  1  0.95845144  0.40351502  0.68005121  1
  Zn  Zn102  1  0.94993048  0.94981714  0.18188927  1
  Zn  Zn103  1  0.93088587  0.94068520  0.68627634  1
  Zn  Zn104  1  0.06124214  0.06656239  0.31358521  1
  Zn  Zn105  1  0.17515409  0.11963312  0.91623763  1
  Zn  Zn106  1  0.06775737  0.57030338  0.31424874  1
  Zn  Zn107  1  0.05281987  0.59696829  0.83400206  1
  Zn  Zn108  1  0.56120115  0.06082109  0.30698036  1
  Zn  Zn109  1  0.59515753  0.04507932  0.83888644  1
  Zn  Zn110  1  0.57837804  0.55907438  0.32496295  1
  Zn  Zn111  1  0.51368476  0.51974038  0.81936224  1
  Zn  Zn112  1  0.43516877  0.17901498  0.43889689  1
  Zn  Zn113  1  0.45182204  0.19985902  0.94407161  1
  Zn  Zn114  1  0.43622786  0.68710369  0.42155309  1
  Zn  Zn115  1  0.56637048  0.64729188  0.93965397  1
  Zn  Zn116  1  0.92801219  0.18366303  0.43662507  1
  Zn  Zn117  1  0.94322495  0.19241584  0.94179372  1
  Zn  Zn118  1  0.93877536  0.68715785  0.44037843  1
  Zn  Zn119  1  0.96152319  0.72751810  0.97127943  1
  Zn  Zn120  1  0.06355508  0.32451444  0.07965599  1
  Zn  Zn121  1  0.04837175  0.29006487  0.55948903  1
  Zn  Zn122  1  0.08927266  0.81369269  0.06726038  1
  Zn  Zn123  1  0.08509371  0.85465513  0.54642709  1
  Zn  Zn124  1  0.55351228  0.28561935  0.04694358  1
  Zn  Zn125  1  0.54842424  0.28945208  0.54805538  1
  Zn  Zn126  1  0.58808336  0.80517039  0.08023431  1
  Zn  Zn127  1  0.54577498  0.80343277  0.55418028  1
  O  O128  1  0.11445370  0.14539817  0.13692611  1
  O  O129  1  0.16111013  0.14022437  0.65814363  1
  O  O130  1  0.11984762  0.64606535  0.11739185  1
  O  O131  1  0.05902345  0.69106343  0.63563953  1
  O  O132  1  0.63395985  0.11460589  0.12153978  1
  O  O133  1  0.59267676  0.11035809  0.67236242  1
  O  O134  1  0.60920096  0.61513350  0.15103063  1
  O  O135  1  0.60798474  0.62174502  0.59530820  1
  O  O136  1  0.38325885  0.38072193  0.37302897  1
  O  O137  1  0.39438165  0.36309798  0.80839314  1
  O  O138  1  0.36804506  0.88119459  0.38402457  1
  O  O139  1  0.41262999  0.93314029  0.88508792  1
  O  O140  1  0.84302767  0.38448630  0.38029617  1
  O  O141  1  0.94563093  0.31489545  0.82817025  1
  O  O142  1  0.88692486  0.88212824  0.36249708  1
  O  O143  1  0.88248430  0.84405057  0.83407665  1
  O  O144  1  0.26467511  -0.00586144  0.35940447  1
  O  O145  1  0.28158771  0.00134423  0.89856165  1
  O  O146  1  0.24024003  0.51777757  0.36309976  1
  O  O147  1  0.21880303  0.46936563  0.84154857  1
  O  O148  1  0.76064849  0.00828329  0.35441775  1
  O  O149  1  0.79066651  0.00085238  0.90444377  1
  O  O150  1  0.80709347  0.44942325  0.37917938  1
  O  O151  1  0.67779277  0.52978153  0.86572427  1
  O  O152  1  0.25909418  0.49238871  0.14370031  1
  O  O153  1  0.19350130  0.57949955  0.65056070  1
  O  O154  1  0.25750626  0.99886409  0.14729833  1
  O  O155  1  0.26973550  0.98159349  0.62880738  1
  O  O156  1  0.75281180  0.52680562  0.14036768  1
  O  O157  1  0.70451782  0.46269223  0.65126927  1
  O  O158  1  0.76836604  1.00973152  0.13056155  1
  O  O159  1  0.72554024  0.95461131  0.61506618  1
  O  O160  1  0.01843397  0.38976407  0.24648713  1
  O  O161  1  -0.03160789  0.38458619  0.79750265  1
  O  O162  1  0.01233988  0.87572737  0.25562892  1
  O  O163  1  0.02455611  0.87363176  0.74857067  1
  O  O164  1  0.49213619  0.35664638  0.26379564  1
  O  O165  1  0.45942127  0.38115689  0.78222288  1
  O  O166  1  0.50618123  0.87325459  0.24626576  1
  O  O167  1  0.44918462  0.81730071  0.76287318  1
  O  O168  1  0.48586462  0.13825062  0.25616435  1
  O  O169  1  0.55402553  0.08971206  0.73577126  1
  O  O170  1  0.48882886  0.60968131  0.25676076  1
  O  O171  1  0.47722684  0.61426962  0.71558779  1
  O  O172  1  0.98783975  0.12017868  0.24033582  1
  O  O173  1  1.11137962  0.09334444  0.63988142  1
  O  O174  1  1.00650656  0.63867004  0.24342048  1
  O  O175  1  0.98151763  0.67645644  0.77776093  1
  O  O176  1  0.38351505  0.25402586  0.01939623  1
  O  O177  1  0.35626818  0.22641100  0.50921287  1
  O  O178  1  0.44096368  0.81416561  -0.01475491  1
  O  O179  1  0.37533635  0.75796761  0.49324553  1
  O  O180  1  0.87178791  0.24981351  0.01555621  1
  O  O181  1  0.84340136  0.23504030  0.49717820  1
  O  O182  1  0.87149759  0.76043676  0.02569440  1
  O  O183  1  0.88081281  0.76065175  0.49799177  1
  O  O184  1  0.12366448  0.24694570  0.48616422  1
  O  O185  1  0.12841076  0.25217741  1.00879059  1
  O  O186  1  0.12106763  0.76341399  0.48121144  1
  O  O187  1  0.14182539  0.74956480  0.99160210  1
  O  O188  1  0.62831976  0.24294703  0.47767092  1
  O  O189  1  0.65281341  0.25511703  0.97700882  1
  O  O190  1  0.61745139  0.78696786  0.46683546  1
  O  O191  1  0.62259657  0.73833839  0.99316464  1
  O  O192  1  0.48241168  0.26089834  0.14436405  1
  O  O193  1  0.48166061  0.22237063  0.61443577  1
  O  O194  1  0.51842816  0.73859394  0.15622564  1
  O  O195  1  0.48112952  0.72577966  0.61130938  1
  O  O196  1  0.98897523  0.24371000  0.12204957  1
  O  O197  1  0.95904197  0.22445288  0.59298116  1
  O  O198  1  1.00678927  0.75523107  0.13660461  1
  O  O199  1  1.01569153  0.74734149  0.61686440  1
  O  O200  1  0.00720803  0.24958096  0.38353898  1
  O  O201  1  -0.00604083  0.28500529  0.88367590  1
  O  O202  1  0.01168497  0.75761066  0.36587831  1
  O  O203  1  0.01843533  0.78629727  0.89587677  1
  O  O204  1  0.50570832  0.24842230  0.37121422  1
  O  O205  1  0.51819099  0.24555916  0.86211222  1
  O  O206  1  0.51691067  0.73836735  0.35446565  1
  O  O207  1  0.49540960  0.68609657  0.85493791  1
  O  O208  1  0.23584062  0.12277293  0.50612155  1
  O  O209  1  0.24591397  0.13384425  0.99871849  1
  O  O210  1  0.25023909  0.61919823  0.47947237  1
  O  O211  1  0.24544105  0.62322890  1.01590328  1
  O  O212  1  0.74689115  0.10130867  0.47447457  1
  O  O213  1  0.74618424  0.15069746  1.01023573  1
  O  O214  1  0.77418625  0.55436169  0.52324951  1
  O  O215  1  0.75189829  0.65588642  1.03795053  1
  O  O216  1  0.24157677  0.39621554  0.02289575  1
  O  O217  1  0.26650128  0.41544246  0.51198220  1
  O  O218  1  0.23942588  0.89279946  0.02685652  1
  O  O219  1  0.26277830  0.88188436  0.51056126  1
  O  O220  1  0.75853768  0.36803828  -0.00660991  1
  O  O221  1  0.74284060  0.35996568  0.50658532  1
  O  O222  1  0.73323169  0.84667047  0.00046383  1
  O  O223  1  0.77272265  0.88030296  0.48082554  1
  O  O224  1  0.13530707  0.49692315  0.25370384  1
  O  O225  1  0.09488964  0.52664165  0.75845082  1
  O  O226  1  0.14006819  0.99693426  0.26266745  1
  O  O227  1  0.14026948  0.97873979  0.75020611  1
  O  O228  1  0.67624642  0.51708500  0.28673133  1
  O  O229  1  0.59242625  0.49325908  0.73991354  1
  O  O230  1  0.63514854  1.00415570  0.23183611  1
  O  O231  1  0.71457532  1.03404099  0.76344884  1
  O  O232  1  0.36840185  0.01223417  0.25706263  1
  O  O233  1  0.36699262  0.04399247  0.78757932  1
  O  O234  1  0.36676443  0.50562379  0.25548016  1
  O  O235  1  0.34775905  0.50759411  0.68536935  1
  O  O236  1  0.87440789  0.01092160  0.25224324  1
  O  O237  1  0.88959616  -0.00359625  0.77301512  1
  O  O238  1  0.87021867  0.51943276  0.24636983  1
  O  O239  1  0.90601230  0.52020274  0.72733107  1
  O  O240  1  0.12585686  0.37345545  0.36571013  1
  O  O241  1  0.14635766  0.28595645  0.93796800  1
  O  O242  1  0.12015304  0.86704295  0.36440235  1
  O  O243  1  0.15012424  0.86673896  0.86147209  1
  O  O244  1  0.61586056  0.35282365  0.36184453  1
  O  O245  1  0.61845735  0.36475707  0.87699256  1
  O  O246  1  0.62197484  0.90588664  0.35036933  1
  O  O247  1  0.61781337  0.94248600  0.86597887  1
  O  O248  1  0.36554733  0.14698427  0.13974598  1
  O  O249  1  0.34797595  0.13179687  0.64124607  1
  O  O250  1  0.38725713  0.62866380  0.15081653  1
  O  O251  1  0.37382063  0.62749554  0.58904593  1
  O  O252  1  0.88492130  0.13593310  0.13592054  1
  O  O253  1  0.84711915  0.11016587  0.61676150  1
  O  O254  1  0.89880537  0.64782345  0.14066662  1
  O  O255  1  0.87685953  0.56745410  0.67931532  1
  O  O256  1  0.26145956  0.26801475  0.13259067  1
  O  O257  1  0.23091049  0.26924177  0.58563974  1
  O  O258  1  0.25577949  0.77156735  0.13566242  1
  O  O259  1  0.25822244  0.73992050  0.61482168  1
  O  O260  1  0.76877311  0.25618872  0.12837098  1
  O  O261  1  0.73055011  0.22563776  0.59454400  1
  O  O262  1  0.76862704  0.76183612  0.14859583  1
  O  O263  1  0.72038246  0.77880539  0.62179388  1
  O  O264  1  0.24046428  0.25880615  0.39679342  1
  O  O265  1  0.15144181  0.23529396  0.88118580  1
  O  O266  1  0.23874063  0.74284087  0.36627312  1
  O  O267  1  0.26739939  0.75714350  0.87498391  1
  O  O268  1  0.73604944  0.23640924  0.37551837  1
  O  O269  1  0.78629486  0.26355513  0.88327163  1
  O  O270  1  0.73373320  0.75428865  0.36746197  1
  O  O271  1  0.75674647  0.73238674  0.88955860  1
  O  O272  1  0.01293816  0.13395022  0.01461662  1
  O  O273  1  -0.00324641  0.10140579  0.48170610  1
  O  O274  1  0.00871182  0.63491267  0.01980990  1
  O  O275  1  -0.01104958  0.59984974  0.50198698  1
  O  O276  1  0.53896528  0.17161918  0.01560540  1
  O  O277  1  0.49024481  0.09845490  0.49845163  1
  O  O278  1  0.50007813  0.63962582  0.03673052  1
  O  O279  1  0.49290592  0.61870629  0.49333289  1
  O  O280  1  0.49089247  0.36742930  0.48355105  1
  O  O281  1  0.50131933  0.38296946  1.01408308  1
  O  O282  1  0.47156571  0.88414812  0.50382888  1
  O  O283  1  0.49700774  0.85635517  1.00196641  1
  O  O284  1  1.00560703  0.39065843  0.49806080  1
  O  O285  1  1.02740256  0.40792420  1.01162217  1
  O  O286  1  0.98433041  0.87782915  0.48376021  1
  O  O287  1  1.02815567  0.90196924  1.02556408  1
  O  O288  1  0.50701670  0.47999343  0.36606560  1
  O  O289  1  0.53189185  0.52611407  0.93400924  1
  O  O290  1  0.48082768  0.99732519  0.36263001  1
  O  O291  1  0.48178407  1.05474842  0.88007960  1
  O  O292  1  1.01088623  0.51096127  0.39648025  1
  O  O293  1  0.99363127  0.52424461  0.89933438  1
  O  O294  1  0.99171183  0.99017081  0.36992957  1
  O  O295  1  0.98175236  0.95897069  0.88941265  1
  O  O296  1  0.01036398  0.02297852  0.11482108  1
  O  O297  1  -0.01144283  -0.00625387  0.60200180  1
  O  O298  1  0.00988470  0.52653694  0.13264133  1
  O  O299  1  -0.00138831  0.49952593  0.60372946  1
  O  O300  1  0.50749844  0.01339431  0.12882014  1
  O  O301  1  0.47152095  -0.01113501  0.62140151  1
  O  O302  1  0.49651342  0.50681581  0.12049175  1
  O  O303  1  0.49506111  0.50562136  0.60893828  1
  O  O304  1  0.24579191  0.39254190  0.25757164  1
  O  O305  1  0.20283616  0.42326055  0.69282957  1
  O  O306  1  0.24813789  0.88801257  0.24510943  1
  O  O307  1  0.25557798  0.86347578  0.73348253  1
  O  O308  1  0.76213707  0.39117179  0.23687695  1
  O  O309  1  0.75770846  0.42539002  0.79599278  1
  O  O310  1  0.74141098  0.89055655  0.25035950  1
  O  O311  1  0.71269309  0.86401877  0.75467307  1
  O  O312  1  0.25576547  0.11719545  0.24944887  1
  O  O313  1  0.21242327  0.10804358  0.80930641  1
  O  O314  1  0.25837823  0.61382609  0.24927567  1
  O  O315  1  0.26194544  0.60154394  0.77470313  1
  O  O316  1  0.76341158  0.12033872  0.25184528  1
  O  O317  1  0.74601279  0.09806368  0.74399450  1
  O  O318  1  0.77323002  0.63831566  0.25193256  1
  O  O319  1  0.72709283  0.59673446  0.72863388  1
  O  O320  1  0.37138636  0.11200953  0.36741950  1
  O  O321  1  0.36418362  0.13584957  0.89958338  1
  O  O322  1  0.35821632  0.63325988  0.35895258  1
  O  O323  1  0.40063004  0.53809372  0.82884530  1
  O  O324  1  0.86736916  0.11733459  0.35934825  1
  O  O325  1  0.90082535  0.12150514  0.86904038  1
  O  O326  1  0.88699008  0.63489535  0.35804139  1
  O  O327  1  0.90333268  0.67544080  0.79515681  1
  O  O328  1  0.14533691  0.37037958  0.14886811  1
  O  O329  1  0.05348105  0.35456675  0.64740911  1
  O  O330  1  0.13704223  0.88024133  0.14486336  1
  O  O331  1  0.14939568  0.86673709  0.63663570  1
  O  O332  1  0.62719469  0.34875417  0.12765004  1
  O  O333  1  0.57997199  0.36127662  0.62849910  1
  O  O334  1  0.62043096  0.89786062  0.13642210  1
  O  O335  1  0.58301475  0.86539053  0.64270347  1
  O  O336  1  0.13050759  0.26782733  0.26899589  1
  O  O337  1  0.07526264  0.23097613  0.73836741  1
  O  O338  1  0.12106890  0.76226652  0.25728338  1
  O  O339  1  0.14521383  0.74854303  0.77454202  1
  O  O340  1  0.60776110  0.23800263  0.25489317  1
  O  O341  1  0.66707161  0.25521265  0.77565201  1
  O  O342  1  0.62452891  0.77636419  0.26732061  1
  O  O343  1  0.59119456  0.72460569  0.73633091  1
  O  O344  1  0.37879798  0.24360607  0.25886230  1
  O  O345  1  0.32894571  0.24772824  0.71894621  1
  O  O346  1  0.39425834  0.75403965  0.25894347  1
  O  O347  1  0.36432982  0.70407707  0.72076991  1
  O  O348  1  0.87219344  0.23840095  0.24363662  1
  O  O349  1  0.83842363  0.25485587  0.69969832  1
  O  O350  1  0.89221545  0.74927448  0.24716561  1
  O  O351  1  0.86015955  0.71220070  0.74074620  1
  O  O352  1  0.32316301  0.47393381  0.51366913  1
  O  O353  1  0.38297498  0.49884727  1.00675253  1
  O  O354  1  0.37643974  0.99414253  0.48377016  1
  O  O355  1  0.38308058  1.02724247  0.99404720  1
  O  O356  1  0.89954694  0.47987121  0.49020771  1
  O  O357  1  0.90116376  0.50626784  1.02521933  1
  O  O358  1  0.88259110  0.98922008  0.48123076  1
  O  O359  1  0.91026052  1.02085758  0.99355081  1
  O  O360  1  0.10887579  0.02737754  -0.04196998  1
  O  O361  1  0.10248712  -0.03082956  0.49490047  1
  O  O362  1  0.11818387  0.53396914  0.00012985  1
  O  O363  1  0.10629451  0.49158061  0.49894978  1
  O  O364  1  0.63410946  0.02066917  0.01476474  1
  O  O365  1  0.59451489  -0.02340444  0.50562620  1
  O  O366  1  0.64933577  0.41333987  0.09947275  1
  O  O367  1  0.62133814  0.47533625  0.52214436  1
  O  O368  1  0.36140613  0.36695518  0.13545457  1
  O  O369  1  0.37589506  0.34232744  0.61713902  1
  O  O370  1  0.36650926  0.88432341  0.12669394  1
  O  O371  1  0.36517931  0.84687345  0.61446127  1
  O  O372  1  0.88897818  0.36285253  0.13344392  1
  O  O373  1  0.86704046  0.38917721  0.62130407  1
  O  O374  1  0.88543714  0.87066220  0.13968678  1
  O  O375  1  0.87654534  0.87542596  0.60968237  1
  O  O376  1  0.12298327  0.14184322  0.36416145  1
  O  O377  1  0.02432114  0.18246404  0.75374749  1
  O  O378  1  0.13513351  0.64291685  0.37017159  1
  O  O379  1  0.13326434  0.65063219  0.89558227  1
  O  O380  1  0.63723726  0.12255976  0.36183474  1
  O  O381  1  0.63469233  0.13364225  0.89491592  1
  O  O382  1  0.63023185  0.63441788  0.39976096  1
  O  O383  1  0.66982492  0.60466373  0.88937129  1
