# generated using pymatgen
data_VZnO4
_symmetry_space_group_name_H-M   'P 1'
_cell_length_a   16.87649290
_cell_length_b   16.89663699
_cell_length_c   16.92690196
_cell_angle_alpha   89.74808601
_cell_angle_beta   90.05554555
_cell_angle_gamma   89.98724469
_symmetry_Int_Tables_number   1
_chemical_formula_structural   VZnO4
_chemical_formula_sum   'V64 Zn64 O256'
_cell_volume   4826.75817456
_cell_formula_units_Z   64
loop_
 _symmetry_equiv_pos_site_id
 _symmetry_equiv_pos_as_xyz
  1  'x, y, z'
loop_
 _atom_site_type_symbol
 _atom_site_label
 _atom_site_symmetry_multiplicity
 _atom_site_fract_x
 _atom_site_fract_y
 _atom_site_fract_z
 _atom_site_occupancy
  V  V0  1  0.87098044  -0.00945187  0.87100167  1
  V  V1  1  0.23772231  0.49403304  0.75514544  1
  V  V2  1  0.74483085  0.50522537  0.24491047  1
  V  V3  1  0.86978374  0.15185485  0.23988517  1
  V  V4  1  -0.00138044  0.35832470  0.35470936  1
  V  V5  1  0.50590100  0.23913777  0.24258972  1
  V  V6  1  0.00045763  0.63073735  0.62652731  1
  V  V7  1  0.36075293  0.00519216  0.36240082  1
  V  V8  1  0.38084849  0.11755760  0.75932831  1
  V  V9  1  0.77592648  0.37724444  0.63877663  1
  V  V10  1  0.87156448  0.51110281  0.37474612  1
  V  V11  1  0.60618812  -0.00656142  0.60280797  1
  V  V12  1  0.74470765  0.63618415  0.37955144  1
  V  V13  1  0.49232736  0.74655921  0.73113783  1
  V  V14  1  0.24336102  0.24909443  -0.00478112  1
  V  V15  1  0.01336191  0.49556037  0.49978072  1
  V  V16  1  0.61912718  0.73714770  0.88517866  1
  V  V17  1  0.61852208  0.38552878  0.23497938  1
  V  V18  1  0.37830165  0.61748709  0.73644803  1
  V  V19  1  0.25583370  0.62586033  0.89006345  1
  V  V20  1  -0.01687177  0.75757394  0.24622553  1
  V  V21  1  0.38765644  0.48535290  0.88041704  1
  V  V22  1  0.01008151  0.48791303  0.00403510  1
  V  V23  1  -0.02187844  0.87234828  0.39293594  1
  V  V24  1  0.26210643  0.48695948  0.24402872  1
  V  V25  1  -0.00182377  0.24376933  0.76609196  1
  V  V26  1  0.13685178  0.64231835  0.50044957  1
  V  V27  1  0.37345960  0.48923959  0.39929588  1
  V  V28  1  0.61825531  0.87338318  0.75364914  1
  V  V29  1  0.74588722  0.12883694  0.88714763  1
  V  V30  1  0.38338465  0.22992697  0.12363733  1
  V  V31  1  0.63656483  0.19188747  0.47384148  1
  V  V32  1  0.49874595  0.88272072  0.39283705  1
  V  V33  1  0.80396649  0.52026185  0.74527328  1
  V  V34  1  0.37879817  0.24634029  0.61841263  1
  V  V35  1  0.87723544  0.86630488  0.00544721  1
  V  V36  1  0.23616986  0.23578784  0.49104329  1
  V  V37  1  0.75319037  0.75114705  0.51721702  1
  V  V38  1  0.61628755  0.88309006  0.24945626  1
  V  V39  1  0.39042968  0.36904748  0.00358398  1
  V  V40  1  0.23930676  0.37085420  0.61812148  1
  V  V41  1  0.11879773  0.75428255  0.87760960  1
  V  V42  1  0.12672370  0.48931906  0.14075140  1
  V  V43  1  0.75373735  0.00706900  0.24706647  1
  V  V44  1  0.49499307  0.37245848  0.37812119  1
  V  V45  1  0.50743406  0.24971716  0.76188988  1
  V  V46  1  0.01394421  0.13330149  0.61401337  1
  V  V47  1  0.76386941  0.62628306  0.87916258  1
  V  V48  1  0.50515814  0.73254071  0.25955518  1
  V  V49  1  0.38354127  0.87652577  0.00954707  1
  V  V50  1  0.23853385  -0.01017526  0.75300699  1
  V  V51  1  0.75800654  0.88311706  0.62526651  1
  V  V52  1  0.00673414  -0.00013480  -0.00045112  1
  V  V53  1  0.59761994  0.41599141  0.71872864  1
  V  V54  1  0.87690821  0.36226717  0.50241951  1
  V  V55  1  0.25600871  0.62719996  0.37327014  1
  V  V56  1  0.62327100  0.59699906  0.51451609  1
  V  V57  1  0.12847456  -0.00549641  0.59902703  1
  V  V58  1  0.12618436  -0.00387027  0.15066730  1
  V  V59  1  0.23406271  0.12399940  0.87696564  1
  V  V60  1  -0.00715620  0.14178549  0.12244408  1
  V  V61  1  0.87005151  0.12452542  0.74357792  1
  V  V62  1  0.74839281  0.86523488  0.12120353  1
  V  V63  1  0.12453131  0.35860914  0.77104333  1
  Zn  Zn64  1  0.20019846  0.15702735  0.15788368  1
  Zn  Zn65  1  0.19016571  0.18411051  0.68862336  1
  Zn  Zn66  1  0.14993738  0.66108474  0.21357281  1
  Zn  Zn67  1  0.14909357  0.65953207  0.70728131  1
  Zn  Zn68  1  0.69639137  0.20303551  0.29977495  1
  Zn  Zn69  1  0.68593320  0.18490946  0.65197328  1
  Zn  Zn70  1  0.68863105  0.69388076  0.20050992  1
  Zn  Zn71  1  0.68551953  0.68056766  0.68806696  1
  Zn  Zn72  1  0.31606236  0.30467031  0.30691581  1
  Zn  Zn73  1  0.31584401  0.30480797  0.81288260  1
  Zn  Zn74  1  0.34927001  0.79811996  0.31603345  1
  Zn  Zn75  1  0.27215719  0.78182109  0.77367097  1
  Zn  Zn76  1  0.80867440  0.32668033  0.31715732  1
  Zn  Zn77  1  0.74682709  0.29695899  0.78179715  1
  Zn  Zn78  1  0.81561378  0.81734202  0.31084421  1
  Zn  Zn79  1  0.79827598  0.81407383  0.81635262  1
  Zn  Zn80  1  0.18596797  0.42030877  0.41843863  1
  Zn  Zn81  1  0.19681787  0.43704062  0.94840689  1
  Zn  Zn82  1  0.14656111  0.98982709  0.37429033  1
  Zn  Zn83  1  0.19087276  0.93726640  0.93446192  1
  Zn  Zn84  1  0.68368957  0.37558766  0.44281778  1
  Zn  Zn85  1  0.68648672  0.43197168  0.88159039  1
  Zn  Zn86  1  0.68562581  0.93134641  0.43331901  1
  Zn  Zn87  1  0.68849145  0.93397227  0.92912761  1
  Zn  Zn88  1  0.30967042  0.06139355  0.06122946  1
  Zn  Zn89  1  0.30429077  0.06819119  0.56941674  1
  Zn  Zn90  1  0.14557845  0.62887454  0.01520990  1
  Zn  Zn91  1  0.30175273  0.55057120  0.56410167  1
  Zn  Zn92  1  0.80887782  0.05454933  0.06504385  1
  Zn  Zn93  1  0.79476995  0.07460900  0.55563915  1
  Zn  Zn94  1  0.75432371  0.50487579  0.03686764  1
  Zn  Zn95  1  0.82155386  0.56283331  0.55769775  1
  Zn  Zn96  1  0.43567189  0.43869494  0.17859322  1
  Zn  Zn97  1  0.42418068  0.42540308  0.69150940  1
  Zn  Zn98  1  0.43180286  0.94653202  0.19134710  1
  Zn  Zn99  1  0.43605824  0.93947931  0.69048988  1
  Zn  Zn100  1  0.93045205  0.44848788  0.18135409  1
  Zn  Zn101  1  0.95589087  0.43626754  0.68773403  1
  Zn  Zn102  1  0.94059096  0.93652416  0.18989244  1
  Zn  Zn103  1  0.92537866  0.97197048  0.65719039  1
  Zn  Zn104  1  -0.14307010  0.01080112  0.38392811  1
  Zn  Zn105  1  0.05888384  0.05566123  0.81419479  1
  Zn  Zn106  1  0.06161276  0.56734605  0.32137907  1
  Zn  Zn107  1  0.04944935  0.57643354  0.82967802  1
  Zn  Zn108  1  0.56985219  0.06095115  0.32874831  1
  Zn  Zn109  1  0.59501850  0.08976625  0.76466345  1
  Zn  Zn110  1  0.57000273  0.54722438  0.33585639  1
  Zn  Zn111  1  0.55576126  0.57417607  0.82255984  1
  Zn  Zn112  1  0.44386814  0.18729458  0.43939825  1
  Zn  Zn113  1  0.44293411  0.18043878  0.93517463  1
  Zn  Zn114  1  0.46431298  0.66312987  0.41135834  1
  Zn  Zn115  1  0.42693968  0.68774578  0.92859585  1
  Zn  Zn116  1  0.92289957  0.17017364  0.43746810  1
  Zn  Zn117  1  0.93054874  0.17947544  0.93731717  1
  Zn  Zn118  1  0.94084205  0.69209367  0.44403241  1
  Zn  Zn119  1  0.94423849  0.67803287  0.93474820  1
  Zn  Zn120  1  0.06338124  0.31799199  0.05319927  1
  Zn  Zn121  1  0.06185754  0.30985201  0.56671737  1
  Zn  Zn122  1  0.07327625  0.81576829  0.06263851  1
  Zn  Zn123  1  0.06578459  0.81536178  0.56267825  1
  Zn  Zn124  1  0.56978969  0.44078388  0.03538919  1
  Zn  Zn125  1  0.54778137  0.34381643  0.57233606  1
  Zn  Zn126  1  0.57212872  0.80201176  0.07460120  1
  Zn  Zn127  1  0.57319617  0.79803767  0.56017167  1
  O  O128  1  0.09541300  0.11550669  0.12998382  1
  O  O129  1  0.11873436  0.11835243  0.62837591  1
  O  O130  1  0.12431131  0.60312537  0.12163363  1
  O  O131  1  0.13124721  0.61641515  0.60257586  1
  O  O132  1  0.63976933  0.16037731  0.10010447  1
  O  O133  1  0.62672533  0.08294288  0.65316611  1
  O  O134  1  0.59493057  0.65485181  0.13702079  1
  O  O135  1  0.63484761  0.61029144  0.61497291  1
  O  O136  1  0.38034166  0.38700799  0.36291163  1
  O  O137  1  0.37828174  0.38019462  0.87359282  1
  O  O138  1  0.38688718  0.88977300  0.37249646  1
  O  O139  1  0.40626012  0.88743947  0.90932419  1
  O  O140  1  0.88028091  0.38716756  0.38825741  1
  O  O141  1  0.85459242  0.32528104  0.94131669  1
  O  O142  1  0.87515203  0.89332042  0.37925917  1
  O  O143  1  0.86368959  0.88391058  0.88260102  1
  O  O144  1  0.25961454  0.00040952  0.37234948  1
  O  O145  1  0.24850559  0.01254076  0.86666752  1
  O  O146  1  0.26307787  0.49613909  0.36986125  1
  O  O147  1  0.25946931  0.49975195  0.86589862  1
  O  O148  1  0.74298422  -0.00713701  0.35464416  1
  O  O149  1  0.76472331  0.00511736  0.87310324  1
  O  O150  1  0.76451659  0.50861103  0.37369064  1
  O  O151  1  0.76307085  0.51484030  0.84729148  1
  O  O152  1  0.23643879  0.49578487  0.14190211  1
  O  O153  1  0.25430968  0.48020608  0.64509411  1
  O  O154  1  0.22480459  1.03971210  0.13293828  1
  O  O155  1  0.23218256  1.01198057  0.64201181  1
  O  O156  1  0.74472007  0.52754018  0.14876832  1
  O  O157  1  0.77884588  0.49726818  0.64214121  1
  O  O158  1  0.74832102  0.98643742  0.13917810  1
  O  O159  1  0.74013290  0.98486715  0.61302592  1
  O  O160  1  -0.02590417  0.37379212  0.25654782  1
  O  O161  1  0.01446122  0.35917472  0.75135406  1
  O  O162  1  -0.00908971  0.86399517  0.26534738  1
  O  O163  1  -0.04269913  0.81829654  0.74147068  1
  O  O164  1  0.50597248  0.37707205  0.24793761  1
  O  O165  1  0.50441345  0.35639239  0.75839206  1
  O  O166  1  0.51071741  0.87892910  0.24510174  1
  O  O167  1  0.49953486  0.85523133  0.74518978  1
  O  O168  1  0.51847177  0.14201914  0.25649147  1
  O  O169  1  0.48437504  0.12526113  0.75088423  1
  O  O170  1  0.50726966  0.63576457  0.28994777  1
  O  O171  1  0.48419415  0.62811352  0.74564419  1
  O  O172  1  0.97732297  0.15026194  0.22923616  1
  O  O173  1  1.00072260  0.13261438  0.74861822  1
  O  O174  1  1.04557881  0.66778741  0.26452010  1
  O  O175  1  1.03569070  0.61570470  0.72580261  1
  O  O176  1  0.38227458  0.25211377  0.00461749  1
  O  O177  1  0.36742629  0.24161468  0.51560107  1
  O  O178  1  0.38288974  0.77110729  0.00338989  1
  O  O179  1  0.30747132  0.74998496  0.56366116  1
  O  O180  1  0.87368936  0.26812963  -0.00523236  1
  O  O181  1  0.87506041  0.26437864  0.49642911  1
  O  O182  1  0.88615613  0.76892121  -0.01220876  1
  O  O183  1  0.85325442  0.73906955  0.50158594  1
  O  O184  1  0.13706986  0.25503538  0.50053220  1
  O  O185  1  0.14498842  0.25128837  1.00404849  1
  O  O186  1  0.13530031  0.74135435  0.49948544  1
  O  O187  1  0.12091516  0.73880621  0.99039074  1
  O  O188  1  0.62876440  0.29204960  0.50754480  1
  O  O189  1  0.64469703  0.22158423  1.05538367  1
  O  O190  1  0.64557254  0.72961673  0.50539362  1
  O  O191  1  0.61558564  0.75084604  0.98365825  1
  O  O192  1  0.49076066  0.24780175  0.13592151  1
  O  O193  1  0.48013532  0.25979421  0.62903727  1
  O  O194  1  0.53379197  0.70831353  0.14136220  1
  O  O195  1  0.49498895  0.74637410  0.63213911  1
  O  O196  1  0.99521272  0.23856178  0.09706884  1
  O  O197  1  1.00825458  0.23768740  0.64223407  1
  O  O198  1  1.01411536  0.76818330  0.14881401  1
  O  O199  1  1.01431253  0.73020400  0.61770286  1
  O  O200  1  -0.01840635  0.26178270  0.37482567  1
  O  O201  1  -0.00068896  0.24045401  0.86572960  1
  O  O202  1  -0.01078381  0.76496161  0.36954566  1
  O  O203  1  0.02045189  0.73354093  0.86631075  1
  O  O204  1  0.48107282  0.26346158  0.35219468  1
  O  O205  1  0.51092958  0.23583487  0.86099339  1
  O  O206  1  0.48271329  0.76899562  0.36394965  1
  O  O207  1  0.51199203  0.73155104  0.86301008  1
  O  O208  1  0.24611400  0.13598144  0.49744660  1
  O  O209  1  0.25869039  0.13040369  0.98300098  1
  O  O210  1  0.24423947  0.61712105  0.49178456  1
  O  O211  1  0.26232362  0.61234155  0.98827110  1
  O  O212  1  0.71084280  0.15493154  0.53926366  1
  O  O213  1  0.75362895  0.11800881  0.98710651  1
  O  O214  1  0.74787989  0.62668705  0.49542429  1
  O  O215  1  0.76149147  0.60663301  0.97730235  1
  O  O216  1  0.26665268  0.35311790  -0.01164451  1
  O  O217  1  0.23878041  0.37809623  0.51755222  1
  O  O218  1  0.28001645  0.87796735  -0.00538529  1
  O  O219  1  0.35798547  0.90729727  0.53583392  1
  O  O220  1  0.79334117  0.36671418  -0.04068650  1
  O  O221  1  0.77259671  0.38597686  0.52184539  1
  O  O222  1  0.75470130  0.88039402  0.01257423  1
  O  O223  1  0.74080590  0.86109526  0.51202103  1
  O  O224  1  0.12105211  0.49985320  0.24421549  1
  O  O225  1  0.13618550  0.48770094  0.76196746  1
  O  O226  1  0.12389619  0.99214327  0.24948388  1
  O  O227  1  0.13599245  0.99199124  0.75748410  1
  O  O228  1  0.63263206  0.49664307  0.25624454  1
  O  O229  1  0.61529810  0.50875792  0.74971582  1
  O  O230  1  0.63117442  0.98977082  0.25213199  1
  O  O231  1  0.60162434  0.97045282  0.76315358  1
  O  O232  1  0.37392747  0.01003012  0.26140401  1
  O  O233  1  0.36435491  0.01425531  0.74142947  1
  O  O234  1  0.36277877  0.50128339  0.24006997  1
  O  O235  1  0.36972670  0.50120989  0.75995506  1
  O  O236  1  0.85959836  -0.00099560  0.25021776  1
  O  O237  1  0.88928989  0.00633044  0.76481797  1
  O  O238  1  0.85960268  0.49701992  0.26207147  1
  O  O239  1  0.90467963  0.51766337  0.75368538  1
  O  O240  1  0.09903117  0.37228733  0.36519428  1
  O  O241  1  0.13167645  0.37311087  0.86850363  1
  O  O242  1  0.18777148  0.85682869  0.37571151  1
  O  O243  1  0.13265199  0.85401298  0.88644686  1
  O  O244  1  0.59988075  0.38654075  0.36102532  1
  O  O245  1  0.65147023  0.36387532  0.80145488  1
  O  O246  1  0.60894249  0.87632322  0.36300044  1
  O  O247  1  0.63365055  0.85366839  0.86007922  1
  O  O248  1  0.38647517  0.13083973  0.11339873  1
  O  O249  1  0.36167333  0.14092174  0.64169468  1
  O  O250  1  0.45402124  0.57871756  0.07068054  1
  O  O251  1  0.36670680  0.60951077  0.63853781  1
  O  O252  1  0.87851121  0.11898043  0.13169501  1
  O  O253  1  0.89474079  0.10387298  0.64025524  1
  O  O254  1  0.88634642  0.64537555  0.10899447  1
  O  O255  1  0.90091748  0.62224928  0.61984092  1
  O  O256  1  0.26803430  0.23433492  0.10576542  1
  O  O257  1  0.25044489  0.25537156  0.61571002  1
  O  O258  1  0.21854438  0.76559312  0.18168255  1
  O  O259  1  0.25959345  0.76995478  0.61462589  1
  O  O260  1  0.70645761  0.26559364  0.05986918  1
  O  O261  1  0.75995597  0.27632756  0.66098249  1
  O  O262  1  0.74888559  0.76460067  0.13146952  1
  O  O263  1  0.74978291  0.75960362  0.62252684  1
  O  O264  1  0.25891330  0.26472931  0.39578141  1
  O  O265  1  0.25575532  0.23553221  0.88328877  1
  O  O266  1  0.27636542  0.72518385  0.36690419  1
  O  O267  1  0.26736072  0.72804204  0.87970099  1
  O  O268  1  0.72897156  0.27673195  0.38337061  1
  O  O269  1  0.75690098  0.22910714  0.86878886  1
  O  O270  1  0.75457841  0.73859603  0.37956441  1
  O  O271  1  0.73383131  0.73554636  0.86524667  1
  O  O272  1  -0.01853127  0.10697047  0.01150626  1
  O  O273  1  0.00678624  0.14644076  0.51663314  1
  O  O274  1  -0.05197253  0.64765819  0.06992064  1
  O  O275  1  0.01717260  0.61662774  0.50020326  1
  O  O276  1  0.52239732  0.10316366  -0.00996770  1
  O  O277  1  0.54365304  0.16379556  0.50048887  1
  O  O278  1  0.48838309  0.61031341  0.00955144  1
  O  O279  1  0.52295108  0.61845593  0.49416557  1
  O  O280  1  0.48873246  0.36139036  0.47543741  1
  O  O281  1  0.49017998  0.37064338  0.99207027  1
  O  O282  1  0.50732417  0.86426639  0.49000192  1
  O  O283  1  0.48729941  0.86897479  1.03073481  1
  O  O284  1  0.99411379  0.38252741  0.49549896  1
  O  O285  1  1.00927331  0.39162233  0.97846679  1
  O  O286  1  0.98660204  0.85759839  0.49325895  1
  O  O287  1  0.98625919  0.88797875  1.00881480  1
  O  O288  1  0.48015530  0.48850503  0.37509836  1
  O  O289  1  0.48746205  0.50150826  0.87840743  1
  O  O290  1  0.49729792  0.98664492  0.37779395  1
  O  O291  1  0.55064686  1.04135258  0.95121345  1
  O  O292  1  0.98800576  0.49859508  0.37799039  1
  O  O293  1  0.99516938  0.56417946  0.92831386  1
  O  O294  1  1.03840200  0.95484668  0.38131757  1
  O  O295  1  0.98577217  1.00437103  0.88939045  1
  O  O296  1  0.00786617  0.00116425  0.11844190  1
  O  O297  1  0.02035864  0.01549735  0.62054309  1
  O  O298  1  0.00931795  0.49759303  0.11273335  1
  O  O299  1  0.00543003  0.50376455  0.60349975  1
  O  O300  1  0.48453961  -0.00331927  0.10875465  1
  O  O301  1  0.50625656  -0.01363485  0.61415919  1
  O  O302  1  0.49813017  0.51159906  0.10279720  1
  O  O303  1  0.52393514  0.43587131  0.63771495  1
  O  O304  1  0.24914460  0.38786827  0.25901843  1
  O  O305  1  0.23981981  0.37571727  0.75288217  1
  O  O306  1  0.24718633  0.81998253  0.22408088  1
  O  O307  1  0.26621116  0.89352456  0.75645818  1
  O  O308  1  0.73394262  0.39428919  0.24976321  1
  O  O309  1  0.79825276  0.39990106  0.74287714  1
  O  O310  1  0.74073187  0.87920913  0.24230896  1
  O  O311  1  0.73151610  0.86716832  0.73487921  1
  O  O312  1  0.18422127  0.15562478  0.27895415  1
  O  O313  1  0.25591650  0.12175692  0.76361212  1
  O  O314  1  0.24018751  0.60621475  0.26921993  1
  O  O315  1  0.25530014  0.60430467  0.75352720  1
  O  O316  1  0.75164597  0.11469705  0.24136574  1
  O  O317  1  0.77031126  0.12698123  0.73696187  1
  O  O318  1  0.74126347  0.61849826  0.27081184  1
  O  O319  1  0.76610532  0.61915966  0.74340724  1
  O  O320  1  0.38793287  0.09720343  0.40018968  1
  O  O321  1  0.37140266  0.12218429  0.86310286  1
  O  O322  1  0.36660493  0.60109171  0.38627437  1
  O  O323  1  0.36864873  0.60749329  0.86610858  1
  O  O324  1  0.87579142  0.12619345  0.34040125  1
  O  O325  1  0.86525205  0.11329282  0.86397657  1
  O  O326  1  0.86858828  0.61588639  0.38140087  1
  O  O327  1  0.86120781  0.64778593  0.86339001  1
  O  O328  1  0.12048426  0.38903181  0.12147105  1
  O  O329  1  0.13627568  0.36721022  0.64364434  1
  O  O330  1  0.13333505  0.90066823  0.11649298  1
  O  O331  1  0.12417210  0.89449898  0.61569758  1
  O  O332  1  0.61358335  0.39484102  0.13685550  1
  O  O333  1  0.66519972  0.39108288  0.64288004  1
  O  O334  1  0.63538210  0.87434134  0.13580395  1
  O  O335  1  0.62582905  0.88237280  0.63260667  1
  O  O336  1  0.12641901  0.26280686  0.22960871  1
  O  O337  1  0.12138580  0.25359223  0.75859776  1
  O  O338  1  0.13609520  0.81157452  0.34980484  1
  O  O339  1  0.15875079  0.74960905  0.77185112  1
  O  O340  1  0.61349606  0.27085887  0.24421688  1
  O  O341  1  0.60227658  0.22782675  0.72588063  1
  O  O342  1  0.61344706  0.76742316  0.25540407  1
  O  O343  1  0.60653896  0.75015616  0.74626051  1
  O  O344  1  0.38075879  0.24698175  0.23078098  1
  O  O345  1  0.38679318  0.23917514  0.74845224  1
  O  O346  1  0.41052966  0.75342165  0.22668991  1
  O  O347  1  0.37764826  0.72995960  0.74860553  1
  O  O348  1  0.84357604  0.24894099  0.23898878  1
  O  O349  1  0.89091178  0.23188045  0.75182565  1
  O  O350  1  0.88251695  0.74366908  0.24849963  1
  O  O351  1  0.90057844  0.77199597  0.75013606  1
  O  O352  1  0.36932314  0.48299338  0.49805756  1
  O  O353  1  0.36725638  0.47659023  0.98386222  1
  O  O354  1  0.36456474  0.98492880  0.50882143  1
  O  O355  1  0.38132605  0.98297141  1.01350234  1
  O  O356  1  0.88895724  0.49702075  0.48722291  1
  O  O357  1  0.89560118  0.49411088  1.01374892  1
  O  O358  1  0.87391717  1.06543595  0.47998714  1
  O  O359  1  0.87842950  0.98820071  0.98875087  1
  O  O360  1  0.10733161  -0.00270189  -0.00910007  1
  O  O361  1  0.14163191  0.00393064  0.50170610  1
  O  O362  1  0.12190488  0.50331460  0.00739848  1
  O  O363  1  0.11263989  0.49217572  0.48411439  1
  O  O364  1  0.60969612  0.00395902  -0.01096842  1
  O  O365  1  0.62439186  0.00020134  0.50416490  1
  O  O366  1  0.66479861  0.46233248  -0.01579252  1
  O  O367  1  0.63777317  0.49906484  0.49536153  1
  O  O368  1  0.37941053  0.36558026  0.10671288  1
  O  O369  1  0.35147059  0.35436880  0.63914360  1
  O  O370  1  0.36965771  0.87592952  0.11652296  1
  O  O371  1  0.35106139  0.89923111  0.61294576  1
  O  O372  1  0.86070197  0.45222997  0.07533366  1
  O  O373  1  0.88636713  0.37673269  0.61247761  1
  O  O374  1  0.86368768  0.87778879  0.11344073  1
  O  O375  1  0.85834623  0.88572297  0.63107353  1
  O  O376  1  0.12768621  0.21316960  0.28678235  1
  O  O377  1  0.13488189  0.12486136  0.87397013  1
  O  O378  1  0.14388306  0.62007934  0.39020322  1
  O  O379  1  0.14646332  0.62888894  0.87838660  1
  O  O380  1  0.63706297  0.14119076  0.37969920  1
  O  O381  1  0.64961943  0.11094924  0.85937070  1
  O  O382  1  0.64326624  0.61849354  0.39091416  1
  O  O383  1  0.63843370  0.63165633  0.87220792  1
