# generated using pymatgen
data_VZnO4
_symmetry_space_group_name_H-M   'P 1'
_cell_length_a   16.90559997
_cell_length_b   16.89912233
_cell_length_c   16.96727030
_cell_angle_alpha   90.01431909
_cell_angle_beta   90.42499848
_cell_angle_gamma   90.43676360
_symmetry_Int_Tables_number   1
_chemical_formula_structural   VZnO4
_chemical_formula_sum   'V64 Zn64 O256'
_cell_volume   4847.10167662
_cell_formula_units_Z   64
loop_
 _symmetry_equiv_pos_site_id
 _symmetry_equiv_pos_as_xyz
  1  'x, y, z'
loop_
 _atom_site_type_symbol
 _atom_site_label
 _atom_site_symmetry_multiplicity
 _atom_site_fract_x
 _atom_site_fract_y
 _atom_site_fract_z
 _atom_site_occupancy
  V  V0  1  0.36620398  0.87126629  0.01516536  1
  V  V1  1  0.71797453  0.87291926  0.12392390  1
  V  V2  1  0.10807515  0.13534082  0.51905535  1
  V  V3  1  0.90516300  0.63872322  0.25685325  1
  V  V4  1  0.49235158  0.37220561  0.39359613  1
  V  V5  1  0.63340241  0.35561586  0.25296634  1
  V  V6  1  0.25513691  0.38945824  0.14537580  1
  V  V7  1  -0.00861574  0.38999503  0.40818747  1
  V  V8  1  0.88389032  0.12710354  0.75576999  1
  V  V9  1  0.11722292  0.25678808  0.38433305  1
  V  V10  1  0.87926785  0.76375146  0.62205990  1
  V  V11  1  0.69525868  0.82555397  0.57198385  1
  V  V12  1  0.46209586  0.24980046  0.24995560  1
  V  V13  1  0.50220149  0.61995241  0.63209234  1
  V  V14  1  0.13001635  0.59386952  0.51596864  1
  V  V15  1  0.74668589  0.37950857  0.66652658  1
  V  V16  1  0.24481401  0.01835515  0.29513242  1
  V  V17  1  0.86051772  0.50623273  0.37510043  1
  V  V18  1  0.62829482  0.50325043  0.67192539  1
  V  V19  1  0.74739525  0.25577142  -0.01480478  1
  V  V20  1  0.76065916  0.13962461  0.38995265  1
  V  V21  1  0.00145937  0.75856659  0.76104468  1
  V  V22  1  0.27046619  0.87996840  0.58930983  1
  V  V23  1  0.00123411  0.10682537  0.10355112  1
  V  V24  1  0.75382798  -0.00084641  0.73580300  1
  V  V25  1  0.87617531  0.26146639  0.62230393  1
  V  V26  1  0.38675649  -0.01543864  0.87006651  1
  V  V27  1  0.74459115  0.11409401  0.87883758  1
  V  V28  1  0.89104671  0.14033379  0.24127157  1
  V  V29  1  0.50883007  0.24524602  0.74942307  1
  V  V30  1  0.89658705  0.37837926  -0.01461946  1
  V  V31  1  0.53556770  0.83444360  0.32625865  1
  V  V32  1  0.22793457  0.91614741  0.12158301  1
  V  V33  1  0.09903143  0.37313669  0.24416729  1
  V  V34  1  0.76072588  0.37058471  0.12409883  1
  V  V35  1  0.87410185  0.61040183  0.76243028  1
  V  V36  1  0.38374096  0.47399977  0.88465727  1
  V  V37  1  0.25531828  0.25829704  0.02005323  1
  V  V38  1  0.25255920  0.09813042  0.81813912  1
  V  V39  1  0.60202198  0.12161966  -0.00082114  1
  V  V40  1  0.13256534  0.37219792  0.76686731  1
  V  V41  1  0.51835399  0.75502897  0.76521492  1
  V  V42  1  0.87573816  0.87859624  0.02633060  1
  V  V43  1  0.12087493  0.88044746  0.27139714  1
  V  V44  1  -0.01096388  0.88654159  0.88648277  1
  V  V45  1  0.53034081  0.11365322  0.61354728  1
  V  V46  1  0.63007368  0.88223081  0.76607050  1
  V  V47  1  0.22973870  0.60259586  0.36179017  1
  V  V48  1  0.24610855  0.50674439  0.75998213  1
  V  V49  1  0.50017979  0.63176309  0.13125745  1
  V  V50  1  0.61329377  0.47896830  0.10288286  1
  V  V51  1  0.73915206  0.01290524  0.23232784  1
  V  V52  1  0.25630603  0.37347043  0.62262256  1
  V  V53  1  0.37823741  0.63757108  0.77072111  1
  V  V54  1  0.37857605  0.87027354  0.44179641  1
  V  V55  1  0.00441277  0.26077988  0.77049166  1
  V  V56  1  -0.01641468  0.00223317  0.49876430  1
  V  V57  1  0.72637764  0.63748820  0.90836936  1
  V  V58  1  0.36815642  0.22367238  0.61914239  1
  V  V59  1  0.15450730  0.62464155  -0.00107816  1
  V  V60  1  0.87771856  -0.01620802  0.36080296  1
  V  V61  1  0.00637356  0.60844542  0.63209021  1
  V  V62  1  0.14019387  0.75339299  0.87983755  1
  V  V63  1  0.10618774  0.50682466  0.12457693  1
  Zn  Zn64  1  0.24140445  0.17012050  0.17426210  1
  Zn  Zn65  1  0.18388857  0.18961310  0.68373471  1
  Zn  Zn66  1  0.11758717  0.67871559  0.21011674  1
  Zn  Zn67  1  0.18361724  0.68690597  0.69796264  1
  Zn  Zn68  1  0.70397588  0.18436688  0.16961344  1
  Zn  Zn69  1  0.68954768  0.18947443  0.68929221  1
  Zn  Zn70  1  0.67330162  0.68358151  0.09094553  1
  Zn  Zn71  1  0.69474795  0.68994430  0.69677585  1
  Zn  Zn72  1  0.30186462  0.33246866  0.32542711  1
  Zn  Zn73  1  0.31811065  0.29395673  0.80613861  1
  Zn  Zn74  1  0.25065744  0.78062965  0.32475411  1
  Zn  Zn75  1  0.32336775  0.83671694  0.79771571  1
  Zn  Zn76  1  0.82775091  0.31717650  0.30998594  1
  Zn  Zn77  1  0.81951331  0.31011495  0.82329465  1
  Zn  Zn78  1  0.80813841  0.81101868  0.27246703  1
  Zn  Zn79  1  0.81335837  0.81080462  0.80882127  1
  Zn  Zn80  1  0.19191716  0.42466802  0.43206747  1
  Zn  Zn81  1  0.19989460  0.43841127  0.94726539  1
  Zn  Zn82  1  0.16590906  0.93813166  0.46656742  1
  Zn  Zn83  1  0.19171575  0.93436189  0.92066068  1
  Zn  Zn84  1  0.66246146  0.45010866  0.41333830  1
  Zn  Zn85  1  0.70883602  0.45138444  0.93265421  1
  Zn  Zn86  1  0.70867893  0.91977931  0.39967812  1
  Zn  Zn87  1  0.68732630  0.94167187  0.95038294  1
  Zn  Zn88  1  0.27371682  0.05842368  0.01634624  1
  Zn  Zn89  1  0.30861026  0.06302339  0.50141166  1
  Zn  Zn90  1  0.31649325  0.54527335  0.06666616  1
  Zn  Zn91  1  0.30600178  0.57284447  0.58843757  1
  Zn  Zn92  1  0.82100811  0.06183470  0.05705790  1
  Zn  Zn93  1  0.83159417  0.06456973  0.56476656  1
  Zn  Zn94  1  0.80769597  0.54773968  0.05013468  1
  Zn  Zn95  1  0.82269069  0.54709220  0.58556219  1
  Zn  Zn96  1  0.45411705  0.42926314  0.19879136  1
  Zn  Zn97  1  0.43230871  0.43858642  0.70692901  1
  Zn  Zn98  1  0.37880684  0.90258477  0.24025496  1
  Zn  Zn99  1  0.44131560  0.93797594  0.67628429  1
  Zn  Zn100  1  0.92851177  0.45164324  0.18212986  1
  Zn  Zn101  1  0.94104226  0.42993332  0.69751575  1
  Zn  Zn102  1  0.95135898  0.94463998  0.19175653  1
  Zn  Zn103  1  0.95350809  0.95193043  0.68360469  1
  Zn  Zn104  1  0.05971642  0.06796375  0.31799010  1
  Zn  Zn105  1  0.06399575  0.04886094  0.79446114  1
  Zn  Zn106  1  0.05777998  0.55413015  0.32184294  1
  Zn  Zn107  1  0.06054343  0.56748182  0.82529275  1
  Zn  Zn108  1  0.58927085  0.12982742  0.28643746  1
  Zn  Zn109  1  0.56229642  0.06720810  0.80622846  1
  Zn  Zn110  1  0.58092194  0.54233053  0.29688579  1
  Zn  Zn111  1  0.55653739  0.56847002  0.83837707  1
  Zn  Zn112  1  0.44140815  0.19729094  0.44803379  1
  Zn  Zn113  1  0.41675428  0.17883570  0.91797494  1
  Zn  Zn114  1  0.41105830  0.71020675  0.38819269  1
  Zn  Zn115  1  0.43109337  0.71025677  0.94453748  1
  Zn  Zn116  1  0.92996378  0.19764991  0.43028343  1
  Zn  Zn117  1  0.93166497  0.19104618  0.94129305  1
  Zn  Zn118  1  0.91765935  0.64837738  0.46680105  1
  Zn  Zn119  1  0.89339202  0.71525136  0.92192056  1
  Zn  Zn120  1  0.08460933  0.30467007  0.04749686  1
  Zn  Zn121  1  0.06575790  0.32018576  0.57854594  1
  Zn  Zn122  1  0.07937733  0.82493822  0.04614741  1
  Zn  Zn123  1  0.05772865  0.82700857  0.57823841  1
  Zn  Zn124  1  0.57709431  0.26412767  0.09716671  1
  Zn  Zn125  1  0.53459237  0.33743406  0.60216690  1
  Zn  Zn126  1  0.52085170  0.83412206  0.12835087  1
  Zn  Zn127  1  0.51626988  0.75937881  0.53866253  1
  O  O128  1  0.10457155  0.15143560  0.12303676  1
  O  O129  1  0.09692246  0.14907292  0.61785627  1
  O  O130  1  0.12218432  0.61808403  0.10906605  1
  O  O131  1  0.11709104  0.62493202  0.62714469  1
  O  O132  1  0.61479207  0.14543763  0.10219717  1
  O  O133  1  0.63172197  0.12335345  0.61680877  1
  O  O134  1  0.60681231  0.59333455  0.13139489  1
  O  O135  1  0.62222007  0.60989568  0.65172132  1
  O  O136  1  0.39403253  0.38971924  0.37786727  1
  O  O137  1  0.37835601  0.37645812  0.85954196  1
  O  O138  1  0.34723581  0.84245896  0.34065690  1
  O  O139  1  0.37231363  0.87552556  0.90243423  1
  O  O140  1  0.88224659  0.39461480  0.37907905  1
  O  O141  1  0.88550375  0.37905176  0.88453711  1
  O  O142  1  0.85466925  0.88485288  0.35386404  1
  O  O143  1  0.88674684  0.86943704  0.87962218  1
  O  O144  1  0.23719402  0.00484770  0.39618405  1
  O  O145  1  0.26091900  -0.01149510  0.84936446  1
  O  O146  1  0.25649725  0.50706431  0.38033616  1
  O  O147  1  0.26243999  0.49487289  0.86455019  1
  O  O148  1  0.76068807  0.01464364  0.35210531  1
  O  O149  1  0.75396424  0.01281781  0.87684459  1
  O  O150  1  0.76082438  0.49415427  0.36945295  1
  O  O151  1  0.75500216  0.54157578  0.88625673  1
  O  O152  1  0.22869618  0.49311987  0.12257162  1
  O  O153  1  0.25554531  0.49023297  0.65193908  1
  O  O154  1  0.21689848  1.01507374  0.11228336  1
  O  O155  1  0.26358492  0.97945386  0.57428311  1
  O  O156  1  0.73713564  0.47499196  0.11174860  1
  O  O157  1  0.74047337  0.49201885  0.63976973  1
  O  O158  1  0.74842692  1.00428182  0.12850073  1
  O  O159  1  0.75793786  1.00552843  0.63864923  1
  O  O160  1  -0.00176476  0.37922637  0.24199137  1
  O  O161  1  0.01665389  0.37113461  0.75991561  1
  O  O162  1  0.02169176  0.87613542  0.25135417  1
  O  O163  1  -0.00381403  0.86177886  0.76617303  1
  O  O164  1  0.51539418  0.35911679  0.26751558  1
  O  O165  1  0.50369295  0.35179330  0.71612017  1
  O  O166  1  0.49123818  0.87246437  0.23635263  1
  O  O167  1  0.52269798  0.86477615  0.74330959  1
  O  O168  1  0.48427916  0.15002265  0.25907504  1
  O  O169  1  0.50938005  0.13079194  0.72868271  1
  O  O170  1  0.48559507  0.58644645  0.24178327  1
  O  O171  1  0.49452178  0.63586627  0.76188258  1
  O  O172  1  0.99264837  0.12132383  0.23967185  1
  O  O173  1  0.98862464  0.13783531  0.75830282  1
  O  O174  1  1.01150607  0.63540465  0.25185192  1
  O  O175  1  1.00110224  0.63113480  0.74404216  1
  O  O176  1  0.33130661  0.24837353  -0.04792671  1
  O  O177  1  0.37955630  0.26128962  0.52523172  1
  O  O178  1  0.35978601  0.76914532  0.00908627  1
  O  O179  1  0.42159828  0.77710567  0.48462448  1
  O  O180  1  0.86091483  0.26442435  -0.00779485  1
  O  O181  1  0.87748176  0.25196341  0.52499147  1
  O  O182  1  0.87001671  0.77229267  0.01143696  1
  O  O183  1  0.88902931  0.74430812  0.52377631  1
  O  O184  1  0.10215133  0.25013738  0.49375683  1
  O  O185  1  0.16110430  0.24628515  0.98366054  1
  O  O186  1  0.06706274  0.76478288  0.44002071  1
  O  O187  1  0.12657742  0.73487425  0.99197328  1
  O  O188  1  0.69504254  0.29866414  0.49877819  1
  O  O189  1  0.64057393  0.23948771  0.99191515  1
  O  O190  1  0.62610760  0.77002324  0.52203593  1
  O  O191  1  0.57939675  0.73071993  1.02820519  1
  O  O192  1  0.47539505  0.26836649  0.14857946  1
  O  O193  1  0.49068688  0.22727652  0.62749989  1
  O  O194  1  0.50222122  0.72459583  0.16681050  1
  O  O195  1  0.50982671  0.72857677  0.65227158  1
  O  O196  1  1.05116216  0.21488888  0.12421894  1
  O  O197  1  0.98009265  0.27120312  0.64395831  1
  O  O198  1  1.00877417  0.74696145  0.12297297  1
  O  O199  1  1.00019175  0.75191213  0.64324894  1
  O  O200  1  -0.00234528  0.28222104  0.38267666  1
  O  O201  1  0.00140034  0.24989723  0.86812595  1
  O  O202  1  0.00998129  0.75296987  0.39570148  1
  O  O203  1  -0.00188015  0.75323174  0.86807277  1
  O  O204  1  0.49357009  0.26398114  0.36853792  1
  O  O205  1  0.48453623  0.23909365  0.84732797  1
  O  O206  1  0.50960547  0.73471896  0.34026599  1
  O  O207  1  0.50073645  0.75638713  0.86311403  1
  O  O208  1  0.20700875  0.12751052  0.50771972  1
  O  O209  1  0.27738843  0.15883824  1.06574500  1
  O  O210  1  0.23076860  0.62216070  0.51915225  1
  O  O211  1  0.25211773  0.62678084  1.00499456  1
  O  O212  1  0.76801950  0.12041313  0.48788835  1
  O  O213  1  0.75986522  0.13476612  0.98687447  1
  O  O214  1  0.69921133  0.59803990  0.50348572  1
  O  O215  1  0.74368371  0.63569649  1.01422021  1
  O  O216  1  0.24818090  0.37055609  0.02704968  1
  O  O217  1  0.24341440  0.38473475  0.52471075  1
  O  O218  1  0.24086990  0.88875603  0.01648506  1
  O  O219  1  0.28461861  0.84405687  0.48377437  1
  O  O220  1  0.75490296  0.36561581  -0.00691401  1
  O  O221  1  0.72279365  0.36718659  0.49936100  1
  O  O222  1  0.75514542  0.88075444  0.02257306  1
  O  O223  1  0.73607229  0.88995516  0.50494150  1
  O  O224  1  0.10670873  0.49521520  0.23160523  1
  O  O225  1  0.14010916  0.49436967  0.76252509  1
  O  O226  1  0.13067481  0.99359374  0.27114710  1
  O  O227  1  0.06144745  0.98188712  0.70565652  1
  O  O228  1  0.62748357  0.46262605  0.22923154  1
  O  O229  1  0.62791996  0.50050714  0.76986473  1
  O  O230  1  0.64148329  1.03054617  0.24433248  1
  O  O231  1  0.64099579  0.99172482  0.75317247  1
  O  O232  1  0.34377857  0.00675412  0.27067257  1
  O  O233  1  0.37670660  -0.05877793  0.77056807  1
  O  O234  1  0.42486551  0.53215206  0.25387887  1
  O  O235  1  0.37003918  0.51300262  0.76964681  1
  O  O236  1  0.87316216  0.00887557  0.25073578  1
  O  O237  1  0.86891279  0.01946229  0.74708402  1
  O  O238  1  0.88773827  0.51629577  0.26799239  1
  O  O239  1  0.88181550  0.51115095  0.74915952  1
  O  O240  1  0.09859402  0.39103279  0.36699690  1
  O  O241  1  0.14013881  0.37362140  0.86646009  1
  O  O242  1  0.13770881  0.87345389  0.37184440  1
  O  O243  1  0.10646693  0.85775329  0.89380631  1
  O  O244  1  0.65408931  0.35098178  0.35022672  1
  O  O245  1  0.61476055  0.37470345  0.87007159  1
  O  O246  1  0.63501157  0.85681146  0.33989353  1
  O  O247  1  0.63422936  0.88144297  0.86549661  1
  O  O248  1  0.44075709  0.06521200  0.12227220  1
  O  O249  1  0.35728147  0.12563288  0.60524449  1
  O  O250  1  0.40817240  0.60329561  0.10217163  1
  O  O251  1  0.39521626  0.61156757  0.64933579  1
  O  O252  1  0.89284465  0.12147428  0.12892336  1
  O  O253  1  0.85755164  0.15334874  0.64969282  1
  O  O254  1  0.86422797  0.60688690  0.14717469  1
  O  O255  1  0.89306845  0.63040648  0.63578435  1
  O  O256  1  0.24504523  0.27881117  0.13300523  1
  O  O257  1  0.26060354  0.26074781  0.63510377  1
  O  O258  1  0.28801092  0.70944756  0.14639421  1
  O  O259  1  0.24702208  0.77596501  0.65527146  1
  O  O260  1  0.75258708  0.26175560  0.10030443  1
  O  O261  1  0.75672620  0.27373220  0.64430337  1
  O  O262  1  0.72401199  0.77228867  0.14304559  1
  O  O263  1  0.76456267  0.75568721  0.62580625  1
  O  O264  1  0.21496177  0.29145435  0.38955103  1
  O  O265  1  0.24870724  0.20144905  0.82371957  1
  O  O266  1  0.30222205  0.68115077  0.37328847  1
  O  O267  1  0.23533740  0.77250408  0.86179833  1
  O  O268  1  0.79082906  0.23824142  0.38317714  1
  O  O269  1  0.74732549  0.24068173  0.87976855  1
  O  O270  1  0.73346921  0.72822828  0.33662999  1
  O  O271  1  0.77296916  0.72721987  0.87753735  1
  O  O272  1  -0.01007770  0.11821752  0.00414098  1
  O  O273  1  -0.00413897  0.12172600  0.48424468  1
  O  O274  1  -0.03586842  0.70171851  0.08494890  1
  O  O275  1  0.01871633  0.62747698  0.52313602  1
  O  O276  1  0.50386047  0.13599476  -0.01674486  1
  O  O277  1  0.50862111  0.13241440  0.51430710  1
  O  O278  1  0.51946778  0.67316937  0.02210360  1
  O  O279  1  0.50637900  0.62999955  0.53464859  1
  O  O280  1  0.51611109  0.36192806  0.49247067  1
  O  O281  1  0.56130308  0.35352180  0.91446702  1
  O  O282  1  0.48907576  0.88329963  0.39964447  1
  O  O283  1  0.46281808  0.88423238  1.04269860  1
  O  O284  1  0.99910198  0.38763523  0.50641789  1
  O  O285  1  0.99232671  0.35488390  1.00768208  1
  O  O286  1  0.99912342  0.90256641  0.51298191  1
  O  O287  1  0.98928398  0.87442973  0.99556856  1
  O  O288  1  0.55047998  0.46785507  0.38248788  1
  O  O289  1  0.48393199  0.49665495  0.88131194  1
  O  O290  1  0.53222848  1.03349670  0.39796844  1
  O  O291  1  0.48620760  1.00423635  0.86728295  1
  O  O292  1  0.98721508  0.49626186  0.38842708  1
  O  O293  1  1.02129456  0.49118711  0.89527856  1
  O  O294  1  0.98348819  0.99639707  0.37537060  1
  O  O295  1  1.00442799  0.98352029  0.87181180  1
  O  O296  1  0.01639827  0.00892276  0.12060768  1
  O  O297  1  -0.05887481  0.02433902  0.59242300  1
  O  O298  1  0.00752028  0.50253070  0.11093735  1
  O  O299  1  0.00091001  0.51007912  0.63471975  1
  O  O300  1  0.49805356  0.02412105  0.13546561  1
  O  O301  1  0.50531269  0.01385863  0.62597069  1
  O  O302  1  0.51257227  0.47159449  0.11041187  1
  O  O303  1  0.52019037  0.50577426  0.64790111  1
  O  O304  1  0.22465734  0.38565870  0.24791883  1
  O  O305  1  0.24392414  0.38106501  0.75225805  1
  O  O306  1  0.23385907  0.91009205  0.23742528  1
  O  O307  1  0.24254328  0.84686119  0.70030547  1
  O  O308  1  0.75003324  0.35717203  0.22952029  1
  O  O309  1  0.74890298  0.38198315  0.76495812  1
  O  O310  1  0.74639966  0.89897707  0.22921953  1
  O  O311  1  0.75057744  0.89243193  0.75905311  1
  O  O312  1  0.23039188  0.11691958  0.26848609  1
  O  O313  1  0.22650562  0.08640656  0.72223538  1
  O  O314  1  0.20466803  0.61227332  0.26629210  1
  O  O315  1  0.26416896  0.61720601  0.74835340  1
  O  O316  1  0.77135334  0.12170746  0.23643713  1
  O  O317  1  0.75044897  0.11397272  0.76186168  1
  O  O318  1  0.80370900  0.62443072  0.19743507  1
  O  O319  1  0.77439077  0.62882188  0.75023019  1
  O  O320  1  0.35974661  0.12417980  0.41998494  1
  O  O321  1  0.35897791  0.09561608  0.85368221  1
  O  O322  1  0.41155118  0.54816839  0.44518158  1
  O  O323  1  0.37938623  0.63083006  0.87205932  1
  O  O324  1  0.87499861  0.11916998  0.35233937  1
  O  O325  1  0.86190116  0.13507097  0.85990378  1
  O  O326  1  0.88166581  0.62466904  0.35990387  1
  O  O327  1  0.89748054  0.62070551  0.86214786  1
  O  O328  1  0.11797339  0.38528432  0.13290508  1
  O  O329  1  0.14180835  0.37026027  0.64852732  1
  O  O330  1  0.13522010  0.86711217  0.13417577  1
  O  O331  1  0.15940247  0.86416547  0.55896453  1
  O  O332  1  0.63532763  0.36693974  0.11940170  1
  O  O333  1  0.63886998  0.39290401  0.63794621  1
  O  O334  1  0.62132330  0.88872985  0.11248986  1
  O  O335  1  0.64626681  0.87196114  0.64569646  1
  O  O336  1  0.11229827  0.27480032  0.26914368  1
  O  O337  1  0.11154225  0.25856700  0.75218463  1
  O  O338  1  0.15707137  0.77237870  0.26047988  1
  O  O339  1  0.11112794  0.74235403  0.77018778  1
  O  O340  1  0.62416880  0.25029987  0.22805903  1
  O  O341  1  0.61204378  0.24684648  0.74911659  1
  O  O342  1  0.69095432  0.67506363  0.29827029  1
  O  O343  1  0.62646442  0.76110581  0.76006374  1
  O  O344  1  0.36207732  0.25696944  0.26299486  1
  O  O345  1  0.38668498  0.24387560  0.72736679  1
  O  O346  1  0.33065836  0.72283297  0.20405976  1
  O  O347  1  0.38417981  0.74094812  0.75696645  1
  O  O348  1  0.88406186  0.23961104  0.24341286  1
  O  O349  1  0.88908415  0.25006249  0.75458350  1
  O  O350  1  0.88974326  0.73770943  0.24948446  1
  O  O351  1  0.88901784  0.74002495  0.74416987  1
  O  O352  1  0.38059799  0.50915388  0.49895340  1
  O  O353  1  0.35987968  0.48431920  0.98180588  1
  O  O354  1  0.38656641  0.96507638  0.46859162  1
  O  O355  1  0.36021155  0.99496945  0.98017734  1
  O  O356  1  0.86363879  0.53978356  0.48105245  1
  O  O357  1  0.88122150  0.47871095  1.00559841  1
  O  O358  1  0.87108264  1.00180066  0.46574607  1
  O  O359  1  0.87137152  0.97839565  0.99997376  1
  O  O360  1  0.15684952  0.04947449  -0.05212536  1
  O  O361  1  0.09319772  0.02260730  0.50297797  1
  O  O362  1  0.12996389  0.51783093  0.00200949  1
  O  O363  1  0.12843250  0.49663248  0.51298855  1
  O  O364  1  0.62260859  0.02271872  -0.00070953  1
  O  O365  1  0.57841429  0.00704293  0.44667224  1
  O  O366  1  0.62425247  0.48596342  0.00334302  1
  O  O367  1  0.65112596  0.54086435  0.50085724  1
  O  O368  1  0.35336272  0.40246672  0.15476505  1
  O  O369  1  0.35914091  0.38299332  0.63403526  1
  O  O370  1  0.33417129  0.88678125  0.12793980  1
  O  O371  1  0.37155353  0.87197860  0.61258805  1
  O  O372  1  0.86317724  0.37767835  0.11863525  1
  O  O373  1  0.85578990  0.37626674  0.63714185  1
  O  O374  1  0.88057527  0.87735615  0.12729189  1
  O  O375  1  0.88718816  0.86233215  0.63661375  1
  O  O376  1  0.11169964  0.15619068  0.37479730  1
  O  O377  1  0.14969727  0.08878701  0.87371048  1
  O  O378  1  0.12868794  0.61379884  0.40301920  1
  O  O379  1  0.13192206  0.63802909  0.88924786  1
  O  O380  1  0.66127672  0.14425390  0.36984469  1
  O  O381  1  0.63850784  0.12259468  0.88264211  1
  O  O382  1  0.64462635  0.63056497  0.34692565  1
  O  O383  1  0.62819885  0.64164957  0.88780369  1
