# generated using pymatgen
data_VZnO4
_symmetry_space_group_name_H-M   'P 1'
_cell_length_a   16.91165161
_cell_length_b   16.93497986
_cell_length_c   16.97031606
_cell_angle_alpha   89.82761332
_cell_angle_beta   89.88393158
_cell_angle_gamma   89.93329041
_symmetry_Int_Tables_number   1
_chemical_formula_structural   VZnO4
_chemical_formula_sum   'V64 Zn64 O256'
_cell_volume   4860.23748536
_cell_formula_units_Z   64
loop_
 _symmetry_equiv_pos_site_id
 _symmetry_equiv_pos_as_xyz
  1  'x, y, z'
loop_
 _atom_site_type_symbol
 _atom_site_label
 _atom_site_symmetry_multiplicity
 _atom_site_fract_x
 _atom_site_fract_y
 _atom_site_fract_z
 _atom_site_occupancy
  V  V0  1  0.02064872  0.49943374  0.52008868  1
  V  V1  1  0.13264790  0.35136518  0.24861834  1
  V  V2  1  0.00550991  0.36995012  0.86994120  1
  V  V3  1  0.62367221  0.26483028  0.36697945  1
  V  V4  1  0.25832087  0.35421188  0.10542187  1
  V  V5  1  0.74368803  0.62558926  0.39602438  1
  V  V6  1  0.14004037  0.24037008  0.86889060  1
  V  V7  1  0.49558103  0.12745939  0.63396825  1
  V  V8  1  0.37203765  0.61545055  0.73122152  1
  V  V9  1  0.12522871  0.88056762  0.25993034  1
  V  V10  1  -0.02306569  0.62695162  0.11583344  1
  V  V11  1  0.76082054  0.24078118  -0.01091267  1
  V  V12  1  0.74198066  0.85362240  0.62857031  1
  V  V13  1  0.61049882  0.13641020  0.50076297  1
  V  V14  1  0.77672845  0.81600136  -0.02301712  1
  V  V15  1  0.71124420  0.00898707  0.74528930  1
  V  V16  1  0.38093628  0.62021378  0.23614540  1
  V  V17  1  0.17507443  0.67060252  0.54326330  1
  V  V18  1  0.61887395  0.49127550  0.12170271  1
  V  V19  1  0.11797115  0.76341055  0.86941660  1
  V  V20  1  -0.04279551  0.41121767  0.36892226  1
  V  V21  1  0.78087069  0.12919605  0.36988538  1
  V  V22  1  -0.00788924  0.63875294  0.63357378  1
  V  V23  1  0.86514425  0.38339748  -0.00592551  1
  V  V24  1  0.35529470  0.13420784  0.76408208  1
  V  V25  1  0.23356462  0.61889337  0.36362508  1
  V  V26  1  0.37842073  0.88956141  0.00441966  1
  V  V27  1  -0.02804070  0.25160257  0.22064912  1
  V  V28  1  0.74972852  0.38049464  0.13396199  1
  V  V29  1  0.50162514  0.73351131  0.75456533  1
  V  V30  1  0.48164569  0.47285573  -0.02022665  1
  V  V31  1  0.39673026  0.23801326  0.13580548  1
  V  V32  1  0.12515219  0.63450507  0.00531873  1
  V  V33  1  0.24006368  0.11811631  0.37816311  1
  V  V34  1  0.38918532  0.11172671  0.27128935  1
  V  V35  1  0.38052809  0.38395591  0.49051412  1
  V  V36  1  0.24168931  0.48799451  0.23321186  1
  V  V37  1  0.76390468  0.24683865  0.51619179  1
  V  V38  1  0.87048573  0.38207159  0.53340237  1
  V  V39  1  0.38940745  0.49306146  0.36116872  1
  V  V40  1  0.61822410  0.61722044  -0.02844132  1
  V  V41  1  0.13613244  0.39014001  0.75018888  1
  V  V42  1  0.13864059  0.12439715  0.02258985  1
  V  V43  1  0.26437674  0.61760517  0.87628317  1
  V  V44  1  0.51638549  -0.00591563  0.03334473  1
  V  V45  1  0.75874599  0.48036940  0.76071564  1
  V  V46  1  0.50613829  0.31585415  0.86356215  1
  V  V47  1  0.37518486  0.25375521  0.61985462  1
  V  V48  1  0.01571558  0.49369727  -0.00268002  1
  V  V49  1  0.11275113  0.01110979  0.63505253  1
  V  V50  1  0.38720612  0.88781865  0.51163274  1
  V  V51  1  0.00314816  0.00653330  -0.01299582  1
  V  V52  1  0.49495191  0.90082455  0.86661919  1
  V  V53  1  0.74367611  -0.03935527  0.24498062  1
  V  V54  1  0.61949856  0.50458593  0.63694004  1
  V  V55  1  0.86756582  0.63156654  0.76785487  1
  V  V56  1  0.24650137  -0.01482501  0.75716024  1
  V  V57  1  0.26432126  0.75188893  0.00452217  1
  V  V58  1  0.23108695  0.25153313  0.49217499  1
  V  V59  1  0.24089853  0.88860423  0.12767364  1
  V  V60  1  0.48814988  0.62509058  0.10538974  1
  V  V61  1  0.01830169  0.73329547  0.25086401  1
  V  V62  1  0.63049138  0.13386725  0.02078490  1
  V  V63  1  0.24312187  0.39514113  0.61867385  1
  Zn  Zn64  1  0.21161361  0.17824830  0.19211620  1
  Zn  Zn65  1  0.17872667  0.19746649  0.68138302  1
  Zn  Zn66  1  0.19427740  0.68334792  0.18142158  1
  Zn  Zn67  1  0.18582837  0.68357638  0.70162849  1
  Zn  Zn68  1  0.71232417  0.19413930  0.18607909  1
  Zn  Zn69  1  0.68705979  0.17877909  0.68658229  1
  Zn  Zn70  1  0.68960094  0.69744289  0.10853596  1
  Zn  Zn71  1  0.67894998  0.66676808  0.70197462  1
  Zn  Zn72  1  0.31799284  0.30351084  0.31055329  1
  Zn  Zn73  1  0.31886976  0.32634125  0.80402227  1
  Zn  Zn74  1  0.31165409  0.79731996  0.29627510  1
  Zn  Zn75  1  0.32179430  0.80299318  0.81877261  1
  Zn  Zn76  1  0.79461323  0.32299963  0.31930744  1
  Zn  Zn77  1  0.82256425  0.30270869  0.81482618  1
  Zn  Zn78  1  0.74663739  0.84546747  0.39745576  1
  Zn  Zn79  1  0.66673774  0.81932202  0.80819095  1
  Zn  Zn80  1  0.18906969  0.43595200  0.42387839  1
  Zn  Zn81  1  0.19387369  0.43521754  0.93714513  1
  Zn  Zn82  1  0.19458804  0.92915018  0.43518850  1
  Zn  Zn83  1  0.18697535  0.94581292  0.94003333  1
  Zn  Zn84  1  0.68499679  0.42674007  0.46052725  1
  Zn  Zn85  1  0.66728319  0.43200571  0.92163049  1
  Zn  Zn86  1  0.74726057  1.01376337  0.50362823  1
  Zn  Zn87  1  0.68322487  0.97267539  0.92571542  1
  Zn  Zn88  1  0.33377094  0.08991400  0.05641910  1
  Zn  Zn89  1  0.29188572  0.07207016  0.57288748  1
  Zn  Zn90  1  0.30930347  0.54754489  0.05159206  1
  Zn  Zn91  1  0.35684580  0.59559761  0.52368074  1
  Zn  Zn92  1  0.82094231  -0.01322580  0.06306750  1
  Zn  Zn93  1  0.85329964  0.14233652  0.66095409  1
  Zn  Zn94  1  0.80219578  0.55790546  0.03771601  1
  Zn  Zn95  1  0.80828642  0.55927242  0.58834740  1
  Zn  Zn96  1  0.44040967  0.42512969  0.18090047  1
  Zn  Zn97  1  0.43295586  0.42738850  0.70193357  1
  Zn  Zn98  1  0.40321971  0.94900470  0.18408649  1
  Zn  Zn99  1  0.42945641  0.95998680  0.68922540  1
  Zn  Zn100  1  0.94906325  0.42836550  0.16909600  1
  Zn  Zn101  1  0.94113774  0.44347414  0.69866212  1
  Zn  Zn102  1  0.91941575  0.89829267  0.29387069  1
  Zn  Zn103  1  0.91740883  0.93758506  0.60117735  1
  Zn  Zn104  1  0.07284310  0.08133880  0.28977477  1
  Zn  Zn105  1  0.06142608  0.05490040  0.81274142  1
  Zn  Zn106  1  0.05372696  0.53879600  0.29255112  1
  Zn  Zn107  1  0.06292594  0.57111066  0.81870440  1
  Zn  Zn108  1  0.59988827  0.10883495  0.28357247  1
  Zn  Zn109  1  0.55164398  0.10311305  0.84893324  1
  Zn  Zn110  1  0.59958770  0.61801449  0.25815694  1
  Zn  Zn111  1  0.55154560  0.53782755  0.79814253  1
  Zn  Zn112  1  0.43766820  0.20205535  0.43327487  1
  Zn  Zn113  1  0.33686573  0.23704555  0.94179008  1
  Zn  Zn114  1  0.45705554  0.72687198  0.41551040  1
  Zn  Zn115  1  0.45544185  0.69846519  0.93418379  1
  Zn  Zn116  1  0.93161042  0.22893680  0.40506548  1
  Zn  Zn117  1  0.92956610  0.16744326  1.03339591  1
  Zn  Zn118  1  0.96555343  0.63071547  0.41605856  1
  Zn  Zn119  1  0.92683351  0.70345221  0.93054489  1
  Zn  Zn120  1  0.07024724  0.29704774  0.06419348  1
  Zn  Zn121  1  0.05727919  0.32282719  0.56290086  1
  Zn  Zn122  1  0.04934689  0.82246229  0.07052477  1
  Zn  Zn123  1  0.05084923  0.80999822  0.54803493  1
  Zn  Zn124  1  0.56453040  0.31008047  0.05975192  1
  Zn  Zn125  1  0.56969016  0.32840209  0.55917520  1
  Zn  Zn126  1  0.59872511  0.82637939  -0.00313003  1
  Zn  Zn127  1  0.56432586  0.79207230  0.56260267  1
  O  O128  1  0.13405478  0.13105463  0.12278699  1
  O  O129  1  0.11569740  0.11216379  0.62848324  1
  O  O130  1  0.12811793  0.62341136  0.10546629  1
  O  O131  1  0.11560450  0.62654340  0.62079468  1
  O  O132  1  0.65934105  0.11615590  0.11601899  1
  O  O133  1  0.59929116  0.15542772  0.62021795  1
  O  O134  1  0.60033181  0.60727116  0.10213632  1
  O  O135  1  0.61970167  0.60465503  0.62049804  1
  O  O136  1  0.37068850  0.38030017  0.38160820  1
  O  O137  1  0.39396134  0.32176173  0.88716057  1
  O  O138  1  0.42422678  0.90726836  0.41754818  1
  O  O139  1  0.37984637  0.88384793  0.89572969  1
  O  O140  1  0.85822527  0.39924406  0.38641820  1
  O  O141  1  0.89793731  0.36520248  0.88598514  1
  O  O142  1  0.86790666  0.85914866  0.40021250  1
  O  O143  1  0.92335110  0.88479470  0.79806029  1
  O  O144  1  0.24855485  0.01935263  0.39726386  1
  O  O145  1  0.23538975  0.00567860  0.85550591  1
  O  O146  1  0.25382639  0.49890951  0.34996141  1
  O  O147  1  0.25334208  0.51851408  0.88809713  1
  O  O148  1  0.75697834  0.03049585  0.39194100  1
  O  O149  1  0.75328975  -0.01512085  0.83099597  1
  O  O150  1  0.73699131  0.52094603  0.40633640  1
  O  O151  1  0.74706283  0.48740961  0.86209700  1
  O  O152  1  0.26379289  0.47258933  0.12913338  1
  O  O153  1  0.24477427  0.49010905  0.61445341  1
  O  O154  1  0.24857964  0.98539242  0.12381971  1
  O  O155  1  0.23090335  1.00477205  0.64069344  1
  O  O156  1  0.73264260  0.49048942  0.10583277  1
  O  O157  1  0.73520580  0.49425313  0.64164951  1
  O  O158  1  0.75875284  0.94474863  0.14449099  1
  O  O159  1  0.75559756  0.97790898  0.63803463  1
  O  O160  1  0.02777517  0.34566859  0.20727870  1
  O  O161  1  0.01316734  0.37839205  0.76550125  1
  O  O162  1  0.01229059  0.84720338  0.25429114  1
  O  O163  1  -0.02237547  0.85921398  0.75811613  1
  O  O164  1  0.51096655  0.38170205  0.25713604  1
  O  O165  1  0.48354710  0.34888366  0.76859926  1
  O  O166  1  0.51770512  0.82592744  0.21574799  1
  O  O167  1  0.49192686  0.91105962  0.76827455  1
  O  O168  1  0.48954197  0.11970735  0.27575786  1
  O  O169  1  0.47103065  0.13500669  0.73562348  1
  O  O170  1  0.48877224  0.61881665  0.22706028  1
  O  O171  1  0.48589355  0.62716235  0.75483938  1
  O  O172  1  1.00538841  0.17037419  0.27102397  1
  O  O173  1  0.96500063  0.11398862  0.75278842  1
  O  O174  1  1.00363315  0.62191632  0.22193178  1
  O  O175  1  0.99291180  0.61610121  0.73960144  1
  O  O176  1  0.38184572  0.19976164  0.03495465  1
  O  O177  1  0.36231358  0.26951704  0.50348000  1
  O  O178  1  0.36592278  0.75989563  -0.00446188  1
  O  O179  1  0.39031561  0.78359926  0.50578788  1
  O  O180  1  0.86748629  0.26324811  0.00268615  1
  O  O181  1  0.87031944  0.26824483  0.49548516  1
  O  O182  1  0.86516320  0.76977314  -0.00178622  1
  O  O183  1  0.90641260  0.82301776  0.46345767  1
  O  O184  1  0.13138715  0.26364239  0.49855335  1
  O  O185  1  0.13084160  0.23152831  0.98843965  1
  O  O186  1  0.11917361  0.73689926  0.49169832  1
  O  O187  1  0.13036607  0.74082167  0.99727811  1
  O  O188  1  0.64489966  0.25458571  0.50327786  1
  O  O189  1  0.63917592  0.23756091  1.00513125  1
  O  O190  1  0.55783905  0.75651767  0.45836966  1
  O  O191  1  0.57686098  0.71443324  0.97127438  1
  O  O192  1  0.49660371  0.25172706  0.13125324  1
  O  O193  1  0.47730584  0.26236858  0.61509195  1
  O  O194  1  0.48689952  0.72058624  0.10025596  1
  O  O195  1  0.51490585  0.77119382  0.66071848  1
  O  O196  1  0.98241772  0.23186786  0.11785025  1
  O  O197  1  0.99470134  0.23589926  0.61672727  1
  O  O198  1  0.99995648  0.73298579  0.12724948  1
  O  O199  1  1.00072860  0.73824953  0.62366204  1
  O  O200  1  -0.01408959  0.31123852  0.35487959  1
  O  O201  1  0.02627134  0.27252700  0.88713914  1
  O  O202  1  -0.00305244  0.71333170  0.34744564  1
  O  O203  1  0.01869700  0.74854797  0.88467626  1
  O  O204  1  0.52498305  0.26569545  0.38933556  1
  O  O205  1  0.52360683  0.21509192  0.86622979  1
  O  O206  1  0.41598705  0.79570603  0.33997580  1
  O  O207  1  0.48548727  0.78157242  0.85305809  1
  O  O208  1  0.24741179  0.14451293  0.49482494  1
  O  O209  1  0.23755257  0.11090971  0.99908956  1
  O  O210  1  0.24486366  0.61647341  0.47591788  1
  O  O211  1  0.24570042  0.63383135  0.99791977  1
  O  O212  1  0.75175637  0.14380945  0.49405052  1
  O  O213  1  0.76260661  0.14348731  1.01026856  1
  O  O214  1  0.73624607  0.62531088  0.50298238  1
  O  O215  1  0.71841123  0.63186711  1.00788279  1
  O  O216  1  0.25371861  0.36685062  0.00627073  1
  O  O217  1  0.24939396  0.37311534  0.50612559  1
  O  O218  1  0.25728366  0.86963704  0.00665052  1
  O  O219  1  0.28744866  0.87651431  0.48507501  1
  O  O220  1  0.76256101  0.37381210  -0.01220883  1
  O  O221  1  0.76421148  0.36275497  0.51801642  1
  O  O222  1  0.77979700  0.92094498  -0.02361756  1
  O  O223  1  0.72989110  0.88029901  0.50954141  1
  O  O224  1  0.13965855  0.48637423  0.22798752  1
  O  O225  1  0.12567800  0.48859394  0.75783511  1
  O  O226  1  0.10936359  0.97939613  0.25225353  1
  O  O227  1  0.12930410  0.99303852  0.74214684  1
  O  O228  1  0.61878757  0.50890927  0.21978735  1
  O  O229  1  0.64265781  0.49188212  0.74582930  1
  O  O230  1  0.66220831  1.02213954  0.25516045  1
  O  O231  1  0.61955928  1.04606213  0.76605863  1
  O  O232  1  0.37737395  0.00865712  0.27132244  1
  O  O233  1  0.35424301  0.02385276  0.74548207  1
  O  O234  1  0.36766959  0.49115034  0.24982127  1
  O  O235  1  0.37652250  0.51594102  0.75161297  1
  O  O236  1  0.84315247  -0.02438672  0.27691159  1
  O  O237  1  0.82180861  0.01578301  0.59582572  1
  O  O238  1  0.95781925  0.46135386  0.27694041  1
  O  O239  1  0.86454370  0.50761634  0.74710607  1
  O  O240  1  0.11831083  0.38886110  0.34333573  1
  O  O241  1  0.12788167  0.37420754  0.86530488  1
  O  O242  1  0.13877000  0.86907589  0.35913390  1
  O  O243  1  0.13115345  0.86122937  0.88829940  1
  O  O244  1  0.65752537  0.36199025  0.37231685  1
  O  O245  1  0.60265025  0.35467935  0.87400571  1
  O  O246  1  0.56887424  0.91222128  0.36384817  1
  O  O247  1  0.60327549  0.88165513  0.88731326  1
  O  O248  1  0.37575402  0.12489163  0.15900725  1
  O  O249  1  0.37977374  0.14401050  0.61035875  1
  O  O250  1  0.38173859  0.59782280  0.12611037  1
  O  O251  1  0.36404422  0.61937538  0.63316787  1
  O  O252  1  0.91169178  0.07485784  0.18016506  1
  O  O253  1  0.93304910  0.12388788  0.57756953  1
  O  O254  1  0.87839714  0.62264930  0.10436610  1
  O  O255  1  0.88838427  0.62613275  0.63176865  1
  O  O256  1  0.26697485  0.25108674  0.12307115  1
  O  O257  1  0.25288047  0.25862793  0.60722417  1
  O  O258  1  0.24756632  0.75275586  0.10601946  1
  O  O259  1  0.23472598  0.72410655  0.60181524  1
  O  O260  1  0.74832923  0.27567483  0.11150070  1
  O  O261  1  0.77090385  0.23027639  0.61795427  1
  O  O262  1  0.70017494  0.79457788  0.04826249  1
  O  O263  1  0.71776781  0.75729387  0.63911533  1
  O  O264  1  0.24978873  0.25335500  0.38996869  1
  O  O265  1  0.24209559  0.26032118  0.87713094  1
  O  O266  1  0.24681414  0.71715252  0.35069092  1
  O  O267  1  0.24412183  0.74393887  0.89127004  1
  O  O268  1  0.75176364  0.24219867  0.38823208  1
  O  O269  1  0.75602416  0.24619873  0.88832760  1
  O  O270  1  0.73653410  0.72883064  0.39680922  1
  O  O271  1  0.74584867  0.78840789  0.88607162  1
  O  O272  1  0.02735913  0.11810979  -0.00257556  1
  O  O273  1  -0.01071781  0.17698045  0.56211184  1
  O  O274  1  0.01103817  0.61967291  0.00347679  1
  O  O275  1  0.00010497  0.60804338  0.52137964  1
  O  O276  1  0.52833805  0.10050496  0.02693348  1
  O  O277  1  0.50575303  0.14007438  0.50783154  1
  O  O278  1  0.49075438  0.59828787  -0.00290517  1
  O  O279  1  0.44925950  0.63507704  0.47221275  1
  O  O280  1  0.47714253  0.37940260  0.50472136  1
  O  O281  1  0.50098420  0.36770037  0.98344419  1
  O  O282  1  0.49033703  0.89128100  0.53773823  1
  O  O283  1  0.48467246  0.87555599  1.00509723  1
  O  O284  1  0.98466731  0.39031840  0.49540740  1
  O  O285  1  1.00490855  0.38581443  1.00247354  1
  O  O286  1  0.96325260  0.87448341  0.49786960  1
  O  O287  1  0.99581605  0.91302841  1.02946105  1
  O  O288  1  0.48495253  0.49788845  0.36113760  1
  O  O289  1  0.49037713  0.48736152  0.88015187  1
  O  O290  1  0.52313741  0.96228853  0.33909804  1
  O  O291  1  0.50019977  0.99914594  0.90257843  1
  O  O292  1  0.99241660  0.51292282  0.40655189  1
  O  O293  1  1.00987133  0.48833863  0.88976590  1
  O  O294  1  1.00365938  1.00313590  0.37909218  1
  O  O295  1  0.99611146  0.99733543  0.88724400  1
  O  O296  1  -0.02806894  0.03478237  0.19042501  1
  O  O297  1  0.01088430  -0.01167843  0.63503689  1
  O  O298  1  -0.00560795  0.51347203  0.10441161  1
  O  O299  1  0.00884171  0.49835859  0.62242024  1
  O  O300  1  0.49887070  -0.01756352  0.13100399  1
  O  O301  1  0.49917684  0.02847350  0.62928282  1
  O  O302  1  0.50708395  0.48425172  0.10354254  1
  O  O303  1  0.52006222  0.48500137  0.65961246  1
  O  O304  1  0.24659114  0.37537075  0.24433244  1
  O  O305  1  0.24500082  0.38207074  0.73557261  1
  O  O306  1  0.24089772  0.86590710  0.23719913  1
  O  O307  1  0.26883622  0.88731599  0.75629885  1
  O  O308  1  0.75571811  0.38551973  0.23159167  1
  O  O309  1  0.77240819  0.37908248  0.74987389  1
  O  O310  1  0.71508819  0.87483101  0.29626322  1
  O  O311  1  0.69331514  0.89243999  0.72032044  1
  O  O312  1  0.26326133  0.12226066  0.27327896  1
  O  O313  1  0.25421147  0.13200725  0.74209526  1
  O  O314  1  0.25486318  0.60027161  0.23738628  1
  O  O315  1  0.26340414  0.62944245  0.76754550  1
  O  O316  1  0.77176362  0.13959968  0.26930422  1
  O  O317  1  0.76282650  0.10300833  0.72181352  1
  O  O318  1  0.77290719  0.61661292  0.29658348  1
  O  O319  1  0.76271115  0.60981304  0.75266134  1
  O  O320  1  0.36541737  0.13803229  0.37499726  1
  O  O321  1  0.36267934  0.14454705  0.86070405  1
  O  O322  1  0.36212829  0.60465002  0.34608916  1
  O  O323  1  0.36375052  0.63426060  0.88629169  1
  O  O324  1  0.88146470  0.13280670  0.38729439  1
  O  O325  1  0.94589256  0.18036693  0.79121757  1
  O  O326  1  0.84779425  0.63037228  0.41266586  1
  O  O327  1  0.88489056  0.62060289  0.86925503  1
  O  O328  1  0.15124058  0.35534702  0.12784912  1
  O  O329  1  0.13255020  0.37211216  0.63950381  1
  O  O330  1  0.13603356  0.86869644  0.13283865  1
  O  O331  1  0.12585794  0.89703477  0.58166946  1
  O  O332  1  0.63573435  0.38276771  0.11612290  1
  O  O333  1  0.62823181  0.33275870  0.67899649  1
  O  O334  1  0.58417436  0.84492434  0.19381263  1
  O  O335  1  0.65480381  0.87457704  0.55359899  1
  O  O336  1  0.14678421  0.25423268  0.25829457  1
  O  O337  1  0.13096939  0.26793824  0.76237396  1
  O  O338  1  0.12017795  0.74621514  0.24268704  1
  O  O339  1  0.13199723  0.75292501  0.76963986  1
  O  O340  1  0.63332368  0.23176638  0.26826798  1
  O  O341  1  0.63804610  0.28031244  0.73145559  1
  O  O342  1  0.67279970  0.69280781  0.21783721  1
  O  O343  1  0.60832001  0.72622685  0.77330843  1
  O  O344  1  0.37972474  0.23801899  0.24434682  1
  O  O345  1  0.35698783  0.24557918  0.72457027  1
  O  O346  1  0.35974082  0.71603460  0.22617830  1
  O  O347  1  0.38479653  0.73185779  0.75166240  1
  O  O348  1  0.87642679  0.27125002  0.24356855  1
  O  O349  1  0.88554105  0.22140247  0.75131566  1
  O  O350  1  0.88620935  0.73266709  0.23754707  1
  O  O351  1  0.86652301  0.72725970  0.75348488  1
  O  O352  1  0.36413158  0.49032560  0.47567825  1
  O  O353  1  0.38295908  0.48084937  0.99723074  1
  O  O354  1  0.36834626  0.99121317  0.52112415  1
  O  O355  1  0.38881248  0.99274806  1.01538827  1
  O  O356  1  0.87192024  0.48503531  0.52542598  1
  O  O357  1  0.88342904  0.48628929  0.98926769  1
  O  O358  1  0.99366409  1.03086635  0.44662141  1
  O  O359  1  0.90617432  1.04885481  1.02740143  1
  O  O360  1  0.11661343  0.01330870  0.00051049  1
  O  O361  1  0.12779290  -0.03844752  0.52666006  1
  O  O362  1  0.11927148  0.50950489  -0.00225357  1
  O  O363  1  0.11776440  0.48586845  0.50212727  1
  O  O364  1  0.61082127  -0.04357965  0.02511332  1
  O  O365  1  0.63372747  0.04086982  0.51569346  1
  O  O366  1  0.60784576  0.50112552  -0.00464040  1
  O  O367  1  0.61846389  0.43881878  0.54993367  1
  O  O368  1  0.37054223  0.34964408  0.12697727  1
  O  O369  1  0.35883843  0.37498363  0.61592085  1
  O  O370  1  0.35769480  0.87124578  0.11551715  1
  O  O371  1  0.37277394  0.88542004  0.61687294  1
  O  O372  1  0.86108726  0.38866198  0.10638475  1
  O  O373  1  0.89187576  0.36374744  0.62852981  1
  O  O374  1  0.85311599  0.79926282  0.22981653  1
  O  O375  1  0.84399208  0.85359368  0.62318088  1
  O  O376  1  0.13923981  0.12725514  0.36988691  1
  O  O377  1  0.12412365  0.14241023  0.85669789  1
  O  O378  1  0.13455295  0.60228680  0.35318188  1
  O  O379  1  0.13755462  0.63300462  0.88647212  1
  O  O380  1  0.62825754  0.14559192  0.39547565  1
  O  O381  1  0.64675182  0.08410367  0.92923923  1
  O  O382  1  0.64054740  0.62399739  0.37373767  1
  O  O383  1  0.62153036  0.59923599  0.87521698  1
