# generated using pymatgen
data_VZnO4
_symmetry_space_group_name_H-M   'P 1'
_cell_length_a   16.90611507
_cell_length_b   16.90909648
_cell_length_c   16.88546658
_cell_angle_alpha   89.92898310
_cell_angle_beta   90.10440091
_cell_angle_gamma   89.66952681
_symmetry_Int_Tables_number   1
_chemical_formula_structural   VZnO4
_chemical_formula_sum   'V64 Zn64 O256'
_cell_volume   4826.90780745
_cell_formula_units_Z   64
loop_
 _symmetry_equiv_pos_site_id
 _symmetry_equiv_pos_as_xyz
  1  'x, y, z'
loop_
 _atom_site_type_symbol
 _atom_site_label
 _atom_site_symmetry_multiplicity
 _atom_site_fract_x
 _atom_site_fract_y
 _atom_site_fract_z
 _atom_site_occupancy
  V  V0  1  0.63133014  0.38186550  0.23747571  1
  V  V1  1  0.00301913  0.25874925  0.23511268  1
  V  V2  1  0.26410218  0.47457835  0.25104150  1
  V  V3  1  0.75668399  0.12354629  0.37012960  1
  V  V4  1  0.25369197  0.23823843  0.00275803  1
  V  V5  1  0.27105189  0.58955491  0.88208332  1
  V  V6  1  -0.00671989  0.62473061  0.10695684  1
  V  V7  1  0.49938170  0.61508106  0.13396443  1
  V  V8  1  0.86087337  0.13042269  0.75546787  1
  V  V9  1  0.12122787  0.12861715  0.02260741  1
  V  V10  1  0.49469168  0.38299779  0.36736149  1
  V  V11  1  0.48532609  0.24276086  0.74130272  1
  V  V12  1  0.75813156  0.49742554  0.23338181  1
  V  V13  1  0.16265662  0.74855288  0.87955695  1
  V  V14  1  0.61850543  0.62731728  0.50705389  1
  V  V15  1  0.25297255  0.03012860  0.74498173  1
  V  V16  1  0.02298142  0.76016831  0.23114182  1
  V  V17  1  0.37370025  0.63627198  0.72565173  1
  V  V18  1  0.84570139  0.50833831  0.86360669  1
  V  V19  1  0.01040368  0.37054846  0.37833261  1
  V  V20  1  0.13695284  0.24269491  0.86645157  1
  V  V21  1  0.76362984  0.75347764  0.50302090  1
  V  V22  1  0.62554403  0.63360376  -0.01901337  1
  V  V23  1  0.90026587  0.87769766  0.51406146  1
  V  V24  1  0.74335703  0.38373145  0.62212880  1
  V  V25  1  0.86993003  0.25373198  0.61598725  1
  V  V26  1  0.74036430  0.24213146  0.00163784  1
  V  V27  1  0.50939393  0.49614973  0.50985641  1
  V  V28  1  0.00375810  0.25204259  0.75658775  1
  V  V29  1  0.62187215  0.25195529  0.36698792  1
  V  V30  1  0.86995756  0.01206515  0.87347458  1
  V  V31  1  0.75215101  0.84941806  0.11762615  1
  V  V32  1  0.74979353  0.62911914  0.36392295  1
  V  V33  1  0.12191013  0.62035486  0.49045442  1
  V  V34  1  0.37473112  0.24343797  0.13365823  1
  V  V35  1  0.37366240  0.00170788  0.88492744  1
  V  V36  1  0.22848297  0.13229386  0.38037932  1
  V  V37  1  0.24010639  -0.00248086  0.25497311  1
  V  V38  1  0.50603368  0.36019326  0.88016736  1
  V  V39  1  0.11744240  0.00379662  0.60577559  1
  V  V40  1  0.38579977  0.11401916  0.26116411  1
  V  V41  1  0.12685260  0.49888563  0.10035454  1
  V  V42  1  -0.00034815  0.01159400  0.01276808  1
  V  V43  1  0.63486041  -0.01133931  0.13819573  1
  V  V44  1  0.51217825  0.49673708  -0.00084656  1
  V  V45  1  0.87844427  0.12523137  0.23392863  1
  V  V46  1  0.36969347  0.37692488  0.00523553  1
  V  V47  1  0.73578235  0.24604831  0.50327239  1
  V  V48  1  0.86648396  0.37704808  0.01031087  1
  V  V49  1  0.50786718  0.12249123  0.11950485  1
  V  V50  1  0.61565673  -0.00278715  0.63213377  1
  V  V51  1  0.24794273  0.25096134  0.51100206  1
  V  V52  1  0.50577624  0.76591442  0.25581887  1
  V  V53  1  0.37114647  0.75207061  0.11553945  1
  V  V54  1  0.00526781  0.38738851  0.87749746  1
  V  V55  1  0.25368984  0.86255850  0.61861755  1
  V  V56  1  -0.01003655  0.75213712  0.75389492  1
  V  V57  1  0.00152475  0.88402853  0.88209895  1
  V  V58  1  0.13107061  0.88670088  0.75475684  1
  V  V59  1  0.50785273  -0.01788299  0.00156682  1
  V  V60  1  0.63188403  0.37439914  0.75050359  1
  V  V61  1  0.00414619  0.12211901  0.61578552  1
  V  V62  1  0.37114851  0.38123730  0.52647054  1
  V  V63  1  0.87219419  0.49016884  0.39129645  1
  Zn  Zn64  1  0.19182722  0.19706549  0.19699754  1
  Zn  Zn65  1  0.27631428  0.23405986  0.71781767  1
  Zn  Zn66  1  0.17921443  0.67498153  0.17896761  1
  Zn  Zn67  1  0.18970222  0.68594212  0.70913480  1
  Zn  Zn68  1  0.69311867  0.18991466  0.18434338  1
  Zn  Zn69  1  0.67122097  0.20007568  0.82999295  1
  Zn  Zn70  1  0.67859816  0.67834187  0.17729850  1
  Zn  Zn71  1  0.68037830  0.69153378  0.67753496  1
  Zn  Zn72  1  0.30608777  0.30889113  0.31279709  1
  Zn  Zn73  1  0.31636184  0.35203956  0.81668005  1
  Zn  Zn74  1  0.30440807  0.81309797  0.24196958  1
  Zn  Zn75  1  0.33244328  0.82059059  0.79904719  1
  Zn  Zn76  1  0.81930054  0.31475383  0.30389171  1
  Zn  Zn77  1  0.81823818  0.31702233  0.81862387  1
  Zn  Zn78  1  0.81730857  0.81961901  0.31348285  1
  Zn  Zn79  1  0.82333028  0.81847734  0.82803125  1
  Zn  Zn80  1  0.19617887  0.42917900  0.42576955  1
  Zn  Zn81  1  0.19045034  0.42591929  0.93196444  1
  Zn  Zn82  1  0.28632024  0.92029108  0.41813275  1
  Zn  Zn83  1  0.18262337  0.96126422  0.92813727  1
  Zn  Zn84  1  0.68976464  0.43619889  0.43316133  1
  Zn  Zn85  1  0.68948497  0.42901158  0.93846270  1
  Zn  Zn86  1  0.78117772  0.94393808  0.42379390  1
  Zn  Zn87  1  0.69617334  0.95014577  0.94988691  1
  Zn  Zn88  1  0.31158788  0.05466251  0.06965647  1
  Zn  Zn89  1  0.29860113  0.04653617  0.54547602  1
  Zn  Zn90  1  0.31166867  0.56065891  0.07928752  1
  Zn  Zn91  1  0.32634576  0.57940610  0.53008354  1
  Zn  Zn92  1  0.80941662  0.06731122  0.05739227  1
  Zn  Zn93  1  0.80913341  0.06624969  0.56782931  1
  Zn  Zn94  1  0.81467055  0.56605640  0.04488915  1
  Zn  Zn95  1  0.80086604  0.56580952  0.55975935  1
  Zn  Zn96  1  0.44285015  0.43199202  0.18408661  1
  Zn  Zn97  1  0.44678514  0.45326610  0.69945745  1
  Zn  Zn98  1  0.43688850  0.93453082  0.18763548  1
  Zn  Zn99  1  0.42252865  0.93098426  0.70514122  1
  Zn  Zn100  1  0.94596317  0.44594330  0.18933535  1
  Zn  Zn101  1  0.92544418  0.42989106  0.70028404  1
  Zn  Zn102  1  0.92991613  0.93872291  0.19424376  1
  Zn  Zn103  1  0.93516583  0.93893574  0.69242327  1
  Zn  Zn104  1  0.06701984  0.08012795  0.29344777  1
  Zn  Zn105  1  0.05898320  0.07185664  0.81096570  1
  Zn  Zn106  1  0.04116195  0.57139317  0.30677675  1
  Zn  Zn107  1  0.07833450  0.57122700  0.80149296  1
  Zn  Zn108  1  0.57074003  0.06524411  0.31062814  1
  Zn  Zn109  1  0.54861405  0.06357776  0.81905194  1
  Zn  Zn110  1  0.57114055  0.56062673  0.31910044  1
  Zn  Zn111  1  0.54408314  0.55203593  0.81295666  1
  Zn  Zn112  1  0.42933812  0.20879388  0.43265749  1
  Zn  Zn113  1  0.43633642  0.17781984  0.93708570  1
  Zn  Zn114  1  0.48389383  0.71705056  0.45917175  1
  Zn  Zn115  1  0.43565945  0.68976951  0.93531109  1
  Zn  Zn116  1  0.93832964  0.19329024  0.42969612  1
  Zn  Zn117  1  0.93435048  0.19217951  0.94652611  1
  Zn  Zn118  1  0.92845685  0.68553917  0.42930037  1
  Zn  Zn119  1  0.95357286  0.66347255  0.90889427  1
  Zn  Zn120  1  0.06211954  0.32135903  0.06073914  1
  Zn  Zn121  1  0.05316146  0.31317983  0.55772397  1
  Zn  Zn122  1  0.05853294  0.80628811  0.04635756  1
  Zn  Zn123  1  0.06884068  0.80782096  0.57576478  1
  Zn  Zn124  1  0.56522207  0.30255511  0.06146780  1
  Zn  Zn125  1  0.55818014  0.31181284  0.56588637  1
  Zn  Zn126  1  0.56564556  0.80330771  0.06935226  1
  Zn  Zn127  1  0.61401428  0.85058375  0.51544406  1
  O  O128  1  0.12588806  0.13022377  0.12110688  1
  O  O129  1  0.10752382  0.11689062  0.62014724  1
  O  O130  1  0.11645825  0.61184756  0.11135751  1
  O  O131  1  0.11063027  0.58167797  0.58521727  1
  O  O132  1  0.61087210  0.11755969  0.13333715  1
  O  O133  1  0.58731034  0.09042104  0.60644771  1
  O  O134  1  0.60206473  0.62803853  0.10145842  1
  O  O135  1  0.63844656  0.61302713  0.60473120  1
  O  O136  1  0.39637582  0.36444686  0.36319146  1
  O  O137  1  0.38775012  0.36668590  0.89897679  1
  O  O138  1  0.34981453  0.80213445  0.42227862  1
  O  O139  1  0.39508165  0.91439097  0.82041064  1
  O  O140  1  0.86608534  0.38732500  0.38105754  1
  O  O141  1  0.89232819  0.39061087  0.87012056  1
  O  O142  1  0.86699918  0.87357146  0.40291077  1
  O  O143  1  0.89130737  0.90140027  0.86866031  1
  O  O144  1  0.25057426  0.02830424  0.37182530  1
  O  O145  1  0.26390204  0.00046377  0.85777432  1
  O  O146  1  0.26736748  0.47876373  0.35444232  1
  O  O147  1  0.26011371  0.48840555  0.86446340  1
  O  O148  1  0.72620509  0.02757715  0.37975085  1
  O  O149  1  0.77190779  0.00231867  0.88236777  1
  O  O150  1  0.75807730  0.50631903  0.37213977  1
  O  O151  1  0.74696845  0.49005483  0.86030056  1
  O  O152  1  0.23184779  0.50202272  0.13426863  1
  O  O153  1  0.23953805  0.49372052  0.60538711  1
  O  O154  1  0.26037325  0.99760616  0.15489957  1
  O  O155  1  0.22889762  1.00410273  0.63025753  1
  O  O156  1  0.75637597  0.51005738  0.13584400  1
  O  O157  1  0.75326070  0.48181759  0.62118620  1
  O  O158  1  0.73213165  1.00947868  0.11929175  1
  O  O159  1  0.71613934  1.02081666  0.63880254  1
  O  O160  1  -0.01452135  0.36488531  0.26088655  1
  O  O161  1  -0.00110563  0.35861423  0.75910090  1
  O  O162  1  0.00969362  0.86183984  0.22112701  1
  O  O163  1  0.01104369  0.87534337  0.76232251  1
  O  O164  1  0.51655726  0.38292778  0.26003206  1
  O  O165  1  0.49162210  0.37013777  0.77147542  1
  O  O166  1  0.50085764  0.86771573  0.25410384  1
  O  O167  1  0.51902790  0.82868287  0.76578107  1
  O  O168  1  0.49151025  0.11734291  0.23824579  1
  O  O169  1  0.49992191  0.14308005  0.75439008  1
  O  O170  1  0.50924592  0.60724489  0.23374015  1
  O  O171  1  0.44878310  0.55972048  0.74649034  1
  O  O172  1  0.98722429  0.14322592  0.25179420  1
  O  O173  1  0.99190877  0.13825292  0.73895175  1
  O  O174  1  1.00605982  0.64400857  0.22747157  1
  O  O175  1  0.99987981  0.65687824  0.79902172  1
  O  O176  1  0.36728664  0.24210892  0.00884224  1
  O  O177  1  0.37554502  0.27662456  0.50246754  1
  O  O178  1  0.37209762  0.74723774  0.01509936  1
  O  O179  1  0.38197369  0.77622250  0.48616595  1
  O  O180  1  0.86752791  0.26995190  -0.00865858  1
  O  O181  1  0.86902919  0.25111358  0.51396044  1
  O  O182  1  0.84618556  0.74226607  -0.02223502  1
  O  O183  1  0.86888556  0.75781510  0.50400791  1
  O  O184  1  0.14894069  0.26954014  0.51743566  1
  O  O185  1  0.13312110  0.24155665  1.00119794  1
  O  O186  1  0.12034831  0.72093176  0.51737754  1
  O  O187  1  0.12938627  0.75595507  0.97343085  1
  O  O188  1  0.63101045  0.25207711  0.49354038  1
  O  O189  1  0.63658943  0.24873925  0.99470656  1
  O  O190  1  0.59368628  0.73286489  0.50811953  1
  O  O191  1  0.60807841  0.73720890  0.98387902  1
  O  O192  1  0.49029135  0.22987874  0.11731139  1
  O  O193  1  0.49204255  0.26080015  0.64150184  1
  O  O194  1  0.48986126  0.73697360  0.12972935  1
  O  O195  1  0.55008504  0.77766356  0.71921945  1
  O  O196  1  0.99632793  0.26233120  0.13433704  1
  O  O197  1  0.98981657  0.24760498  0.63293338  1
  O  O198  1  1.00999640  0.74152166  0.12207034  1
  O  O199  1  1.01440246  0.74556514  0.65701850  1
  O  O200  1  -0.00326184  0.26464542  0.36732807  1
  O  O201  1  0.00144268  0.25320926  0.86453889  1
  O  O202  1  -0.02779797  0.75309855  0.34083768  1
  O  O203  1  -0.01059362  0.78149174  0.88422481  1
  O  O204  1  0.51738903  0.26234702  0.38121538  1
  O  O205  1  0.49989167  0.25693344  0.88289907  1
  O  O206  1  0.50353142  0.73536093  0.35281825  1
  O  O207  1  0.51339984  0.76260229  0.89914390  1
  O  O208  1  0.25267981  0.13641285  0.48777553  1
  O  O209  1  0.23698598  0.12778188  1.00792371  1
  O  O210  1  0.22592167  0.62659111  0.49111350  1
  O  O211  1  0.26367537  0.60127985  0.98130364  1
  O  O212  1  0.75157869  0.14122198  0.49519148  1
  O  O213  1  0.76243443  0.14272105  0.98736638  1
  O  O214  1  0.74065274  0.64134693  0.49202708  1
  O  O215  1  0.72335327  0.61800435  0.99816398  1
  O  O216  1  0.26469924  0.35799182  -0.00033991  1
  O  O217  1  0.26526943  0.37200540  0.50109199  1
  O  O218  1  0.22327580  0.88638976  0.02874085  1
  O  O219  1  0.23764003  0.87446179  0.51848715  1
  O  O220  1  0.75975919  0.36949593  0.00477852  1
  O  O221  1  0.74072609  0.36350600  0.51458752  1
  O  O222  1  0.75253217  0.87965284  0.01848723  1
  O  O223  1  0.72258935  0.84755056  0.47325899  1
  O  O224  1  0.14126778  0.52333489  0.25603743  1
  O  O225  1  0.12284944  0.59585996  0.70159084  1
  O  O226  1  0.13932366  1.00360271  0.25453403  1
  O  O227  1  0.13217478  1.00048121  0.75310907  1
  O  O228  1  0.63908541  0.48769490  0.25318840  1
  O  O229  1  0.60804911  0.47291284  0.75121592  1
  O  O230  1  0.62456993  0.99722098  0.23754860  1
  O  O231  1  0.61049670  1.00023313  0.73703298  1
  O  O232  1  0.37458739  0.01220164  0.25527129  1
  O  O233  1  0.35018644  0.02481402  0.72020202  1
  O  O234  1  0.36065336  0.49571938  0.22731078  1
  O  O235  1  0.23015772  0.48270476  0.67667528  1
  O  O236  1  0.88779204  0.02438499  0.25618248  1
  O  O237  1  0.87714990  0.01838666  0.75836894  1
  O  O238  1  0.85871223  0.49511147  0.25679950  1
  O  O239  1  0.88163655  0.50568951  0.76608401  1
  O  O240  1  0.10964692  0.38169176  0.36988816  1
  O  O241  1  0.11318928  0.35082232  0.88540605  1
  O  O242  1  0.03214400  0.92401129  0.36279906  1
  O  O243  1  0.11873289  0.88274503  0.87122328  1
  O  O244  1  0.62060908  0.36753358  0.36838985  1
  O  O245  1  0.61107164  0.37369285  0.87046041  1
  O  O246  1  0.54712418  0.93088754  0.39433082  1
  O  O247  1  0.66207672  0.86625363  0.86061926  1
  O  O248  1  0.38297365  0.12727622  0.13487601  1
  O  O249  1  0.41055172  0.11377904  0.57891327  1
  O  O250  1  0.39263647  0.63049167  0.11759817  1
  O  O251  1  0.36538458  0.62916989  0.62382894  1
  O  O252  1  0.87126577  0.12506363  0.13466006  1
  O  O253  1  0.87574793  0.13586204  0.63671482  1
  O  O254  1  0.89157230  0.61891117  0.11103814  1
  O  O255  1  0.83542065  0.62699863  0.66343770  1
  O  O256  1  0.26645255  0.24093423  0.11850684  1
  O  O257  1  0.27368999  0.22918363  0.60472650  1
  O  O258  1  0.27014185  0.73656264  0.15281717  1
  O  O259  1  0.23107592  0.76477144  0.63825730  1
  O  O260  1  0.74743537  0.24744535  0.10618890  1
  O  O261  1  0.75886104  0.25140585  0.61354106  1
  O  O262  1  0.74336682  0.74939553  0.11562064  1
  O  O263  1  0.73812251  0.75514011  0.60069808  1
  O  O264  1  0.25899830  0.23936327  0.38807422  1
  O  O265  1  0.23932838  0.24574433  0.88819189  1
  O  O266  1  0.32970775  0.65326278  0.35574678  1
  O  O267  1  0.25805653  0.77813406  0.87696046  1
  O  O268  1  0.74200424  0.25007479  0.38911183  1
  O  O269  1  0.74517769  0.26529409  0.88388117  1
  O  O270  1  0.75902599  0.73221795  0.37400834  1
  O  O271  1  0.79032956  0.75885902  0.93149371  1
  O  O272  1  0.01074923  0.12467485  0.00490474  1
  O  O273  1  -0.01437503  0.13280115  0.51787014  1
  O  O274  1  0.00370839  0.63526422  0.00492492  1
  O  O275  1  0.01339576  0.62942354  0.48664210  1
  O  O276  1  0.49026380  0.10714769  0.01604753  1
  O  O277  1  0.45575227  0.12094707  0.52006688  1
  O  O278  1  0.50048080  0.60381719  -0.00296834  1
  O  O279  1  0.50842391  0.60706807  0.49742941  1
  O  O280  1  0.49406512  0.38119645  0.49143155  1
  O  O281  1  0.49549206  0.37536568  0.99887145  1
  O  O282  1  0.51710467  0.88129762  0.44868461  1
  O  O283  1  0.49791114  0.88430137  1.01560543  1
  O  O284  1  0.99583344  0.37231800  0.48043869  1
  O  O285  1  0.98995296  0.37214773  0.98131166  1
  O  O286  1  0.99995930  0.86787076  0.50618295  1
  O  O287  1  1.01186356  0.89774030  0.99029097  1
  O  O288  1  0.50395334  0.48625243  0.38179115  1
  O  O289  1  0.49308404  0.47896486  0.89549660  1
  O  O290  1  0.50675850  0.99848500  0.38572604  1
  O  O291  1  0.49524965  0.99605708  0.89608249  1
  O  O292  1  0.97850556  0.49099126  0.36165248  1
  O  O293  1  1.03130812  0.48290606  0.85735755  1
  O  O294  1  1.01136555  0.99181010  0.38032769  1
  O  O295  1  0.99829928  0.99968830  0.88034551  1
  O  O296  1  -0.00708997  -0.00153443  0.10951496  1
  O  O297  1  0.00509705  0.01322688  0.63154465  1
  O  O298  1  0.01259012  0.51579137  0.12780153  1
  O  O299  1  0.02225450  0.46826301  0.63449016  1
  O  O300  1  0.50711920  0.00329323  0.12081782  1
  O  O301  1  0.51269166  -0.03090181  0.64357491  1
  O  O302  1  0.49678317  0.50435302  0.11145517  1
  O  O303  1  0.51109485  0.48562410  0.60793128  1
  O  O304  1  0.25201563  0.37348819  0.23807404  1
  O  O305  1  0.23505705  0.33632553  0.74855866  1
  O  O306  1  0.26289410  0.89872102  0.29999596  1
  O  O307  1  0.23866164  0.88866020  0.74081247  1
  O  O308  1  0.74232408  0.38494046  0.24771605  1
  O  O309  1  0.73795464  0.36673262  0.74079043  1
  O  O310  1  0.76151719  0.87102777  0.23048545  1
  O  O311  1  0.71057755  0.84651383  0.80496918  1
  O  O312  1  0.25988075  0.12314935  0.26328459  1
  O  O313  1  0.23684267  0.12776588  0.74749126  1
  O  O314  1  0.19932370  0.58102549  0.25943344  1
  O  O315  1  0.27534317  0.61705623  0.75528936  1
  O  O316  1  0.76276795  0.13704018  0.26268201  1
  O  O317  1  0.76413726  0.14255207  0.75660380  1
  O  O318  1  0.73724949  0.61189611  0.25847607  1
  O  O319  1  0.78213595  0.63433144  0.71732837  1
  O  O320  1  0.39019908  0.13197738  0.36100149  1
  O  O321  1  0.38489319  0.10044956  0.86844823  1
  O  O322  1  0.37041103  0.62929102  0.41246859  1
  O  O323  1  0.36880446  0.62279333  0.87003324  1
  O  O324  1  0.85836134  0.12623011  0.38129682  1
  O  O325  1  0.88600690  0.12316168  0.86303199  1
  O  O326  1  0.85792182  0.61082810  0.37744390  1
  O  O327  1  0.85834635  0.60733643  0.88563319  1
  O  O328  1  0.11293024  0.39938191  0.12489602  1
  O  O329  1  0.08014947  0.42059094  0.62504687  1
  O  O330  1  0.17450800  0.87039407  0.08299544  1
  O  O331  1  0.12227733  0.89162451  0.63675965  1
  O  O332  1  0.61582973  0.36988353  0.14026592  1
  O  O333  1  0.63552934  0.36674009  0.63596656  1
  O  O334  1  0.63798016  0.88139070  0.12578589  1
  O  O335  1  0.63665534  0.88916136  0.62838525  1
  O  O336  1  0.10493659  0.24736927  0.24760949  1
  O  O337  1  0.11125320  0.24122200  0.76117076  1
  O  O338  1  0.12307890  0.75281545  0.24808996  1
  O  O339  1  0.12152987  0.76768061  0.77552839  1
  O  O340  1  0.63687607  0.26543377  0.26128842  1
  O  O341  1  0.60244541  0.26763674  0.75858217  1
  O  O342  1  0.60447560  0.74361258  0.23260661  1
  O  O343  1  0.60352451  0.72466036  0.75605082  1
  O  O344  1  0.37263134  0.23790402  0.23709552  1
  O  O345  1  0.38312054  0.25400371  0.76484549  1
  O  O346  1  0.39652491  0.74228345  0.23950078  1
  O  O347  1  0.38968057  0.73407202  0.74859787  1
  O  O348  1  0.88302708  0.23865743  0.25331512  1
  O  O349  1  0.88395865  0.24405812  0.74566387  1
  O  O350  1  0.91250915  0.75273131  0.28063069  1
  O  O351  1  0.88886007  0.76712379  0.75471975  1
  O  O352  1  0.38932887  0.48765286  0.49899368  1
  O  O353  1  0.37646564  0.47626776  1.01716565  1
  O  O354  1  0.35883672  0.97778554  0.48285205  1
  O  O355  1  0.37166828  0.99129437  0.98955779  1
  O  O356  1  0.87120692  0.50555380  0.49245212  1
  O  O357  1  0.86506001  0.48428442  0.97769030  1
  O  O358  1  0.85426644  0.97898684  0.51259549  1
  O  O359  1  0.89256671  1.01963298  0.98577115  1
  O  O360  1  0.11568741  0.02111184  -0.00093849  1
  O  O361  1  0.11907819  -0.00164236  0.51073998  1
  O  O362  1  0.13099353  0.49483423  -0.00009921  1
  O  O363  1  0.12767916  0.51704702  0.46687761  1
  O  O364  1  0.61146264  -0.00449967  0.01165329  1
  O  O365  1  0.61487808  -0.02248420  0.52624979  1
  O  O366  1  0.61331419  0.49432966  0.00076144  1
  O  O367  1  0.61616926  0.50450843  0.49358305  1
  O  O368  1  0.39032983  0.34959845  0.11489494  1
  O  O369  1  0.37561678  0.38993757  0.62614744  1
  O  O370  1  0.36997226  0.85615973  0.13637633  1
  O  O371  1  0.35391809  0.87326544  0.63431530  1
  O  O372  1  0.88505374  0.38949475  0.10691725  1
  O  O373  1  0.85987408  0.36022944  0.63589390  1
  O  O374  1  0.85352947  0.87494342  0.13830993  1
  O  O375  1  0.88475269  0.87116135  0.61613963  1
  O  O376  1  0.12939367  0.13467182  0.37567998  1
  O  O377  1  0.11717673  0.14251437  0.88678979  1
  O  O378  1  0.11168760  0.63252962  0.38466698  1
  O  O379  1  0.16810617  0.64152956  0.86201740  1
  O  O380  1  0.63282995  0.14663645  0.36462483  1
  O  O381  1  0.63903144  0.10126823  0.86793333  1
  O  O382  1  0.64145100  0.61885883  0.38987634  1
  O  O383  1  0.60929823  0.61329430  0.88158572  1
