# generated using pymatgen
data_VZnO4
_symmetry_space_group_name_H-M   'P 1'
_cell_length_a   17.08086355
_cell_length_b   16.84693720
_cell_length_c   16.88650843
_cell_angle_alpha   89.33880753
_cell_angle_beta   89.81640319
_cell_angle_gamma   89.54394324
_symmetry_Int_Tables_number   1
_chemical_formula_structural   VZnO4
_chemical_formula_sum   'V64 Zn64 O256'
_cell_volume   4858.76462753
_cell_formula_units_Z   64
loop_
 _symmetry_equiv_pos_site_id
 _symmetry_equiv_pos_as_xyz
  1  'x, y, z'
loop_
 _atom_site_type_symbol
 _atom_site_label
 _atom_site_symmetry_multiplicity
 _atom_site_fract_x
 _atom_site_fract_y
 _atom_site_fract_z
 _atom_site_occupancy
  V  V0  1  -0.00845805  0.87166817  0.38038154  1
  V  V1  1  0.26668156  0.73508329  0.49142489  1
  V  V2  1  0.31851494  0.23644402  0.12843153  1
  V  V3  1  0.49767520  0.73462847  0.75032663  1
  V  V4  1  0.33549913  0.36897246  -0.02276756  1
  V  V5  1  0.00557383  0.36508149  0.39399582  1
  V  V6  1  0.64435547  0.63875549  0.50546957  1
  V  V7  1  0.53421519  0.38107372  0.86237090  1
  V  V8  1  0.61892390  0.87966012  0.24230479  1
  V  V9  1  0.37419159  0.87705183  -0.00845168  1
  V  V10  1  -0.01457868  0.23461101  0.73631439  1
  V  V11  1  -0.01213121  0.74003524  0.73951786  1
  V  V12  1  0.49873229  0.88812055  0.38355226  1
  V  V13  1  0.87448609  0.50134042  0.89432086  1
  V  V14  1  0.75262148  0.36165923  0.62750717  1
  V  V15  1  0.86833668  0.86367418  -0.00363067  1
  V  V16  1  0.63797149  0.86703021  0.75162262  1
  V  V17  1  0.51666926  0.37562320  0.37068381  1
  V  V18  1  0.38678368  0.87326785  0.52964543  1
  V  V19  1  -0.00488884  0.26155359  0.25914140  1
  V  V20  1  0.76696925  0.00630968  0.24562396  1
  V  V21  1  0.09371813  0.62246754  0.00263538  1
  V  V22  1  0.87794488  0.51063576  0.38466419  1
  V  V23  1  0.12435803  0.85019234  0.25393389  1
  V  V24  1  0.12191536  0.11691747  0.00134395  1
  V  V25  1  0.26032414  0.35843554  0.63980189  1
  V  V26  1  0.25486787  0.12085923  0.87194752  1
  V  V27  1  0.59030978  0.12312383  0.49179441  1
  V  V28  1  0.11928065  0.24366002  0.86934434  1
  V  V29  1  -0.00362560  0.87942443  0.86326502  1
  V  V30  1  0.62208949  0.02306516  0.63960890  1
  V  V31  1  0.13570081  0.01871624  0.62562429  1
  V  V32  1  0.11314320  0.50294017  0.59493715  1
  V  V33  1  0.36031525  0.61904156  0.77085044  1
  V  V34  1  0.50931584  0.51341358  0.50104875  1
  V  V35  1  0.76371381  0.51192511  0.25471207  1
  V  V36  1  0.09426244  0.48929814  0.11799735  1
  V  V37  1  0.86824554  0.35293122  0.50261394  1
  V  V38  1  0.77421217  0.12249077  0.37658334  1
  V  V39  1  0.76563618  0.86407243  0.61616486  1
  V  V40  1  0.75815013  0.86324967  0.12969964  1
  V  V41  1  -0.01328009  0.37306775  0.88732799  1
  V  V42  1  0.24069270  0.87830341  0.12025974  1
  V  V43  1  0.49589733  0.02132147  0.01017023  1
  V  V44  1  0.63005538  0.25144861  0.36624340  1
  V  V45  1  0.26465969  -0.00956718  0.75709069  1
  V  V46  1  0.76928392  0.50733296  0.74460074  1
  V  V47  1  0.63700062  0.75404249  0.37269981  1
  V  V48  1  0.86980360  0.24908033  0.12212035  1
  V  V49  1  0.37173738  0.52395544  0.37795263  1
  V  V50  1  0.62696994  0.50685681  0.12382829  1
  V  V51  1  0.75550857  0.37165706  0.12751577  1
  V  V52  1  0.38055816  0.36880993  0.49653961  1
  V  V53  1  -0.01028260  0.11107969  0.13780261  1
  V  V54  1  0.12498277  0.74579170  0.86779586  1
  V  V55  1  0.75259777  0.64697882  0.87675061  1
  V  V56  1  0.62274435  0.65490310  0.00127830  1
  V  V57  1  0.62678815  0.50419643  0.63361547  1
  V  V58  1  0.10893324  0.39096635  0.74844015  1
  V  V59  1  0.25217342  0.50040061  0.23403776  1
  V  V60  1  -0.01227670  0.00119947  -0.00858939  1
  V  V61  1  0.24693991  -0.00016395  0.26167317  1
  V  V62  1  0.25271712  0.73089187  0.00193739  1
  V  V63  1  0.24061145  0.85720960  0.64012463  1
  Zn  Zn64  1  0.16751663  0.17087051  0.19863360  1
  Zn  Zn65  1  0.25309853  0.17356925  0.65921785  1
  Zn  Zn66  1  0.18444174  0.67574925  0.18009487  1
  Zn  Zn67  1  0.18477072  0.67006387  0.69319785  1
  Zn  Zn68  1  0.67917396  0.18225672  0.19204462  1
  Zn  Zn69  1  0.73045699  0.15797896  0.59112035  1
  Zn  Zn70  1  0.69411677  0.68865726  0.18874022  1
  Zn  Zn71  1  0.69565651  0.68940823  0.68543105  1
  Zn  Zn72  1  0.31864774  0.33806855  0.30764403  1
  Zn  Zn73  1  0.29812096  0.30496204  0.80262255  1
  Zn  Zn74  1  0.29330128  0.85088475  0.34174301  1
  Zn  Zn75  1  0.31641062  0.80107828  0.81488976  1
  Zn  Zn76  1  0.81380928  0.31010597  0.30902430  1
  Zn  Zn77  1  0.81856451  0.31952835  0.80090749  1
  Zn  Zn78  1  0.81144969  0.83076225  0.33245282  1
  Zn  Zn79  1  0.81994184  0.82875528  0.80071168  1
  Zn  Zn80  1  0.19922354  0.43652727  0.41798050  1
  Zn  Zn81  1  0.16875810  0.44314760  0.93342870  1
  Zn  Zn82  1  0.15195357  0.95004835  0.42636964  1
  Zn  Zn83  1  0.17932659  0.93404961  0.93576645  1
  Zn  Zn84  1  0.69556412  0.44116264  0.44251465  1
  Zn  Zn85  1  0.69561192  0.43415130  0.93892378  1
  Zn  Zn86  1  0.67888302  0.94724793  0.43117996  1
  Zn  Zn87  1  0.68938242  0.94923569  0.94651877  1
  Zn  Zn88  1  0.30847738  0.05216271  0.06595819  1
  Zn  Zn89  1  0.28553051  0.03835449  0.53188609  1
  Zn  Zn90  1  0.31729038  0.54675997  -0.05949064  1
  Zn  Zn91  1  0.30515369  0.54184212  0.57423228  1
  Zn  Zn92  1  0.82051600  0.04989456  0.07098766  1
  Zn  Zn93  1  0.79443673  0.01034565  0.53291539  1
  Zn  Zn94  1  0.77727769  0.55365557  0.04664699  1
  Zn  Zn95  1  0.81575040  0.55669480  0.55508371  1
  Zn  Zn96  1  0.45197953  0.47052177  0.20239438  1
  Zn  Zn97  1  0.44994214  0.41679630  0.68247369  1
  Zn  Zn98  1  0.42312994  0.92938057  0.18116813  1
  Zn  Zn99  1  0.44948021  0.94940249  0.69255688  1
  Zn  Zn100  1  0.92734642  0.43312608  0.19430358  1
  Zn  Zn101  1  0.94549730  0.43771208  0.67302584  1
  Zn  Zn102  1  0.93917171  0.92069006  0.18494205  1
  Zn  Zn103  1  0.97426489  0.90021400  0.64492682  1
  Zn  Zn104  1  0.04721595  0.01341738  0.29544625  1
  Zn  Zn105  1  0.06891507  0.05876295  0.79854149  1
  Zn  Zn106  1  0.06649238  0.51566069  0.30765388  1
  Zn  Zn107  1  0.04711885  0.56889168  0.81557919  1
  Zn  Zn108  1  0.56925573  0.06491123  0.29561346  1
  Zn  Zn109  1  0.55767567  -0.01163510  0.82851477  1
  Zn  Zn110  1  0.58947636  0.56205434  0.32147801  1
  Zn  Zn111  1  0.57184186  0.56572393  0.82405100  1
  Zn  Zn112  1  0.41874910  0.17854002  0.56478791  1
  Zn  Zn113  1  0.42598101  0.19788170  0.96537703  1
  Zn  Zn114  1  0.45288476  0.70140943  0.43775839  1
  Zn  Zn115  1  0.44715884  0.70141548  0.93050108  1
  Zn  Zn116  1  0.93870252  0.18025261  0.44613437  1
  Zn  Zn117  1  0.93315077  0.19383799  0.93850226  1
  Zn  Zn118  1  0.95833395  0.69729089  0.43160473  1
  Zn  Zn119  1  0.93008797  0.69044105  0.92559481  1
  Zn  Zn120  1  0.06187858  0.29845538  0.06554820  1
  Zn  Zn121  1  0.08108673  0.30025750  0.57084026  1
  Zn  Zn122  1  0.06293785  0.81112079  0.05834314  1
  Zn  Zn123  1  0.08064706  0.78780400  0.55448577  1
  Zn  Zn124  1  0.57690167  0.33766148  0.05724706  1
  Zn  Zn125  1  0.57629085  0.31508549  0.55137009  1
  Zn  Zn126  1  0.57711095  0.85770456  0.03979749  1
  Zn  Zn127  1  0.57036996  0.82654855  0.57237120  1
  O  O128  1  0.09844093  0.12480739  0.10704069  1
  O  O129  1  0.14955278  0.11915241  0.63109097  1
  O  O130  1  0.11818314  0.61408898  0.10557127  1
  O  O131  1  0.14376636  0.59625247  0.62278633  1
  O  O132  1  0.64221996  0.17716065  0.05910707  1
  O  O133  1  0.61486788  0.12986963  0.60261593  1
  O  O134  1  0.64124338  0.62389576  0.10982047  1
  O  O135  1  0.63380143  0.61567025  0.61732688  1
  O  O136  1  0.40158762  0.39359888  0.38207427  1
  O  O137  1  0.36137200  0.35203602  0.87903718  1
  O  O138  1  0.40530749  0.86853401  0.35696967  1
  O  O139  1  0.36199849  0.87168919  0.89121465  1
  O  O140  1  0.87595254  0.37072774  0.39255000  1
  O  O141  1  0.87919585  0.38595501  0.87370831  1
  O  O142  1  0.89440307  0.89130754  0.38515496  1
  O  O143  1  0.88546077  0.87579193  0.88409976  1
  O  O144  1  0.24814725  -0.03865169  0.36242843  1
  O  O145  1  0.24115618  0.00880957  0.86908354  1
  O  O146  1  0.27731650  0.53478352  0.39996006  1
  O  O147  1  0.24242307  0.49927223  0.87309020  1
  O  O148  1  0.75001234  0.01273311  0.36251813  1
  O  O149  1  0.72577129  0.06499667  0.92864108  1
  O  O150  1  0.76306624  0.49945925  0.36652039  1
  O  O151  1  0.76609151  0.49547421  0.86113207  1
  O  O152  1  0.26554995  0.47046479  0.14301567  1
  O  O153  1  0.23301955  0.46307996  0.61624563  1
  O  O154  1  0.23910578  0.98232846  0.12945263  1
  O  O155  1  0.25036052  0.98095137  0.64551880  1
  O  O156  1  0.76497344  0.49088839  0.14006694  1
  O  O157  1  0.74821269  0.50357733  0.63413338  1
  O  O158  1  0.75029086  0.99336003  0.13891789  1
  O  O159  1  0.73654804  1.04280342  0.62573353  1
  O  O160  1  -0.00095390  0.36518025  0.26231217  1
  O  O161  1  -0.00079391  0.36940783  0.75726590  1
  O  O162  1  0.01366209  0.88952150  0.26387594  1
  O  O163  1  -0.00711820  0.88170835  0.76343428  1
  O  O164  1  0.51792461  0.40488477  0.27480829  1
  O  O165  1  0.50172782  0.36417167  0.76651058  1
  O  O166  1  0.51896870  0.87885651  0.24095977  1
  O  O167  1  0.53554245  0.89744364  0.75383563  1
  O  O168  1  0.58348483  0.12443331  0.20234580  1
  O  O169  1  0.47553758  0.17163039  0.72337472  1
  O  O170  1  0.52019314  0.63968165  0.24951566  1
  O  O171  1  0.51377340  0.63362409  0.75152710  1
  O  O172  1  0.99920669  0.09972495  0.23757342  1
  O  O173  1  0.99355869  0.13510939  0.76221802  1
  O  O174  1  0.98915422  0.69495389  0.16201739  1
  O  O175  1  0.99889491  0.63989445  0.73917513  1
  O  O176  1  0.36323075  0.27464122  0.03367786  1
  O  O177  1  0.39202995  0.27026388  0.49477008  1
  O  O178  1  0.35348722  0.74936925  -0.01307121  1
  O  O179  1  0.38429233  0.76909037  0.49856796  1
  O  O180  1  0.87400463  0.24476337  0.02206868  1
  O  O181  1  0.87047560  0.25282478  0.50704495  1
  O  O182  1  0.87324330  0.76485281  -0.00592774  1
  O  O183  1  0.90400331  0.70028525  0.54304063  1
  O  O184  1  0.10841263  0.20959888  0.48592186  1
  O  O185  1  0.10336740  0.22868433  0.98293853  1
  O  O186  1  0.16790496  0.73363422  0.51407957  1
  O  O187  1  0.12497719  0.73447839  0.99326047  1
  O  O188  1  0.62585263  0.23054269  0.49016375  1
  O  O189  1  0.63284018  0.23682489  1.01300639  1
  O  O190  1  0.62368241  0.74199472  0.50623645  1
  O  O191  1  0.62754141  0.75461912  1.00797597  1
  O  O192  1  0.49254586  0.31563660  0.14162274  1
  O  O193  1  0.49351645  0.25746219  0.61989921  1
  O  O194  1  0.39691897  0.71658438  0.15712387  1
  O  O195  1  0.51004878  0.77332192  0.65477728  1
  O  O196  1  0.98796832  0.23586402  0.13633289  1
  O  O197  1  1.00902450  0.24323978  0.63789328  1
  O  O198  1  0.97426298  0.76707373  0.12296469  1
  O  O199  1  1.00900382  0.78193173  0.64319115  1
  O  O200  1  -0.01461661  0.25673164  0.36895927  1
  O  O201  1  -0.00675027  0.26065859  0.86648366  1
  O  O202  1  -0.03829996  0.75956305  0.32730775  1
  O  O203  1  0.00106868  0.75846690  0.86014815  1
  O  O204  1  0.51757202  0.27142684  0.37012766  1
  O  O205  1  0.50388546  0.27892677  0.91893750  1
  O  O206  1  0.52632510  0.77100659  0.38227592  1
  O  O207  1  0.50068488  0.76449735  0.84861233  1
  O  O208  1  0.24889691  0.13262255  0.42501066  1
  O  O209  1  0.22417153  0.10842011  0.99325128  1
  O  O210  1  0.29715252  0.64215018  0.52353216  1
  O  O211  1  0.24951006  0.63048961  0.99543317  1
  O  O212  1  0.76191559  0.11667241  0.48138460  1
  O  O213  1  0.74784949  0.10498537  0.98951820  1
  O  O214  1  0.74247673  0.62889203  0.50273272  1
  O  O215  1  0.75223241  0.64447698  0.98405884  1
  O  O216  1  0.23681247  0.36630560  -0.01344375  1
  O  O217  1  0.28338267  0.38307391  0.47788284  1
  O  O218  1  0.24692116  0.86924222  0.00615280  1
  O  O219  1  0.27164395  0.84699757  0.53363377  1
  O  O220  1  0.75377706  0.37674778  0.02542618  1
  O  O221  1  0.76109996  0.37291960  0.51247754  1
  O  O222  1  0.76173141  0.88497342  0.01052847  1
  O  O223  1  0.74943303  0.90409200  0.51602656  1
  O  O224  1  0.13164556  0.50397691  0.22073612  1
  O  O225  1  0.10939927  0.49000280  0.76205745  1
  O  O226  1  0.14074985  0.97056191  0.24821910  1
  O  O227  1  0.14492617  1.00071625  0.73893888  1
  O  O228  1  0.64705382  0.51452875  0.23529619  1
  O  O229  1  0.63522586  0.50492338  0.73543493  1
  O  O230  1  0.64469259  0.97905184  0.25219000  1
  O  O231  1  0.62631523  1.02927030  0.74121894  1
  O  O232  1  0.34542928  -0.01458825  0.24124471  1
  O  O233  1  0.36394109  -0.00306963  0.75349775  1
  O  O234  1  0.36449501  0.49734662  0.26956916  1
  O  O235  1  0.38783801  0.51603414  0.73010627  1
  O  O236  1  0.86520412  -0.00979791  0.24767250  1
  O  O237  1  0.82387912  0.03654615  0.80234985  1
  O  O238  1  0.87194508  0.49983174  0.26869739  1
  O  O239  1  0.86829880  0.50625731  0.73954506  1
  O  O240  1  0.10295713  0.36864546  0.39282009  1
  O  O241  1  0.10389237  0.36522629  0.87027876  1
  O  O242  1  0.12496281  0.84868888  0.35766252  1
  O  O243  1  0.10411724  0.85780809  0.88555144  1
  O  O244  1  0.62744307  0.36295434  0.39369889  1
  O  O245  1  0.63491947  0.36879880  0.87033122  1
  O  O246  1  0.62036794  0.87315463  0.36462457  1
  O  O247  1  0.65652321  0.90216840  0.84818647  1
  O  O248  1  0.34596224  0.13853141  0.12664292  1
  O  O249  1  0.32748661  0.12406992  0.58968928  1
  O  O250  1  0.46764060  0.60464926  0.21056188  1
  O  O251  1  0.38187653  0.57578756  0.66624534  1
  O  O252  1  0.88437606  0.12950207  0.12487911  1
  O  O253  1  0.84827727  0.05049113  0.73530774  1
  O  O254  1  0.92950653  0.65528700  0.18024981  1
  O  O255  1  0.89935466  0.63704331  0.58676271  1
  O  O256  1  0.21870351  0.24121455  0.12412135  1
  O  O257  1  0.20360726  0.29747319  0.58439900  1
  O  O258  1  0.23992600  0.74869133  0.10451540  1
  O  O259  1  0.25124600  0.75863018  0.66220921  1
  O  O260  1  0.76060250  0.25723427  0.14307699  1
  O  O261  1  0.74615961  0.26221365  0.63499281  1
  O  O262  1  0.76307326  0.76417411  0.13254443  1
  O  O263  1  0.75480618  0.76393137  0.61738981  1
  O  O264  1  0.25506890  0.25131409  0.36772103  1
  O  O265  1  0.22420229  0.23634033  0.86830943  1
  O  O266  1  0.27049026  0.74907592  0.39045921  1
  O  O267  1  0.22802261  0.75383066  0.88352842  1
  O  O268  1  0.74456791  0.23080833  0.36710502  1
  O  O269  1  0.78041746  0.22848309  0.87472315  1
  O  O270  1  0.73398633  0.77332798  0.39192976  1
  O  O271  1  0.76084071  0.74351943  0.85841593  1
  O  O272  1  -0.00479429  0.11090952  -0.00760199  1
  O  O273  1  -0.06432469  0.09167232  0.53415248  1
  O  O274  1  -0.00413089  0.63337265  0.00301902  1
  O  O275  1  0.06225905  0.63106816  0.43399701  1
  O  O276  1  0.49324027  0.12300220  0.01880491  1
  O  O277  1  0.49264048  0.12296453  0.49365381  1
  O  O278  1  0.52505721  0.63956144  -0.00845861  1
  O  O279  1  0.51519568  0.61622832  0.50371639  1
  O  O280  1  0.50220800  0.38880924  0.49482477  1
  O  O281  1  0.49924848  0.34896515  0.97117835  1
  O  O282  1  0.49591152  0.88125266  0.49507114  1
  O  O283  1  0.46925405  0.84804036  1.00957837  1
  O  O284  1  0.98750135  0.35640408  0.49829173  1
  O  O285  1  0.99499258  0.36410073  0.98515511  1
  O  O286  1  1.00858716  0.80491605  0.46316200  1
  O  O287  1  0.98687884  0.88315632  0.99545502  1
  O  O288  1  0.52287126  0.49909379  0.39293530  1
  O  O289  1  0.52011842  0.48065264  0.87768860  1
  O  O290  1  0.51352831  0.98701466  0.36132145  1
  O  O291  1  0.48582786  1.01590005  0.90373609  1
  O  O292  1  0.98536938  0.47578120  0.37334544  1
  O  O293  1  0.98075182  0.49041824  0.87378959  1
  O  O294  1  1.03511377  0.96738175  0.40279718  1
  O  O295  1  1.00452587  0.98755112  0.87933004  1
  O  O296  1  -0.01165993  0.00628473  0.10853715  1
  O  O297  1  0.03783141  -0.00883920  0.62063799  1
  O  O298  1  -0.00277815  0.49887842  0.13286084  1
  O  O299  1  0.01193218  0.50653173  0.60968913  1
  O  O300  1  0.48552489  -0.01134804  0.10953760  1
  O  O301  1  0.52358314  0.00532044  0.62608151  1
  O  O302  1  0.52896984  0.50168911  0.11996564  1
  O  O303  1  0.52272266  0.48898463  0.61447569  1
  O  O304  1  0.23447577  0.41718241  0.30594902  1
  O  O305  1  0.21579961  0.37235482  0.74284834  1
  O  O306  1  0.23784153  0.85720497  0.23386690  1
  O  O307  1  0.25618222  0.88142743  0.75411697  1
  O  O308  1  0.76000440  0.38906149  0.24145443  1
  O  O309  1  0.75704143  0.39079653  0.73438261  1
  O  O310  1  0.75512486  0.87999315  0.24073309  1
  O  O311  1  0.74842021  0.88029667  0.72873981  1
  O  O312  1  0.22897218  0.09977277  0.26207105  1
  O  O313  1  0.25767549  0.11434597  0.76760894  1
  O  O314  1  0.24764053  0.60387918  0.23869558  1
  O  O315  1  0.26271097  0.62360743  0.76832754  1
  O  O316  1  0.75394897  0.11233455  0.25461129  1
  O  O317  1  0.64874149  0.19618390  0.79887951  1
  O  O318  1  0.76337000  0.61285918  0.24392750  1
  O  O319  1  0.74631751  0.61312932  0.76155999  1
  O  O320  1  0.29260338  0.18366999  0.38976466  1
  O  O321  1  0.34680846  0.14393886  0.89935708  1
  O  O322  1  0.40817109  0.61685050  0.37311302  1
  O  O323  1  0.38758804  0.61303081  0.87301225  1
  O  O324  1  0.87229745  0.12441111  0.37012800  1
  O  O325  1  0.83151199  0.17157416  0.87613736  1
  O  O326  1  0.89383587  0.60882965  0.39179141  1
  O  O327  1  0.86312890  0.61133565  0.87525850  1
  O  O328  1  0.10957464  0.38992657  0.10833667  1
  O  O329  1  0.10113959  0.39237357  0.64199266  1
  O  O330  1  0.13244513  0.86660227  0.12769212  1
  O  O331  1  0.14349127  0.86937689  0.62186971  1
  O  O332  1  0.64360351  0.39251158  0.12881696  1
  O  O333  1  0.64698856  0.39123159  0.61365908  1
  O  O334  1  0.64417614  0.86570213  0.13647955  1
  O  O335  1  0.64464196  0.89918988  0.63546565  1
  O  O336  1  0.08925995  0.22815816  0.25470448  1
  O  O337  1  0.10349625  0.25586788  0.76643743  1
  O  O338  1  0.11608369  0.75121843  0.23502411  1
  O  O339  1  0.11702904  0.73998826  0.76540169  1
  O  O340  1  0.63303727  0.26147414  0.26746324  1
  O  O341  1  0.52138058  0.22330775  0.69601858  1
  O  O342  1  0.63818130  0.75933933  0.26462382  1
  O  O343  1  0.63050326  0.76411821  0.75067405  1
  O  O344  1  0.34821691  0.28003621  0.21518432  1
  O  O345  1  0.30983612  0.27164376  0.69393830  1
  O  O346  1  0.39496066  0.74909532  0.22147648  1
  O  O347  1  0.38434006  0.72565612  0.75431081  1
  O  O348  1  0.88886199  0.24518341  0.24241288  1
  O  O349  1  0.88627712  0.25279892  0.74028581  1
  O  O350  1  0.89429174  0.76109794  0.28454092  1
  O  O351  1  0.88994064  0.75448863  0.74740264  1
  O  O352  1  0.40061066  0.50218032  0.49399079  1
  O  O353  1  0.36705793  0.46205468  1.00224465  1
  O  O354  1  0.36094945  0.96289909  0.48929951  1
  O  O355  1  0.37839089  0.98463577  1.00381855  1
  O  O356  1  0.87127294  0.48450733  0.48737613  1
  O  O357  1  0.86726967  0.50102236  0.99241119  1
  O  O358  1  0.91110044  1.02254887  0.51295725  1
  O  O359  1  0.88410312  0.99531314  0.98981172  1
  O  O360  1  0.10422295  0.00896122  -0.00781009  1
  O  O361  1  0.17319707  0.00585854  0.52160327  1
  O  O362  1  0.10842809  0.51236603  0.00394363  1
  O  O363  1  0.12999979  0.49041508  0.49616867  1
  O  O364  1  0.59403026  -0.03067794  0.00401468  1
  O  O365  1  0.62296112  0.02260949  0.49830769  1
  O  O366  1  0.65707893  0.51213614  0.01794315  1
  O  O367  1  0.62861066  0.51528892  0.50774831  1
  O  O368  1  0.44004215  0.37060056  0.13147058  1
  O  O369  1  0.36751242  0.38694069  0.60784443  1
  O  O370  1  0.34790467  0.86691575  0.11216890  1
  O  O371  1  0.38178639  0.87926146  0.63163820  1
  O  O372  1  0.87059149  0.35885455  0.12918839  1
  O  O373  1  0.86417893  0.37963284  0.61276855  1
  O  O374  1  0.86675414  0.88018546  0.10899142  1
  O  O375  1  0.86348354  0.88902738  0.62278201  1
  O  O376  1  0.06088707  0.15310104  0.47474517  1
  O  O377  1  0.12403189  0.12953993  0.87919715  1
  O  O378  1  0.09209126  0.61979866  0.36424296  1
  O  O379  1  0.10806093  0.63611740  0.88781551  1
  O  O380  1  0.61672900  0.13748673  0.37955861  1
  O  O381  1  0.60988976  0.16508791  0.85186408  1
  O  O382  1  0.63014329  0.64430475  0.38987957  1
  O  O383  1  0.64507572  0.62758691  0.88875357  1
