# generated using pymatgen
data_VZnO4
_symmetry_space_group_name_H-M   'P 1'
_cell_length_a   16.89390156
_cell_length_b   16.89638013
_cell_length_c   16.97063467
_cell_angle_alpha   90.09025014
_cell_angle_beta   90.09497317
_cell_angle_gamma   89.85420925
_symmetry_Int_Tables_number   1
_chemical_formula_structural   VZnO4
_chemical_formula_sum   'V64 Zn64 O256'
_cell_volume   4844.16777953
_cell_formula_units_Z   64
loop_
 _symmetry_equiv_pos_site_id
 _symmetry_equiv_pos_as_xyz
  1  'x, y, z'
loop_
 _atom_site_type_symbol
 _atom_site_label
 _atom_site_symmetry_multiplicity
 _atom_site_fract_x
 _atom_site_fract_y
 _atom_site_fract_z
 _atom_site_occupancy
  V  V0  1  0.74657209  0.50721187  0.74090282  1
  V  V1  1  0.25840404  0.35141983  0.11585237  1
  V  V2  1  0.36570804  -0.00742053  0.37660728  1
  V  V3  1  -0.00484959  0.62750763  0.63632643  1
  V  V4  1  0.25195252  0.86922192  0.11753975  1
  V  V5  1  0.37506050  0.13018795  0.74816467  1
  V  V6  1  0.50104001  0.01235821  0.50052464  1
  V  V7  1  0.64979016  -0.00422227  0.14497960  1
  V  V8  1  0.61844741  0.11710539  -0.00876572  1
  V  V9  1  0.87848917  0.12782585  0.72351228  1
  V  V10  1  0.50328596  0.25268052  0.24681295  1
  V  V11  1  0.49170982  0.63455528  0.60979439  1
  V  V12  1  0.63252767  0.35905858  0.77694903  1
  V  V13  1  0.51213684  0.49966955  0.50380076  1
  V  V14  1  0.24920739  0.76751285  0.49353139  1
  V  V15  1  0.74103922  0.48692795  0.24628059  1
  V  V16  1  0.12675192  0.37236532  0.25860211  1
  V  V17  1  0.12756281  0.74742674  0.84828799  1
  V  V18  1  0.73124107  0.91030593  0.61580016  1
  V  V19  1  0.47575896  0.74666429  0.25439657  1
  V  V20  1  0.24065012  -0.00041621  0.23872930  1
  V  V21  1  0.37300689  0.37658652  0.51296609  1
  V  V22  1  0.74415454  0.62729902  0.38356716  1
  V  V23  1  0.75551568  0.11541267  0.36536713  1
  V  V24  1  0.35761544  0.74891798  0.63304106  1
  V  V25  1  0.24479415  0.14260478  0.37331374  1
  V  V26  1  0.14566386  0.50243156  0.12586232  1
  V  V27  1  0.86947822  0.51492683  0.88113860  1
  V  V28  1  0.63372223  0.51892560  0.10723349  1
  V  V29  1  0.11784976  0.12934777  -0.01519194  1
  V  V30  1  -0.00183681  0.87317038  0.84697727  1
  V  V31  1  0.63039082  0.77695458  0.86861145  1
  V  V32  1  0.73063931  0.25467771  0.01236994  1
  V  V33  1  0.51547772  0.87097144  0.37626919  1
  V  V34  1  0.50057567  0.10777745  0.13106732  1
  V  V35  1  0.38821613  0.49441074  0.88568922  1
  V  V36  1  0.75021594  0.25163858  0.51131662  1
  V  V37  1  0.87628590  0.75485966  0.12299359  1
  V  V38  1  0.26248815  0.60939620  0.37658681  1
  V  V39  1  -0.00355180  0.24734714  0.27437863  1
  V  V40  1  0.25040622  0.25784723  0.51901242  1
  V  V41  1  -0.00511373  0.60990265  0.11186802  1
  V  V42  1  0.13332065  0.26150272  0.86769857  1
  V  V43  1  0.62861938  0.24861746  0.37754936  1
  V  V44  1  0.11571462  0.12741843  0.50653456  1
  V  V45  1  0.49578310  0.38046453  0.37075589  1
  V  V46  1  0.89738868  -0.00899346  0.37595714  1
  V  V47  1  0.75259514  0.00989437  0.77485421  1
  V  V48  1  0.88634430  0.88712809  -0.00121991  1
  V  V49  1  0.00777995  0.49855607  0.49931966  1
  V  V50  1  0.36880229  0.13460140  0.24393636  1
  V  V51  1  0.26780073  0.49946083  0.75252739  1
  V  V52  1  0.87945003  0.86475547  0.50855972  1
  V  V53  1  0.11278727  0.76359516  0.37104338  1
  V  V54  1  0.09704525  0.01038883  0.11773806  1
  V  V55  1  -0.00668329  0.38362419  0.89097403  1
  V  V56  1  0.87560151  0.36924901  0.51815522  1
  V  V57  1  0.10961103  -0.00422535  0.62872142  1
  V  V58  1  0.74810551  0.74118145  -0.00133404  1
  V  V59  1  0.88219430  0.48154886  0.37109424  1
  V  V60  1  0.88474423  0.62594159  0.25544888  1
  V  V61  1  0.13386193  0.49143762  0.63977210  1
  V  V62  1  0.14048230  0.64038478  0.00202485  1
  V  V63  1  -0.00373898  0.26706820  0.73635410  1
  Zn  Zn64  1  0.17200693  0.18704059  0.17925419  1
  Zn  Zn65  1  0.17851959  0.18883098  0.69103358  1
  Zn  Zn66  1  0.17963588  0.69208378  0.19485273  1
  Zn  Zn67  1  0.18149437  0.67168028  0.66984486  1
  Zn  Zn68  1  0.68710455  0.18453732  0.19078757  1
  Zn  Zn69  1  0.69659879  0.19508787  0.70407123  1
  Zn  Zn70  1  0.70190352  0.67803720  0.18857486  1
  Zn  Zn71  1  0.64743420  0.67692057  0.71641959  1
  Zn  Zn72  1  0.31251241  0.32511132  0.30722867  1
  Zn  Zn73  1  0.31722393  0.32712017  0.80303948  1
  Zn  Zn74  1  0.30005195  0.80933078  0.30519125  1
  Zn  Zn75  1  0.30450980  0.67422255  0.81766661  1
  Zn  Zn76  1  0.81276105  0.30404847  0.30090874  1
  Zn  Zn77  1  0.82365283  0.31732343  0.81093687  1
  Zn  Zn78  1  0.82791347  0.80229764  0.32914300  1
  Zn  Zn79  1  0.79800651  0.84021876  0.82427382  1
  Zn  Zn80  1  0.19365543  0.43696431  0.43623077  1
  Zn  Zn81  1  0.19266807  0.44518537  0.93900282  1
  Zn  Zn82  1  0.18012528  0.94206186  0.44009757  1
  Zn  Zn83  1  0.14058781  0.90847802  0.96122063  1
  Zn  Zn84  1  0.69079038  0.43221033  0.43141562  1
  Zn  Zn85  1  0.68849154  0.44384780  0.92993405  1
  Zn  Zn86  1  0.68174616  0.94019598  0.44204262  1
  Zn  Zn87  1  0.69245526  0.93412514  0.96340336  1
  Zn  Zn88  1  0.28038275  0.00963355  0.01805337  1
  Zn  Zn89  1  0.31276481  0.07402494  0.55649023  1
  Zn  Zn90  1  0.35331994  0.61771967  -0.00129329  1
  Zn  Zn91  1  0.30878836  0.56287491  0.55169844  1
  Zn  Zn92  1  0.80605543  0.06569109  0.05108803  1
  Zn  Zn93  1  0.81618967  0.06593151  0.54668459  1
  Zn  Zn94  1  0.81314277  0.56023613  0.05773151  1
  Zn  Zn95  1  0.81367796  0.55541627  0.56615980  1
  Zn  Zn96  1  0.44007848  0.42668995  0.17217421  1
  Zn  Zn97  1  0.43666696  0.44173808  0.68609691  1
  Zn  Zn98  1  0.42933786  0.93077970  0.19428927  1
  Zn  Zn99  1  0.37509917  0.94946855  0.65538475  1
  Zn  Zn100  1  0.95291504  0.43883196  0.19909807  1
  Zn  Zn101  1  0.93244607  0.45325649  0.69094788  1
  Zn  Zn102  1  0.94051637  0.92887608  0.20359548  1
  Zn  Zn103  1  0.92479278  0.94049294  0.67771870  1
  Zn  Zn104  1  0.06287633  0.07042807  0.31281893  1
  Zn  Zn105  1  0.06627278  0.06062493  0.80483770  1
  Zn  Zn106  1  0.07216217  0.56269277  0.31308036  1
  Zn  Zn107  1  0.06550030  0.56271944  0.81618325  1
  Zn  Zn108  1  0.56296743  0.06158968  0.31952479  1
  Zn  Zn109  1  0.56521815  0.06753167  0.79460041  1
  Zn  Zn110  1  0.56343408  0.56544191  0.31326316  1
  Zn  Zn111  1  0.55173229  0.54497448  0.78800459  1
  Zn  Zn112  1  0.42940754  0.19258954  0.43203857  1
  Zn  Zn113  1  0.40818920  0.12337808  0.96497469  1
  Zn  Zn114  1  0.43034918  0.69181806  0.43786482  1
  Zn  Zn115  1  0.53168142  0.58477522  0.97020080  1
  Zn  Zn116  1  0.92975647  0.18360459  0.43875592  1
  Zn  Zn117  1  0.95855266  0.16891481  0.89302159  1
  Zn  Zn118  1  0.93470395  0.68632187  0.44942057  1
  Zn  Zn119  1  0.94565182  0.69407229  0.93430613  1
  Zn  Zn120  1  0.09089569  0.32832668  0.04359242  1
  Zn  Zn121  1  0.06459128  0.31432254  0.55552618  1
  Zn  Zn122  1  0.05548336  0.81618785  0.09744037  1
  Zn  Zn123  1  0.06943219  0.81089330  0.56637383  1
  Zn  Zn124  1  0.58755513  0.29892908  0.07702345  1
  Zn  Zn125  1  0.56632939  0.31608004  0.55888999  1
  Zn  Zn126  1  0.57234001  0.81132158  0.08034206  1
  Zn  Zn127  1  0.52162150  0.86001429  0.59199460  1
  O  O128  1  0.11956130  0.11794413  0.10459999  1
  O  O129  1  0.13108862  0.12471913  0.61004473  1
  O  O130  1  0.11229237  0.61776739  0.12612159  1
  O  O131  1  0.10922020  0.59917745  0.61698248  1
  O  O132  1  0.61071274  0.11596300  0.13265822  1
  O  O133  1  0.59279025  0.15399341  0.63181580  1
  O  O134  1  0.61991520  0.61400330  0.13751865  1
  O  O135  1  0.66927576  0.67631615  0.58717918  1
  O  O136  1  0.39042269  0.36768520  0.38303731  1
  O  O137  1  0.39147659  0.39564707  0.85217003  1
  O  O138  1  0.36004672  0.89347419  0.36561087  1
  O  O139  1  0.40402749  0.84308557  0.92016777  1
  O  O140  1  0.87463396  0.38228820  0.36992694  1
  O  O141  1  0.88871367  0.38021228  0.88052636  1
  O  O142  1  0.87593523  0.87964208  0.39290214  1
  O  O143  1  0.89184249  0.86912741  0.88786456  1
  O  O144  1  0.25220845  0.01229839  0.36123677  1
  O  O145  1  0.28205415  -0.07163974  0.83839621  1
  O  O146  1  0.25828844  0.50804339  0.37965326  1
  O  O147  1  0.26235619  0.49125941  0.85933354  1
  O  O148  1  0.73560756  0.01788110  0.37489106  1
  O  O149  1  0.75113933  -0.00656408  0.87289713  1
  O  O150  1  0.76202495  0.49851478  0.36205374  1
  O  O151  1  0.76189583  0.50482241  0.86853028  1
  O  O152  1  0.24098777  0.50789059  0.13833827  1
  O  O153  1  0.23902264  0.50778156  0.62653826  1
  O  O154  1  0.25285151  1.00946436  0.13735661  1
  O  O155  1  0.27660909  0.99618520  0.62655696  1
  O  O156  1  0.73987454  0.50396987  0.13144911  1
  O  O157  1  0.75359803  0.49365486  0.64025098  1
  O  O158  1  0.74875221  1.01665478  0.13777689  1
  O  O159  1  0.73562674  1.01127159  0.61149312  1
  O  O160  1  0.01477343  0.36413636  0.25347569  1
  O  O161  1  -0.00835362  0.36819353  0.74781800  1
  O  O162  1  0.02199161  0.85201649  0.20454658  1
  O  O163  1  -0.02153930  0.86552678  0.74988221  1
  O  O164  1  0.48889665  0.36405881  0.26099548  1
  O  O165  1  0.52784386  0.36977743  0.71835044  1
  O  O166  1  0.48818924  0.86839138  0.27005462  1
  O  O167  1  0.47693006  0.91703344  0.77063887  1
  O  O168  1  0.49074815  0.13397604  0.24982186  1
  O  O169  1  0.47881036  0.11970144  0.74493363  1
  O  O170  1  0.50228949  0.64943397  0.27415331  1
  O  O171  1  0.54540545  0.62128551  0.70144590  1
  O  O172  1  1.01347275  0.14878427  0.24978584  1
  O  O173  1  0.97681380  0.13391756  0.77510112  1
  O  O174  1  0.98721043  0.61482854  0.24442426  1
  O  O175  1  1.00297761  0.61618068  0.73649802  1
  O  O176  1  0.35670351  0.22698075  -0.01182460  1
  O  O177  1  0.36137824  0.26028717  0.49690233  1
  O  O178  1  0.43333152  0.82586274  -0.01350694  1
  O  O179  1  0.35860648  0.74489965  0.51287547  1
  O  O180  1  0.84602271  0.23431485  0.05263664  1
  O  O181  1  0.86535068  0.26140049  0.49782269  1
  O  O182  1  0.87259092  0.75012943  0.01144338  1
  O  O183  1  0.86626484  0.76376083  0.49755745  1
  O  O184  1  0.14153919  0.24310655  0.50133058  1
  O  O185  1  0.12668950  0.23999393  0.98234910  1
  O  O186  1  0.14211058  0.75220406  0.49519034  1
  O  O187  1  0.11420092  0.73696553  1.02212981  1
  O  O188  1  0.63805382  0.26002265  0.48850751  1
  O  O189  1  0.62392119  0.23433999  0.98922825  1
  O  O190  1  0.67705764  0.73583788  0.54473776  1
  O  O191  1  0.64599030  0.75795393  1.00713703  1
  O  O192  1  0.50698883  0.24885657  0.14437164  1
  O  O193  1  0.54114232  0.20603776  0.61633856  1
  O  O194  1  0.52399975  0.75938079  0.16594216  1
  O  O195  1  0.50735346  0.73324928  0.59816959  1
  O  O196  1  0.98262453  0.28701311  0.11139253  1
  O  O197  1  1.00903459  0.25344701  0.63847845  1
  O  O198  1  0.98023943  0.72563401  0.12554641  1
  O  O199  1  1.01126789  0.72521789  0.61522176  1
  O  O200  1  -0.00274507  0.25000314  0.37440326  1
  O  O201  1  0.00552275  0.27200243  0.86384901  1
  O  O202  1  0.01573532  0.73861830  0.38934986  1
  O  O203  1  0.01253161  0.76101752  0.87416567  1
  O  O204  1  0.50864627  0.25561601  0.37119966  1
  O  O205  1  0.47397232  0.28530487  0.96087786  1
  O  O206  1  0.49176616  0.76617125  0.37300102  1
  O  O207  1  0.52918787  0.73294164  0.88300642  1
  O  O208  1  0.25403699  0.14441304  0.48752832  1
  O  O209  1  0.21618326  0.09386617  0.97833426  1
  O  O210  1  0.25040422  0.63192182  0.48306795  1
  O  O211  1  0.24070177  0.64001450  1.01040301  1
  O  O212  1  0.75806340  0.14796475  0.48131700  1
  O  O213  1  0.72709308  0.13666138  1.00475848  1
  O  O214  1  0.76574088  0.60862812  0.48043317  1
  O  O215  1  0.75685745  0.64127871  0.99474029  1
  O  O216  1  0.23987571  0.37672426  0.01824282  1
  O  O217  1  0.26114070  0.36675735  0.49921972  1
  O  O218  1  0.24315729  0.89681662  0.01333211  1
  O  O219  1  0.25405547  0.86767781  0.49556863  1
  O  O220  1  0.73684638  0.34944518  -0.01912118  1
  O  O221  1  0.76225552  0.36399697  0.49443084  1
  O  O222  1  0.77614458  0.86100354  -0.00123536  1
  O  O223  1  0.74587910  0.88101849  0.51424336  1
  O  O224  1  0.11322941  0.48554632  0.23589492  1
  O  O225  1  0.13264166  0.49446222  0.74297291  1
  O  O226  1  0.13653024  1.02015980  0.23613751  1
  O  O227  1  0.13630687  1.02019235  0.72569271  1
  O  O228  1  0.63923668  0.49947077  0.24751694  1
  O  O229  1  0.64026218  0.48097952  0.75886181  1
  O  O230  1  0.62461852  1.00467073  0.24317804  1
  O  O231  1  0.65619247  1.03112794  0.74703125  1
  O  O232  1  0.36291612  0.01631226  0.25668985  1
  O  O233  1  0.35984172  0.02531033  0.74991575  1
  O  O234  1  0.39901309  0.53991289  0.21260246  1
  O  O235  1  0.37333392  0.51323942  0.74721621  1
  O  O236  1  0.87180851  -0.02317414  0.27701127  1
  O  O237  1  0.86698000  0.02060097  0.74536724  1
  O  O238  1  0.87212971  0.50103101  0.25740716  1
  O  O239  1  0.85630360  0.49355425  0.76279316  1
  O  O240  1  0.13803649  0.37569294  0.35696975  1
  O  O241  1  0.11444791  0.36961015  0.88110138  1
  O  O242  1  0.11981770  0.86533021  0.38438436  1
  O  O243  1  0.11502040  0.85824717  0.86456278  1
  O  O244  1  0.60879838  0.36290757  0.37635619  1
  O  O245  1  0.61061359  0.37816206  0.87319875  1
  O  O246  1  0.61514698  0.87570971  0.37308735  1
  O  O247  1  0.62032729  0.87378181  0.89413683  1
  O  O248  1  0.38882118  0.12845037  0.14240264  1
  O  O249  1  0.37343490  0.13601900  0.64371308  1
  O  O250  1  0.38422221  0.59359494  0.16448211  1
  O  O251  1  0.38779324  0.63360278  0.61912605  1
  O  O252  1  0.86886186  0.16961623  0.08467779  1
  O  O253  1  0.88070116  0.12671373  0.62456712  1
  O  O254  1  0.88187533  0.61736263  0.13470618  1
  O  O255  1  0.89345172  0.61213236  0.62150999  1
  O  O256  1  0.24548737  0.25174539  0.11969655  1
  O  O257  1  0.24785323  0.25230817  0.61682542  1
  O  O258  1  0.23375529  0.77187756  0.13031602  1
  O  O259  1  0.25268550  0.74877989  0.61442051  1
  O  O260  1  0.70697954  0.26699788  0.11485580  1
  O  O261  1  0.73945848  0.24384988  0.60903743  1
  O  O262  1  0.76742759  0.73819246  0.11498189  1
  O  O263  1  0.81809831  0.72914841  0.68416622  1
  O  O264  1  0.25078357  0.24252401  0.36898004  1
  O  O265  1  0.23232504  0.27068532  0.85692420  1
  O  O266  1  0.24327124  0.75082552  0.38474276  1
  O  O267  1  0.22687944  0.74527050  0.87007668  1
  O  O268  1  0.73677956  0.25263496  0.37262900  1
  O  O269  1  0.80222072  0.23318872  0.90666104  1
  O  O270  1  0.75555642  0.72748167  0.37189045  1
  O  O271  1  0.74052667  0.75912941  0.88542061  1
  O  O272  1  0.01226601  0.12207093  -0.02043057  1
  O  O273  1  0.01739182  0.13378552  0.49580040  1
  O  O274  1  0.00229498  0.62056372  0.01213834  1
  O  O275  1  -0.01014669  0.59990894  0.50165861  1
  O  O276  1  0.50775703  0.13030477  0.02601544  1
  O  O277  1  0.48420059  0.11304443  0.49108421  1
  O  O278  1  0.45696339  0.63339535  0.03735829  1
  O  O279  1  0.50109199  0.60944529  0.49924661  1
  O  O280  1  0.49216526  0.37804307  0.49219185  1
  O  O281  1  0.40070992  0.29301118  0.97988303  1
  O  O282  1  0.49332832  0.88838857  0.47841499  1
  O  O283  1  0.49366449  0.87255444  1.01208646  1
  O  O284  1  0.98368806  0.38091359  0.50194894  1
  O  O285  1  1.00613394  0.38538523  0.98952321  1
  O  O286  1  0.97771620  0.87161415  0.52467944  1
  O  O287  1  0.98762916  0.86814193  1.01062877  1
  O  O288  1  0.50441529  0.48526556  0.38057735  1
  O  O289  1  0.49611148  0.51856484  0.87982877  1
  O  O290  1  0.48353478  0.99436538  0.37465078  1
  O  O291  1  0.50277409  0.95973519  0.82546745  1
  O  O292  1  0.98758682  0.49940007  0.38096581  1
  O  O293  1  0.99007979  0.48818645  0.86318624  1
  O  O294  1  0.99740769  1.00144516  0.37522252  1
  O  O295  1  1.01592212  0.97278849  0.86226354  1
  O  O296  1  0.00079793  0.00707590  0.14014749  1
  O  O297  1  0.00893708  0.00339310  0.63191454  1
  O  O298  1  -0.00021542  0.50722217  0.12228209  1
  O  O299  1  0.00676076  0.49873550  0.61337069  1
  O  O300  1  0.49791836  0.00806913  0.13712043  1
  O  O301  1  0.47737874  -0.01659262  0.59905884  1
  O  O302  1  0.53198222  0.46494633  0.11312089  1
  O  O303  1  0.49603077  0.50943277  0.60679087  1
  O  O304  1  0.23691010  0.36685468  0.23314309  1
  O  O305  1  0.26307863  0.39815611  0.73198011  1
  O  O306  1  0.24542200  0.89557240  0.24025606  1
  O  O307  1  0.30122446  0.88687616  0.78225900  1
  O  O308  1  0.75558034  0.38796815  0.24496853  1
  O  O309  1  0.73830718  0.37330213  0.76362351  1
  O  O310  1  0.73017974  0.84401409  0.25123285  1
  O  O311  1  0.75779736  0.90660087  0.73722142  1
  O  O312  1  0.25529603  0.12930785  0.25482905  1
  O  O313  1  0.26998153  0.14132928  0.74984933  1
  O  O314  1  0.23133076  0.62730672  0.27214463  1
  O  O315  1  0.24201418  0.60724945  0.74509223  1
  O  O316  1  0.75417059  0.13758961  0.26708485  1
  O  O317  1  0.77411016  0.12808717  0.75427914  1
  O  O318  1  0.76425101  0.60825532  0.25733211  1
  O  O319  1  0.73137002  0.60855978  0.74628422  1
  O  O320  1  0.36073083  0.12186209  0.36339585  1
  O  O321  1  0.38040688  0.12537631  0.85371308  1
  O  O322  1  0.36210883  0.63045832  0.37058683  1
  O  O323  1  0.36538836  0.60812144  0.88338726  1
  O  O324  1  0.86549209  0.10511732  0.37986382  1
  O  O325  1  0.84081648  0.16303524  0.90368969  1
  O  O326  1  0.87471043  0.61507715  0.36208165  1
  O  O327  1  0.88788844  0.61404514  0.87563846  1
  O  O328  1  0.13751781  0.38926409  0.12775310  1
  O  O329  1  0.12362935  0.39340164  0.61419809  1
  O  O330  1  0.13560062  0.90486040  0.12184921  1
  O  O331  1  0.12624085  0.89605906  0.61851860  1
  O  O332  1  0.59850339  0.40692620  0.11965666  1
  O  O333  1  0.58862363  0.37038207  0.65871439  1
  O  O334  1  0.63597722  0.89841464  0.12007664  1
  O  O335  1  0.63395438  0.87877546  0.62519991  1
  O  O336  1  0.11196184  0.26413591  0.23904823  1
  O  O337  1  0.10770893  0.24636897  0.75915611  1
  O  O338  1  0.12321281  0.75769992  0.26912311  1
  O  O339  1  0.12380087  0.73664515  0.75040579  1
  O  O340  1  0.60965821  0.24814798  0.26286826  1
  O  O341  1  0.63231988  0.25567529  0.77166997  1
  O  O342  1  0.67549673  0.79401956  0.24176352  1
  O  O343  1  0.63592377  0.77570639  0.76764922  1
  O  O344  1  0.38671024  0.24002701  0.26006659  1
  O  O345  1  0.38093578  0.23610659  0.75943019  1
  O  O346  1  0.37503513  0.75034079  0.24273871  1
  O  O347  1  0.35703306  0.73376006  0.73192464  1
  O  O348  1  0.89675660  0.25655168  0.24721575  1
  O  O349  1  0.88567964  0.24289875  0.74541530  1
  O  O350  1  0.86852346  0.73257030  0.24044728  1
  O  O351  1  0.85722710  0.74785700  0.74273912  1
  O  O352  1  0.38243065  0.48220705  0.50149884  1
  O  O353  1  0.37407833  0.48740070  0.98322420  1
  O  O354  1  0.36966290  1.00869005  0.47775636  1
  O  O355  1  0.38407148  1.01894688  0.98477477  1
  O  O356  1  0.87629577  0.48191299  0.48583970  1
  O  O357  1  0.86819016  0.49846395  0.98219688  1
  O  O358  1  0.86894300  0.98758209  0.48404822  1
  O  O359  1  0.87514188  0.98649874  1.00915362  1
  O  O360  1  0.09988283  0.00398136  0.01188689  1
  O  O361  1  0.13735803  0.01987254  0.51235413  1
  O  O362  1  0.13554407  0.51908305  0.01673985  1
  O  O363  1  0.10770290  0.49015692  0.49091548  1
  O  O364  1  0.63295071  0.01535697  0.02231318  1
  O  O365  1  0.60137503  0.00715642  0.49253177  1
  O  O366  1  0.63352985  0.52352074  0.00389606  1
  O  O367  1  0.61095215  0.48393068  0.50036361  1
  O  O368  1  0.35854674  0.36874640  0.12908145  1
  O  O369  1  0.38815171  0.36772349  0.61095933  1
  O  O370  1  0.35265277  0.88126196  0.12679128  1
  O  O371  1  0.40475068  0.84315756  0.63378450  1
  O  O372  1  0.92841823  0.33799737  0.11120686  1
  O  O373  1  0.87203968  0.37926688  0.61501503  1
  O  O374  1  0.87827582  0.85805659  0.12353705  1
  O  O375  1  0.84682258  0.88382413  0.61487549  1
  O  O376  1  0.14196021  0.12156455  0.38721734  1
  O  O377  1  0.11874403  0.14439229  0.87253846  1
  O  O378  1  0.14123040  0.63560576  0.36674285  1
  O  O379  1  0.11425598  0.63796516  0.89473756  1
  O  O380  1  0.63130818  0.14167329  0.37482473  1
  O  O381  1  0.59710533  0.10506681  0.89568492  1
  O  O382  1  0.64473458  0.61281759  0.37648092  1
  O  O383  1  0.58156832  0.66716101  0.88636791  1
