# generated using pymatgen
data_VZnO4
_symmetry_space_group_name_H-M   'P 1'
_cell_length_a   16.91457209
_cell_length_b   17.01750853
_cell_length_c   17.01541808
_cell_angle_alpha   90.76229563
_cell_angle_beta   89.70491306
_cell_angle_gamma   90.38987906
_symmetry_Int_Tables_number   1
_chemical_formula_structural   VZnO4
_chemical_formula_sum   'V64 Zn64 O256'
_cell_volume   4897.17431238
_cell_formula_units_Z   64
loop_
 _symmetry_equiv_pos_site_id
 _symmetry_equiv_pos_as_xyz
  1  'x, y, z'
loop_
 _atom_site_type_symbol
 _atom_site_label
 _atom_site_symmetry_multiplicity
 _atom_site_fract_x
 _atom_site_fract_y
 _atom_site_fract_z
 _atom_site_occupancy
  V  V0  1  0.60667804  0.11922842  0.48760182  1
  V  V1  1  0.88617306  0.38649551  0.50373164  1
  V  V2  1  0.25685214  0.00089467  0.24997042  1
  V  V3  1  0.12108869  0.87652022  0.76091738  1
  V  V4  1  0.74282194  0.35876395  0.15404233  1
  V  V5  1  0.61518084  -0.00688183  0.62618714  1
  V  V6  1  0.00021022  0.12774426  0.13219136  1
  V  V7  1  0.73434720  0.39199637  0.62630283  1
  V  V8  1  0.34597522  0.75360445  0.61783650  1
  V  V9  1  0.49647984  0.13005991  0.64505151  1
  V  V10  1  0.25810949  0.26166461  0.50486596  1
  V  V11  1  0.13078179  0.25911325  0.85079811  1
  V  V12  1  0.49234108  0.52845814  0.01509986  1
  V  V13  1  0.74733846  0.63350081  0.38923030  1
  V  V14  1  0.38037754  0.39476296  0.48100345  1
  V  V15  1  0.76974561  -0.01987977  0.26545146  1
  V  V16  1  0.15386936  0.48581006  0.62891735  1
  V  V17  1  0.74947345  0.87956779  0.63843670  1
  V  V18  1  0.76358159  0.12966213  0.39204174  1
  V  V19  1  0.01361335  0.00595184  0.48665988  1
  V  V20  1  0.50330121  0.76575991  0.71820824  1
  V  V21  1  0.52306677  0.35790019  0.91329280  1
  V  V22  1  -0.00751955  0.26060242  0.73574779  1
  V  V23  1  0.26522338  0.50880370  0.26104148  1
  V  V24  1  0.12032678  -0.01034163  0.13479543  1
  V  V25  1  0.11773004  0.62214991  -0.00312194  1
  V  V26  1  0.37823261  0.62896126  0.74073917  1
  V  V27  1  -0.00387054  0.60960861  0.63519059  1
  V  V28  1  0.88137520  0.14290450  0.25854007  1
  V  V29  1  0.88438692  0.75259909  0.63308031  1
  V  V30  1  -0.00147966  0.37460214  0.88985182  1
  V  V31  1  0.11797751  0.63087897  0.49596585  1
  V  V32  1  0.37500822  0.24145503  0.13783631  1
  V  V33  1  0.75231877  0.75647297  0.02688285  1
  V  V34  1  0.25334933  0.38220893  0.13875728  1
  V  V35  1  0.45755853  0.00365601  -0.00899918  1
  V  V36  1  0.24664953  0.61325649  0.86670386  1
  V  V37  1  0.88954629  0.86534517  0.02986075  1
  V  V38  1  0.51908106  0.23586596  0.24831838  1
  V  V39  1  0.25951531  0.13368068  0.86247785  1
  V  V40  1  -0.05496413  0.67454738  0.17532394  1
  V  V41  1  0.52372389  0.38061188  0.36262178  1
  V  V42  1  0.02048021  0.12189835  0.62271640  1
  V  V43  1  0.25886965  0.75742288  -0.01688987  1
  V  V44  1  0.62047390  0.78965898  0.89810087  1
  V  V45  1  0.23976698  0.25192543  0.00550925  1
  V  V46  1  0.87558290  0.87389220  0.49284094  1
  V  V47  1  0.86007838  0.24431261  0.61361323  1
  V  V48  1  0.11790808  0.27165910  0.36387442  1
  V  V49  1  0.64259980  0.00282617  0.14203904  1
  V  V50  1  0.01415479  0.84623588  0.37492577  1
  V  V51  1  0.25904589  0.86678198  0.12179959  1
  V  V52  1  0.23392904  0.90916985  0.62011573  1
  V  V53  1  0.83292249  0.53221178  0.87015065  1
  V  V54  1  0.25310732  0.64321347  0.37620032  1
  V  V55  1  0.38719217  0.00401455  0.37500658  1
  V  V56  1  0.88451554  0.50063740  0.36773371  1
  V  V57  1  0.62602365  0.55434608  0.12796309  1
  V  V58  1  0.35641253  -0.01771769  0.84892952  1
  V  V59  1  0.00273468  -0.00544936  -0.01465351  1
  V  V60  1  0.24343538  0.13083352  0.37803250  1
  V  V61  1  0.60131693  0.60168213  0.49199936  1
  V  V62  1  0.37328622  0.87976203  0.48988702  1
  V  V63  1  0.11599864  0.50166153  0.12543007  1
  Zn  Zn64  1  0.18508053  0.18333422  0.18943558  1
  Zn  Zn65  1  0.19773025  0.18709515  0.67696456  1
  Zn  Zn66  1  0.19638371  0.67895460  0.17922548  1
  Zn  Zn67  1  0.16897723  0.68664942  0.69219472  1
  Zn  Zn68  1  0.69790604  0.17666503  0.19470446  1
  Zn  Zn69  1  0.64603950  0.23620584  0.61709393  1
  Zn  Zn70  1  0.77396649  0.65587615  0.18633155  1
  Zn  Zn71  1  0.66385791  0.71938507  0.61730969  1
  Zn  Zn72  1  0.31222987  0.31849117  0.31311391  1
  Zn  Zn73  1  0.37802152  0.37550108  1.00989837  1
  Zn  Zn74  1  0.17796001  0.81408246  0.29703739  1
  Zn  Zn75  1  0.28637612  0.80804489  0.79371805  1
  Zn  Zn76  1  0.80894904  0.31596723  0.32689968  1
  Zn  Zn77  1  0.82666559  0.35821453  0.79287264  1
  Zn  Zn78  1  0.83356528  0.79499046  0.31246272  1
  Zn  Zn79  1  0.79927534  0.70879420  0.81511330  1
  Zn  Zn80  1  0.18327771  0.44299066  0.44231009  1
  Zn  Zn81  1  0.19144957  0.43613855  0.93837899  1
  Zn  Zn82  1  0.18908591  0.93790951  0.43888914  1
  Zn  Zn83  1  0.19233564  0.94402731  0.93619888  1
  Zn  Zn84  1  0.69489793  0.43267613  0.45313154  1
  Zn  Zn85  1  0.63551009  0.49395403  0.91486674  1
  Zn  Zn86  1  0.69535193  0.94757217  0.43592513  1
  Zn  Zn87  1  0.70744742  0.93614004  0.94907851  1
  Zn  Zn88  1  0.31102336  0.06197523  0.06018333  1
  Zn  Zn89  1  0.32003744  0.07280003  0.55601142  1
  Zn  Zn90  1  0.30599388  0.56097611  0.05232539  1
  Zn  Zn91  1  0.30497952  0.56857355  0.55204261  1
  Zn  Zn92  1  0.83434657  0.03668727  0.08851511  1
  Zn  Zn93  1  0.82994913  0.05233778  0.57913546  1
  Zn  Zn94  1  0.82319073  0.51606629  0.06999652  1
  Zn  Zn95  1  0.80875283  0.56460001  0.56536323  1
  Zn  Zn96  1  0.48471577  0.48616953  0.23777548  1
  Zn  Zn97  1  0.35581194  0.44302627  0.66584275  1
  Zn  Zn98  1  0.44180386  0.94974805  0.17566663  1
  Zn  Zn99  1  0.42814119  0.93894804  0.67529824  1
  Zn  Zn100  1  0.92500188  0.42895606  0.18597915  1
  Zn  Zn101  1  0.93005745  0.43608458  0.69485152  1
  Zn  Zn102  1  0.94667214  0.93338373  0.20825188  1
  Zn  Zn103  1  0.93617063  0.94850264  0.68545075  1
  Zn  Zn104  1  0.06435045  0.06412529  0.31181825  1
  Zn  Zn105  1  0.06788930  0.07387533  0.80673385  1
  Zn  Zn106  1  0.06603151  0.56083583  0.30809243  1
  Zn  Zn107  1  0.06194982  0.55158053  0.80674775  1
  Zn  Zn108  1  0.57609404  0.05809157  0.31073062  1
  Zn  Zn109  1  0.54908693  -0.05298398  0.80863188  1
  Zn  Zn110  1  0.70367467  0.49413467  0.28406100  1
  Zn  Zn111  1  0.39601418  0.50955500  0.86959906  1
  Zn  Zn112  1  0.43352792  0.19579022  0.41996832  1
  Zn  Zn113  1  0.43852350  0.18270641  0.95345341  1
  Zn  Zn114  1  0.42559943  0.68347581  0.45408071  1
  Zn  Zn115  1  0.43929206  0.69879763  0.92574716  1
  Zn  Zn116  1  0.94366477  0.18985315  0.44317179  1
  Zn  Zn117  1  1.12079315  0.12582554  0.99772777  1
  Zn  Zn118  1  0.93396123  0.68008693  0.45010979  1
  Zn  Zn119  1  0.90489790  0.64866900  0.98935913  1
  Zn  Zn120  1  0.05155988  0.32715582  0.08570429  1
  Zn  Zn121  1  0.07329875  0.31472151  0.55171511  1
  Zn  Zn122  1  0.07222013  0.80306484  0.06261524  1
  Zn  Zn123  1  0.06265633  0.81333206  0.56162302  1
  Zn  Zn124  1  0.53949812  0.36606619  0.12556277  1
  Zn  Zn125  1  0.51676550  0.33690817  0.58133716  1
  Zn  Zn126  1  0.57783728  0.87220918  0.06174633  1
  Zn  Zn127  1  0.58000882  0.83326892  0.50737249  1
  O  O128  1  0.11753111  0.10859051  0.12463084  1
  O  O129  1  0.11948151  0.13508061  0.61446302  1
  O  O130  1  0.13504005  0.61159446  0.10663868  1
  O  O131  1  0.11260485  0.61492615  0.62039746  1
  O  O132  1  0.62953727  0.10080958  0.13593359  1
  O  O133  1  0.60895979  0.10854119  0.61008916  1
  O  O134  1  0.60436373  0.64747348  0.13483581  1
  O  O135  1  0.61557253  0.62047027  0.60013253  1
  O  O136  1  0.37859539  0.38255711  0.37713011  1
  O  O137  1  0.41083762  0.38778462  0.86717419  1
  O  O138  1  0.36647817  0.88791320  0.38821048  1
  O  O139  1  0.33697067  0.88575654  0.86081977  1
  O  O140  1  0.87170736  0.38565483  0.39462888  1
  O  O141  1  0.89742551  0.35251087  0.87570657  1
  O  O142  1  0.89511822  0.86237685  0.38927777  1
  O  O143  1  0.96744699  0.78869522  0.84621121  1
  O  O144  1  0.24972793  0.00496115  0.36110004  1
  O  O145  1  0.24685592  0.02673416  0.87058509  1
  O  O146  1  0.24373297  0.50520705  0.36098090  1
  O  O147  1  0.26440757  0.51188990  0.87733060  1
  O  O148  1  0.76365994  0.00987375  0.36749095  1
  O  O149  1  0.72174431  0.03022536  0.87181830  1
  O  O150  1  0.75957748  0.49932879  0.38417344  1
  O  O151  1  0.73181003  0.52658944  0.86864420  1
  O  O152  1  0.25692037  0.49139185  0.13265389  1
  O  O153  1  0.25941346  0.49493957  0.63046577  1
  O  O154  1  0.24154029  0.99534253  0.13100215  1
  O  O155  1  0.24767083  1.00787268  0.61879260  1
  O  O156  1  0.73238533  0.55831939  0.12572608  1
  O  O157  1  0.74551713  0.49122990  0.63221928  1
  O  O158  1  0.75212771  0.98996669  0.14957881  1
  O  O159  1  0.73626293  0.98805901  0.61467072  1
  O  O160  1  0.00036424  0.35088669  0.18692635  1
  O  O161  1  0.00370594  0.36264378  0.74713076  1
  O  O162  1  -0.00052897  0.86665484  0.27675727  1
  O  O163  1  0.01635589  0.90046675  0.74439387  1
  O  O164  1  0.51184338  0.36471784  0.24728485  1
  O  O165  1  0.47079923  0.36872341  0.81329356  1
  O  O166  1  0.44339099  0.81885628  0.23882900  1
  O  O167  1  0.48837670  0.86692365  0.74614511  1
  O  O168  1  0.50853896  0.13589844  0.25745810  1
  O  O169  1  0.49650262  0.11978841  0.73993395  1
  O  O170  1  0.54678980  0.72519771  0.31535560  1
  O  O171  1  0.47636045  0.65667662  0.74653060  1
  O  O172  1  0.99406484  0.12104553  0.24294088  1
  O  O173  1  1.01138405  0.14487265  0.73349361  1
  O  O174  1  1.00103414  0.62095161  0.23649854  1
  O  O175  1  1.00414766  0.62384960  0.73501531  1
  O  O176  1  0.36399599  0.25328636  0.01685850  1
  O  O177  1  0.36188617  0.25992463  0.48219098  1
  O  O178  1  0.35879463  0.75595097  -0.01337141  1
  O  O179  1  0.36419224  0.76205243  0.51027396  1
  O  O180  1  0.88032817  0.25887454  0.02391219  1
  O  O181  1  0.88046649  0.26224689  0.51140973  1
  O  O182  1  0.87103879  0.75953980  0.00920338  1
  O  O183  1  0.88721837  0.76731386  0.51444549  1
  O  O184  1  0.15016491  0.26313540  0.48001763  1
  O  O185  1  0.13709848  0.25228660  1.01418689  1
  O  O186  1  0.12454771  0.72997744  0.51052349  1
  O  O187  1  0.13821922  0.72925171  1.00204600  1
  O  O188  1  0.64490144  0.21069338  0.50340698  1
  O  O189  1  0.68885615  0.22829771  0.90548339  1
  O  O190  1  0.61091706  0.72499776  0.51569793  1
  O  O191  1  0.64002120  0.78981743  1.00422364  1
  O  O192  1  0.48389093  0.25503241  0.14045056  1
  O  O193  1  0.52895617  0.23388193  0.63186259  1
  O  O194  1  0.46317725  0.68343984  0.17194074  1
  O  O195  1  0.47223320  0.76194903  0.62383868  1
  O  O196  1  1.01119006  0.22213776  0.11512453  1
  O  O197  1  1.01075619  0.25041415  0.62986274  1
  O  O198  1  0.99832486  0.73992389  0.12122092  1
  O  O199  1  0.98794090  0.75507797  0.63161705  1
  O  O200  1  0.02169781  0.24817095  0.38538250  1
  O  O201  1  0.02065139  0.25766564  0.85001812  1
  O  O202  1  0.00452998  0.74800311  0.38382276  1
  O  O203  1  0.01810289  0.74396278  0.86926650  1
  O  O204  1  0.49335145  0.26339544  0.34936051  1
  O  O205  1  0.51665531  0.25917166  0.91683672  1
  O  O206  1  0.50820212  0.75527326  0.36928898  1
  O  O207  1  0.52955490  0.74919135  0.87387444  1
  O  O208  1  0.25679375  0.13879409  0.48264267  1
  O  O209  1  0.24487925  0.14145458  0.99673369  1
  O  O210  1  0.23816315  0.62700955  0.48459452  1
  O  O211  1  0.25169884  0.63609989  0.98195299  1
  O  O212  1  0.78030889  0.11052530  0.48831039  1
  O  O213  1  0.78155737  0.11731151  0.99841508  1
  O  O214  1  0.74003188  0.61867553  0.49643727  1
  O  O215  1  0.74848673  0.66579532  0.99225840  1
  O  O216  1  0.25709606  0.36418132  0.00397583  1
  O  O217  1  0.26693325  0.37066220  0.49179065  1
  O  O218  1  0.23982199  0.86361900  0.00638556  1
  O  O219  1  0.25758291  0.88662086  0.51252220  1
  O  O220  1  0.67225548  0.22819612  -0.02462385  1
  O  O221  1  0.76386267  0.37254182  0.52121620  1
  O  O222  1  0.78450917  0.86623646  -0.01016573  1
  O  O223  1  0.77547172  0.88526530  0.49373443  1
  O  O224  1  0.13904925  0.50968692  0.22876259  1
  O  O225  1  0.12687732  0.50339739  0.72533897  1
  O  O226  1  0.13414907  0.99962616  0.23923223  1
  O  O227  1  0.11396214  0.98970602  0.74706543  1
  O  O228  1  0.60921285  0.51285159  0.22415581  1
  O  O229  1  0.56508983  0.47693113  0.72756699  1
  O  O230  1  0.65582589  0.99777264  0.25382448  1
  O  O231  1  0.61849965  0.99203240  0.72645155  1
  O  O232  1  0.36309314  -0.01192947  0.25879247  1
  O  O233  1  0.36137367  -0.00185289  0.74996140  1
  O  O234  1  0.36440902  0.50539499  0.25135977  1
  O  O235  1  0.38414671  0.52399129  0.74338749  1
  O  O236  1  0.87128426  0.00810003  0.24913619  1
  O  O237  1  0.84935851  0.01823970  0.69066850  1
  O  O238  1  0.87364513  0.49039286  0.26734452  1
  O  O239  1  0.86537564  0.48115698  0.78411894  1
  O  O240  1  0.12839037  0.37194723  0.37002649  1
  O  O241  1  0.12434172  0.36033660  0.88010694  1
  O  O242  1  0.11974366  0.86760073  0.37994471  1
  O  O243  1  0.13724184  0.87961016  0.85986327  1
  O  O244  1  0.62262370  0.37582548  0.37805400  1
  O  O245  1  0.62048907  0.38007921  0.89797662  1
  O  O246  1  0.61699997  0.87326977  0.41007541  1
  O  O247  1  0.62646802  0.89006763  0.87541902  1
  O  O248  1  0.35511766  0.14530904  0.12750130  1
  O  O249  1  0.39955081  0.12766755  0.61263890  1
  O  O250  1  0.34440268  0.65132656  0.12271545  1
  O  O251  1  0.35927986  0.64100617  0.63090079  1
  O  O252  1  0.89055096  0.12130808  0.14065420  1
  O  O253  1  0.89706366  0.14773769  0.61543752  1
  O  O254  1  0.88823603  0.61426983  0.10453558  1
  O  O255  1  0.88731089  0.64038881  0.61416873  1
  O  O256  1  0.24797385  0.26206266  0.12288310  1
  O  O257  1  0.25447482  0.25080725  0.60323175  1
  O  O258  1  0.24749513  0.76384428  0.11225244  1
  O  O259  1  0.24670912  0.75020606  0.62440243  1
  O  O260  1  0.75507153  0.25989643  0.14036968  1
  O  O261  1  0.76216787  0.22935005  0.62450970  1
  O  O262  1  0.74662151  0.75010196  0.12534166  1
  O  O263  1  0.76125637  0.77341774  0.61500012  1
  O  O264  1  0.24642445  0.23741581  0.36849498  1
  O  O265  1  0.23723417  0.24799013  0.89174692  1
  O  O266  1  0.23812025  0.73967769  0.36323205  1
  O  O267  1  0.24404237  0.74183339  0.88070236  1
  O  O268  1  0.75938011  0.22912434  0.38142623  1
  O  O269  1  0.82617695  0.28985470  0.98952706  1
  O  O270  1  0.76817561  0.73113735  0.38043105  1
  O  O271  1  0.70207417  0.74573782  0.85886478  1
  O  O272  1  -0.00169363  0.09677783  0.02079459  1
  O  O273  1  -0.00017536  0.11365131  0.50782782  1
  O  O274  1  0.01920672  0.62423940  -0.01351597  1
  O  O275  1  0.01161834  0.62204497  0.51414597  1
  O  O276  1  0.50553217  0.09382740  -0.02198585  1
  O  O277  1  0.50733892  0.12876269  0.47449395  1
  O  O278  1  0.47684904  0.62602025  0.00845957  1
  O  O279  1  0.50093266  0.61089121  0.48068101  1
  O  O280  1  0.49043842  0.36807965  0.47032404  1
  O  O281  1  0.49733524  0.38477832  1.01554722  1
  O  O282  1  0.47132356  0.87493374  0.50852810  1
  O  O283  1  0.49884555  0.90985364  0.99354404  1
  O  O284  1  0.98580476  0.37698763  0.51276016  1
  O  O285  1  1.00522995  0.36324449  0.98838173  1
  O  O286  1  1.00498175  0.88257034  0.48702053  1
  O  O287  1  0.99530363  0.87756623  1.00194578  1
  O  O288  1  0.50482373  0.47831622  0.35185110  1
  O  O289  1  0.51285386  0.50193726  0.90948321  1
  O  O290  1  0.48467270  1.00183159  0.35870568  1
  O  O291  1  0.46188780  0.99147979  0.86832353  1
  O  O292  1  0.98533960  0.50488708  0.37282041  1
  O  O293  1  1.01131072  0.47321533  0.87068166  1
  O  O294  1  1.00464725  1.00202210  0.38566374  1
  O  O295  1  1.00549140  1.00938110  0.88915975  1
  O  O296  1  0.01384728  -0.00325607  0.13381500  1
  O  O297  1  0.00766943  0.02114776  0.62280873  1
  O  O298  1  0.01767302  0.49267646  0.12497916  1
  O  O299  1  -0.01562962  0.51062677  0.62971068  1
  O  O300  1  0.42797937  0.02062443  0.09053421  1
  O  O301  1  0.50688924  0.00421614  0.62029128  1
  O  O302  1  0.50167683  0.50605006  0.12134134  1
  O  O303  1  0.55222756  0.50620146  0.66363333  1
  O  O304  1  0.24855116  0.38936448  0.24255091  1
  O  O305  1  0.31749175  0.32952316  0.73993791  1
  O  O306  1  0.24256445  0.88793493  0.23211772  1
  O  O307  1  0.23194066  0.88444572  0.72697479  1
  O  O308  1  0.74325354  0.37932749  0.25574358  1
  O  O309  1  0.74350182  0.35887747  0.72417374  1
  O  O310  1  0.77295029  0.88150091  0.26938897  1
  O  O311  1  0.74324070  0.88093148  0.73342570  1
  O  O312  1  0.24939132  0.10670805  0.25443499  1
  O  O313  1  0.25043080  0.14267517  0.76369700  1
  O  O314  1  0.24742385  0.61596197  0.26202057  1
  O  O315  1  0.25212305  0.63412046  0.76313957  1
  O  O316  1  0.77227639  0.12071289  0.26190721  1
  O  O317  1  0.77903158  0.13058016  0.77628414  1
  O  O318  1  0.74526340  0.60734312  0.28286069  1
  O  O319  1  0.72315692  0.63170723  0.73099792  1
  O  O320  1  0.36223768  0.10811659  0.37241646  1
  O  O321  1  0.35878148  0.14320727  0.87574669  1
  O  O322  1  0.35371239  0.63730699  0.37940041  1
  O  O323  1  0.36799794  0.63027307  0.85716842  1
  O  O324  1  0.87993510  0.12761790  0.36495600  1
  O  O325  1  0.81673403  0.12638141  0.93475734  1
  O  O326  1  0.86601010  0.60598355  0.39367382  1
  O  O327  1  0.86277154  0.63382038  0.87282840  1
  O  O328  1  0.14517583  0.39355109  0.11293450  1
  O  O329  1  0.13383283  0.38871832  0.61696788  1
  O  O330  1  0.13147522  0.88777899  0.11847659  1
  O  O331  1  0.13399280  0.88551518  0.61543620  1
  O  O332  1  0.65436838  0.38707665  0.11405302  1
  O  O333  1  0.63390124  0.35987831  0.61158270  1
  O  O334  1  0.55609991  0.93322888  0.15900106  1
  O  O335  1  0.63578122  0.88509684  0.60391378  1
  O  O336  1  0.13080510  0.24793939  0.26497177  1
  O  O337  1  0.13943284  0.26090759  0.75156323  1
  O  O338  1  0.12403470  0.74790168  0.22677922  1
  O  O339  1  0.11964644  0.77540733  0.74114965  1
  O  O340  1  0.61838642  0.24547573  0.24160561  1
  O  O341  1  0.71145008  0.15332478  0.76761405  1
  O  O342  1  0.40435345  0.63815904  0.17632218  1
  O  O343  1  0.60225986  0.75682277  0.71214609  1
  O  O344  1  0.36544394  0.25155029  0.23891872  1
  O  O345  1  0.36905686  0.27848581  0.74091498  1
  O  O346  1  0.38558180  0.78693064  0.26901021  1
  O  O347  1  0.36466588  0.74962601  0.73139872  1
  O  O348  1  0.87834377  0.24142516  0.25756246  1
  O  O349  1  0.88876766  0.25726270  0.72981813  1
  O  O350  1  0.87028220  0.72235086  0.23097028  1
  O  O351  1  0.86210286  0.74786925  0.73186248  1
  O  O352  1  0.37021283  0.49347938  0.49366251  1
  O  O353  1  0.38446019  0.49582017  0.99742584  1
  O  O354  1  0.37187307  0.99560211  0.48327103  1
  O  O355  1  0.35320971  1.00636290  0.96578047  1
  O  O356  1  0.87533182  0.48849844  0.50515795  1
  O  O357  1  0.86185348  0.50439214  0.96302351  1
  O  O358  1  0.90119467  0.97926868  0.51353940  1
  O  O359  1  0.89253248  0.97807183  1.00780674  1
  O  O360  1  0.11476744  -0.00117984  0.00930413  1
  O  O361  1  0.11285159  -0.00011354  0.49912021  1
  O  O362  1  0.13932812  0.51195875  0.00849282  1
  O  O363  1  0.13679604  0.51245249  0.52157208  1
  O  O364  1  0.65022567  -0.03026501  0.04124130  1
  O  O365  1  0.63080401  0.01327347  0.50610870  1
  O  O366  1  0.60692081  0.52608202  0.02233604  1
  O  O367  1  0.61589444  0.50255197  0.49777725  1
  O  O368  1  0.35642783  0.36495662  0.12815027  1
  O  O369  1  0.40848959  0.37796963  0.59373811  1
  O  O370  1  0.35690826  0.87886561  0.12270578  1
  O  O371  1  0.35019623  0.87005905  0.61923217  1
  O  O372  1  0.82899699  0.41102304  0.11687611  1
  O  O373  1  0.86438715  0.36546612  0.62195698  1
  O  O374  1  0.88573997  0.87145270  0.12734800  1
  O  O375  1  0.86925009  0.86894669  0.62212831  1
  O  O376  1  0.14224112  0.12434664  0.37251373  1
  O  O377  1  0.12996786  0.14642096  0.87771869  1
  O  O378  1  0.12613634  0.61562376  0.39103619  1
  O  O379  1  0.13931611  0.60929420  0.88126845  1
  O  O380  1  0.64942218  0.11113851  0.38572619  1
  O  O381  1  0.66011429  0.07087431  0.87489073  1
  O  O382  1  0.63958502  0.62509565  0.39312774  1
  O  O383  1  0.66169159  0.60187853  0.75773863  1
