# generated using pymatgen
data_VZnO4
_symmetry_space_group_name_H-M   'P 1'
_cell_length_a   16.88230640
_cell_length_b   16.91461206
_cell_length_c   16.89076279
_cell_angle_alpha   90.31356168
_cell_angle_beta   90.12946337
_cell_angle_gamma   90.41269386
_symmetry_Int_Tables_number   1
_chemical_formula_structural   VZnO4
_chemical_formula_sum   'V64 Zn64 O256'
_cell_volume   4823.07666074
_cell_formula_units_Z   64
loop_
 _symmetry_equiv_pos_site_id
 _symmetry_equiv_pos_as_xyz
  1  'x, y, z'
loop_
 _atom_site_type_symbol
 _atom_site_label
 _atom_site_symmetry_multiplicity
 _atom_site_fract_x
 _atom_site_fract_y
 _atom_site_fract_z
 _atom_site_occupancy
  V  V0  1  0.36892340  0.26881460  0.62302971  1
  V  V1  1  0.76948589  0.75110974  0.45998197  1
  V  V2  1  0.00917505  0.36626715  0.35830376  1
  V  V3  1  0.55814484  0.81462731  0.35076113  1
  V  V4  1  0.50813765  0.37036815  0.87845745  1
  V  V5  1  -0.00619727  0.88367469  0.88217519  1
  V  V6  1  0.61383944  0.13441251  -0.03391044  1
  V  V7  1  -0.00054630  0.74875516  0.74703011  1
  V  V8  1  0.72933268  0.62162018  0.91465716  1
  V  V9  1  0.73139060  0.11934025  0.39191450  1
  V  V10  1  0.25792607  0.76472759  -0.00393128  1
  V  V11  1  0.37137767  0.23184839  0.11984818  1
  V  V12  1  0.87721316  0.37532584  0.50231782  1
  V  V13  1  0.37253217  0.61858501  0.74731627  1
  V  V14  1  0.11819685  0.61804794  0.00289756  1
  V  V15  1  0.89479934  0.13352524  0.78259252  1
  V  V16  1  0.87565331  0.24563989  0.63880396  1
  V  V17  1  0.11858340  0.12555890  0.00182641  1
  V  V18  1  0.87724674  0.49217594  0.35497283  1
  V  V19  1  0.49701371  0.25512234  0.74324513  1
  V  V20  1  0.37671964  0.74722029  0.12411156  1
  V  V21  1  0.50095055  0.26145813  0.26319640  1
  V  V22  1  0.35878646  0.61856739  0.25034735  1
  V  V23  1  0.24969129  0.24983016  0.49599986  1
  V  V24  1  0.23903773  0.49381769  0.21778719  1
  V  V25  1  0.01708070  0.48897529  0.50893668  1
  V  V26  1  0.43479266  0.44165069  0.42946422  1
  V  V27  1  0.12420922  0.75119588  0.87196548  1
  V  V28  1  0.38634845  0.12038084  0.26529902  1
  V  V29  1  0.61595773  0.41259299  0.24225077  1
  V  V30  1  0.11289232  0.76171292  0.37636247  1
  V  V31  1  0.12983976  0.23998485  0.37064332  1
  V  V32  1  0.22408751  0.38631047  0.63327459  1
  V  V33  1  0.89477188  0.02100115  0.41556359  1
  V  V34  1  0.24991009  0.75647198  0.50214089  1
  V  V35  1  0.24814854  0.00713233  0.25696336  1
  V  V36  1  0.75015687  0.02246350  0.74619839  1
  V  V37  1  0.13580479  0.88764398  0.73885652  1
  V  V38  1  0.23640749  0.60910342  0.38749248  1
  V  V39  1  0.38494004  -0.01730681  0.38895318  1
  V  V40  1  0.49712571  0.89863730  0.86429737  1
  V  V41  1  0.51003429  0.50191677  0.00504621  1
  V  V42  1  0.74904972  0.39736563  0.62504821  1
  V  V43  1  0.88153435  0.75075710  0.12850931  1
  V  V44  1  0.50159678  0.62105836  0.12625625  1
  V  V45  1  0.50696378  0.74602759  0.75674488  1
  V  V46  1  0.86867609  0.76080980  0.62056278  1
  V  V47  1  0.48842948  0.00762978  0.01685528  1
  V  V48  1  0.36248385  0.37156156  0.00822948  1
  V  V49  1  0.36493451  0.12328750  0.74509813  1
  V  V50  1  0.51257413  0.61199528  0.61671302  1
  V  V51  1  0.11845400  -0.00530139  0.11516721  1
  V  V52  1  0.63477438  0.87085379  0.73303010  1
  V  V53  1  0.36958108  0.49700554  0.87402395  1
  V  V54  1  0.72587010  0.25105025  0.51154344  1
  V  V55  1  0.37929299  0.75531195  0.61772820  1
  V  V56  1  0.01375151  0.61586067  0.61911912  1
  V  V57  1  0.24960248  0.87056637  0.14399909  1
  V  V58  1  0.63084414  0.39105363  0.74880881  1
  V  V59  1  0.11329612  0.34771359  0.78228928  1
  V  V60  1  0.87053361  0.60218588  0.74035599  1
  V  V61  1  0.12960990  0.36904042  0.22139068  1
  V  V62  1  0.25517659  0.12382213  0.88773462  1
  V  V63  1  0.25425880  0.62378545  0.87178728  1
  Zn  Zn64  1  0.19029587  0.18502860  0.18213947  1
  Zn  Zn65  1  0.18990806  0.18844950  0.68868373  1
  Zn  Zn66  1  0.13926029  0.66144762  0.20988962  1
  Zn  Zn67  1  0.19185709  0.68840587  0.68608379  1
  Zn  Zn68  1  0.61093472  0.12009123  0.27041350  1
  Zn  Zn69  1  0.68052547  0.20039816  0.68734638  1
  Zn  Zn70  1  0.67698209  0.70154337  0.08847125  1
  Zn  Zn71  1  0.69367265  0.68011016  0.68878884  1
  Zn  Zn72  1  0.31158300  0.31493416  0.30612302  1
  Zn  Zn73  1  0.30266373  0.31140058  0.81365877  1
  Zn  Zn74  1  0.31056606  0.80175992  0.31786773  1
  Zn  Zn75  1  0.31392920  0.80569691  0.80853203  1
  Zn  Zn76  1  0.69192659  0.28896822  0.31845382  1
  Zn  Zn77  1  0.81917097  0.32736623  0.81320111  1
  Zn  Zn78  1  0.85686207  0.86038239  0.29284385  1
  Zn  Zn79  1  0.81013597  0.78988580  0.82068672  1
  Zn  Zn80  1  0.19462607  0.42625423  0.43861673  1
  Zn  Zn81  1  0.15729846  0.46067013  0.89624881  1
  Zn  Zn82  1  0.19864428  0.93649038  0.44673789  1
  Zn  Zn83  1  0.19455326  0.94398163  0.92287101  1
  Zn  Zn84  1  0.67863835  0.45150015  0.41514260  1
  Zn  Zn85  1  0.72076784  0.45654401  0.98890890  1
  Zn  Zn86  1  0.73276746  0.91507140  0.40836808  1
  Zn  Zn87  1  0.67613698  0.95568629  0.90726447  1
  Zn  Zn88  1  0.31241020  0.05268295  0.06184776  1
  Zn  Zn89  1  0.37819792  0.10980412  0.52764925  1
  Zn  Zn90  1  0.30830952  0.56436497  0.05029053  1
  Zn  Zn91  1  0.31084461  0.55160818  0.56339498  1
  Zn  Zn92  1  0.75187879  0.01874943  0.04658362  1
  Zn  Zn93  1  0.80448470  0.06049921  0.57238252  1
  Zn  Zn94  1  0.82092494  0.56982765  0.08431217  1
  Zn  Zn95  1  0.81744699  0.56990366  0.54646595  1
  Zn  Zn96  1  0.43370575  0.43772026  0.19208510  1
  Zn  Zn97  1  0.43170766  0.43663599  0.68703902  1
  Zn  Zn98  1  0.44710918  0.92652385  0.20352074  1
  Zn  Zn99  1  0.40375190  0.92080899  0.72297230  1
  Zn  Zn100  1  0.80223389  0.42115848  0.18282118  1
  Zn  Zn101  1  0.95336796  0.42302685  0.69001119  1
  Zn  Zn102  1  0.90384868  0.96279429  0.14536391  1
  Zn  Zn103  1  0.90869438  0.92642918  0.73913595  1
  Zn  Zn104  1  0.06780166  0.04543314  0.31210739  1
  Zn  Zn105  1  0.07062919  0.06349780  0.81824186  1
  Zn  Zn106  1  0.03656714  0.57331100  0.32918832  1
  Zn  Zn107  1  0.05929690  0.55837834  0.80589460  1
  Zn  Zn108  1  0.53819529  0.07969207  0.44796610  1
  Zn  Zn109  1  0.56840273  0.06917728  0.78052759  1
  Zn  Zn110  1  0.54611386  0.59249564  0.32301801  1
  Zn  Zn111  1  0.55912143  0.56384653  0.81793580  1
  Zn  Zn112  1  0.50645533  0.26390631  0.48214030  1
  Zn  Zn113  1  0.43519393  0.18491605  0.93312400  1
  Zn  Zn114  1  0.47755231  0.71886569  0.45524117  1
  Zn  Zn115  1  0.55155735  0.70027250  0.94495821  1
  Zn  Zn116  1  0.93690088  0.19147519  0.44896153  1
  Zn  Zn117  1  0.92564448  0.04929089  0.96214945  1
  Zn  Zn118  1  0.92682936  0.67720595  0.43915327  1
  Zn  Zn119  1  0.93260355  0.68573623  0.92900274  1
  Zn  Zn120  1  0.15827125  0.32802402  0.00551918  1
  Zn  Zn121  1  0.05879737  0.28615669  0.56526477  1
  Zn  Zn122  1  0.06973743  0.81257743  0.05826232  1
  Zn  Zn123  1  0.07188808  0.79868855  0.56698994  1
  Zn  Zn124  1  0.55896813  0.30483529  0.07721437  1
  Zn  Zn125  1  0.57043046  0.44683487  0.55318378  1
  Zn  Zn126  1  0.60791455  0.86798855  0.01939215  1
  Zn  Zn127  1  0.62909054  0.81937499  0.52444170  1
  O  O128  1  0.13789778  0.10446894  0.11642440  1
  O  O129  1  0.13451698  0.10277555  0.61430718  1
  O  O130  1  0.13825328  0.63654104  0.10006188  1
  O  O131  1  0.11260334  0.62854789  0.62640374  1
  O  O132  1  0.68208925  0.05459131  0.14389546  1
  O  O133  1  0.59683775  0.11563638  0.64652154  1
  O  O134  1  0.59896934  0.63004080  0.14098659  1
  O  O135  1  0.61053228  0.62251968  0.63561138  1
  O  O136  1  0.37645694  0.38727549  0.36537640  1
  O  O137  1  0.37769183  0.38316361  0.88081578  1
  O  O138  1  0.36704522  0.88331236  0.37449025  1
  O  O139  1  0.39442920  0.88064005  0.83662505  1
  O  O140  1  0.89885407  0.37532420  0.38575145  1
  O  O141  1  0.88306358  0.38171593  0.89432128  1
  O  O142  1  0.84428627  0.93929978  0.37218631  1
  O  O143  1  0.89325295  0.86842580  0.85156686  1
  O  O144  1  0.24960876  -0.00534648  0.35821062  1
  O  O145  1  0.25541657  0.01966511  0.86758729  1
  O  O146  1  0.23806411  0.50836195  0.37298621  1
  O  O147  1  0.26225599  0.51158238  0.88300575  1
  O  O148  1  0.73688618  0.02657680  0.43586803  1
  O  O149  1  0.76236951  -0.01638051  0.84117472  1
  O  O150  1  0.77983247  0.49483609  0.37790397  1
  O  O151  1  0.75699776  0.52515585  0.90132928  1
  O  O152  1  0.24061845  0.49856165  0.11927091  1
  O  O153  1  0.23695349  0.48628972  0.62569434  1
  O  O154  1  0.25814916  0.98048046  0.13582811  1
  O  O155  1  0.17812034  1.04880153  0.57838278  1
  O  O156  1  0.78419846  0.46756966  0.08267854  1
  O  O157  1  0.75854745  0.49522662  0.61566713  1
  O  O158  1  0.64860016  0.99095115  0.17595141  1
  O  O159  1  0.76227362  0.98805789  0.64924218  1
  O  O160  1  0.01788027  0.37097367  0.25683159  1
  O  O161  1  0.01318653  0.36797983  0.76631973  1
  O  O162  1  -0.04990405  0.90455845  0.23542564  1
  O  O163  1  0.01343347  0.86281803  0.75599586  1
  O  O164  1  0.50414707  0.37056000  0.25357197  1
  O  O165  1  0.50401643  0.37865210  0.76271877  1
  O  O166  1  0.50004375  0.85579426  0.27766889  1
  O  O167  1  0.51068865  0.85715557  0.74308169  1
  O  O168  1  0.48840710  0.13255039  0.25119037  1
  O  O169  1  0.49058963  0.15239237  0.74841032  1
  O  O170  1  0.46778701  0.61073992  0.23220956  1
  O  O171  1  0.49148708  0.62913656  0.74836911  1
  O  O172  1  0.98238765  0.11685855  0.23142692  1
  O  O173  1  0.99366782  0.13418502  0.77000608  1
  O  O174  1  1.03782998  0.61460204  0.22776046  1
  O  O175  1  0.99825562  0.62731434  0.73498949  1
  O  O176  1  0.38278003  0.25927517  0.01150155  1
  O  O177  1  0.36482014  0.27292310  0.51921512  1
  O  O178  1  0.35984559  0.74767466  0.01291196  1
  O  O179  1  0.37451160  0.74192140  0.51137119  1
  O  O180  1  0.85171271  0.23060370  0.02458509  1
  O  O181  1  0.86763261  0.26478402  0.51766855  1
  O  O182  1  0.88337963  0.72984849  0.02433927  1
  O  O183  1  0.88545283  0.77046059  0.51917957  1
  O  O184  1  0.13906708  0.24724779  0.48272305  1
  O  O185  1  0.12514124  0.22392756  1.02071436  1
  O  O186  1  0.14407804  0.74244841  0.49985298  1
  O  O187  1  0.13725132  0.74845902  0.98601933  1
  O  O188  1  0.62802615  0.26319907  0.51431045  1
  O  O189  1  0.60074010  0.23054899  1.00488582  1
  O  O190  1  0.67197379  0.72108156  0.46324454  1
  O  O191  1  0.61177939  0.75840196  1.01968283  1
  O  O192  1  0.47575790  0.25911746  0.14572173  1
  O  O193  1  0.47781043  0.27840774  0.63939457  1
  O  O194  1  0.47843505  0.73374974  0.12353714  1
  O  O195  1  0.48457798  0.72898139  0.63540375  1
  O  O196  1  0.91295522  0.27440672  0.16469977  1
  O  O197  1  0.97208711  0.27000466  0.64493025  1
  O  O198  1  0.98673955  0.76255757  0.12486281  1
  O  O199  1  0.99512836  0.73618350  0.62856342  1
  O  O200  1  0.01404098  0.25969536  0.37701509  1
  O  O201  1  -0.05529355  0.33077487  0.91997467  1
  O  O202  1  0.01452957  0.74059086  0.39499359  1
  O  O203  1  0.00802500  0.75087449  0.86417216  1
  O  O204  1  0.49040782  0.25515647  0.36136862  1
  O  O205  1  0.48757012  0.26798774  0.86362085  1
  O  O206  1  0.54005541  0.70691024  0.35127587  1
  O  O207  1  0.49329131  0.74942961  0.85847498  1
  O  O208  1  0.26932599  0.15278976  0.49776527  1
  O  O209  1  0.25246971  0.12105541  0.99321593  1
  O  O210  1  0.25540591  0.62215688  0.48827506  1
  O  O211  1  0.24517503  0.63781975  0.98445874  1
  O  O212  1  0.74185179  0.14927125  0.52312677  1
  O  O213  1  0.70997691  0.11313062  0.99397257  1
  O  O214  1  0.81316814  0.65055710  0.46934076  1
  O  O215  1  0.73375165  0.62411799  1.02012605  1
  O  O216  1  0.26324444  0.37379457  -0.00461100  1
  O  O217  1  0.24081455  0.36617532  0.52094412  1
  O  O218  1  0.25311189  0.86540002  -0.00926859  1
  O  O219  1  0.25629737  0.85528679  0.50549964  1
  O  O220  1  0.73548238  0.33114673  -0.02552832  1
  O  O221  1  0.75541530  0.36988067  0.51477847  1
  O  O222  1  0.70859572  0.91779305  0.01151730  1
  O  O223  1  0.74259009  0.84971317  0.50271508  1
  O  O224  1  0.13233300  0.47825385  0.23791394  1
  O  O225  1  0.12412061  0.47165705  0.78596791  1
  O  O226  1  0.14168403  1.00325046  0.23563571  1
  O  O227  1  0.11894257  0.98665163  0.74936655  1
  O  O228  1  0.61131966  0.51212117  0.25696085  1
  O  O229  1  0.62295610  0.48931992  0.75999922  1
  O  O230  1  0.60846640  1.00408673  0.24306164  1
  O  O231  1  0.63938927  0.98188083  0.74195406  1
  O  O232  1  0.37112164  0.00320555  0.25731521  1
  O  O233  1  0.38977081  0.02993185  0.71743241  1
  O  O234  1  0.35041771  0.50674914  0.23588740  1
  O  O235  1  0.38052628  0.50644562  0.76492029  1
  O  O236  1  0.91518710  0.08809183  0.21686000  1
  O  O237  1  0.87133796  0.03347937  0.74622850  1
  O  O238  1  0.87766868  0.47014717  0.25594242  1
  O  O239  1  0.88073914  0.50352208  0.73473583  1
  O  O240  1  0.11769065  0.36487187  0.37227476  1
  O  O241  1  0.12933796  0.34739323  0.88883030  1
  O  O242  1  0.12434898  0.86264265  0.39479236  1
  O  O243  1  0.11589081  0.86719514  0.86722696  1
  O  O244  1  0.62244551  0.37786748  0.35045913  1
  O  O245  1  0.60932189  0.37599144  0.86699453  1
  O  O246  1  0.64930695  0.85845439  0.34698394  1
  O  O247  1  0.60379051  0.87512117  0.85425390  1
  O  O248  1  0.37437949  0.12955201  0.12970723  1
  O  O249  1  0.36498641  0.15831284  0.63608307  1
  O  O250  1  0.36583083  0.63295420  0.12503342  1
  O  O251  1  0.37886097  0.61501015  0.63833491  1
  O  O252  1  0.90043477  0.19357662  0.06241379  1
  O  O253  1  0.87130871  0.14614860  0.62922691  1
  O  O254  1  0.88709464  0.64440923  0.13970795  1
  O  O255  1  0.88704023  0.62832186  0.63174882  1
  O  O256  1  0.27239317  0.25095259  0.13311767  1
  O  O257  1  0.24849937  0.25956800  0.61650198  1
  O  O258  1  0.24789737  0.76537230  0.10971276  1
  O  O259  1  0.26724755  0.73366509  0.61241229  1
  O  O260  1  0.75907683  0.23147363  0.11161042  1
  O  O261  1  0.75243941  0.26710486  0.62456119  1
  O  O262  1  0.77563988  0.74487382  0.13677641  1
  O  O263  1  0.76921851  0.73515837  0.62200650  1
  O  O264  1  0.24146265  0.26350479  0.38394637  1
  O  O265  1  0.25662610  0.22805181  0.87544044  1
  O  O266  1  0.24600050  0.73847024  0.39053731  1
  O  O267  1  0.24727063  0.74569332  0.88143817  1
  O  O268  1  0.74549079  0.23755826  0.40286690  1
  O  O269  1  0.74136233  0.28937578  0.91202182  1
  O  O270  1  0.80200267  0.78097557  0.36709701  1
  O  O271  1  0.79620221  0.69966272  0.89055041  1
  O  O272  1  0.02035509  0.10995681  -0.00436977  1
  O  O273  1  0.01744386  0.18333647  0.52676151  1
  O  O274  1  0.01949064  0.63661756  -0.01070385  1
  O  O275  1  -0.00409203  0.60344765  0.51238403  1
  O  O276  1  0.49866590  0.11647556  0.00036314  1
  O  O277  1  0.47953408  0.15578774  0.50347661  1
  O  O278  1  0.50003119  0.61152824  0.00999451  1
  O  O279  1  0.50091235  0.62694159  0.51824577  1
  O  O280  1  0.49960719  0.37938975  0.48971414  1
  O  O281  1  0.49066036  0.38250369  0.98966323  1
  O  O282  1  0.53239471  0.82707977  0.45439105  1
  O  O283  1  0.50127866  0.89800711  0.97212731  1
  O  O284  1  0.99536980  0.38002839  0.51239511  1
  O  O285  1  0.97499430  0.34911432  0.98591573  1
  O  O286  1  1.01245374  0.90351618  0.52343185  1
  O  O287  1  1.00165499  0.86420087  0.98027828  1
  O  O288  1  0.49287026  0.51046354  0.38092957  1
  O  O289  1  0.49086156  0.49412822  0.88762606  1
  O  O290  1  0.48615384  0.99406166  0.38985358  1
  O  O291  1  0.49951611  0.99498329  0.83976763  1
  O  O292  1  1.00610427  0.47716872  0.38982052  1
  O  O293  1  0.96040118  0.53588393  0.86948670  1
  O  O294  1  0.99194509  1.01574935  0.38609670  1
  O  O295  1  0.99690808  0.98783751  0.88038600  1
  O  O296  1  0.02071980  -0.01304684  0.12064145  1
  O  O297  1  0.01318974  -0.04194502  0.57287350  1
  O  O298  1  -0.00765608  0.49151812  0.10721778  1
  O  O299  1  0.00508897  0.50463156  0.62014592  1
  O  O300  1  0.49662394  -0.01633691  0.11534687  1
  O  O301  1  0.57628329  0.01921173  0.55464550  1
  O  O302  1  0.48638068  0.50924698  0.11244962  1
  O  O303  1  0.49980565  0.50553960  0.62755454  1
  O  O304  1  0.24107311  0.38417431  0.24098221  1
  O  O305  1  0.22474851  0.36566730  0.74544709  1
  O  O306  1  0.24822395  0.87734908  0.24550348  1
  O  O307  1  0.23501499  0.87090678  0.75790000  1
  O  O308  1  0.72007187  0.37382401  0.24104019  1
  O  O309  1  0.73938027  0.37751235  0.74469231  1
  O  O310  1  0.80980817  0.92857981  0.20932504  1
  O  O311  1  0.72864026  0.84190489  0.75951730  1
  O  O312  1  0.26430152  0.10971426  0.24356577  1
  O  O313  1  0.26108266  0.12472768  0.75225002  1
  O  O314  1  0.24063671  0.60441252  0.24764115  1
  O  O315  1  0.25943393  0.63201642  0.76108334  1
  O  O316  1  0.73815670  0.11074535  0.29274641  1
  O  O317  1  0.73965937  0.12369553  0.74982577  1
  O  O318  1  0.76105116  0.61508354  0.26337336  1
  O  O319  1  0.77100197  0.61954676  0.75093598  1
  O  O320  1  0.37517670  0.11003647  0.36320294  1
  O  O321  1  0.37137140  0.12618662  0.85598081  1
  O  O322  1  0.35104779  0.62618689  0.35107066  1
  O  O323  1  0.36842690  0.61529067  0.86620366  1
  O  O324  1  0.86203348  0.12085560  0.39524041  1
  O  O325  1  0.88187408  0.12513111  0.88125104  1
  O  O326  1  0.91716586  0.58995950  0.35700439  1
  O  O327  1  0.90629660  0.59543812  0.85635926  1
  O  O328  1  0.12326841  0.35932389  0.12361092  1
  O  O329  1  0.12284604  0.36282362  0.63051357  1
  O  O330  1  0.14249231  0.88108054  0.11905313  1
  O  O331  1  0.12801642  0.86719376  0.63942313  1
  O  O332  1  0.60433594  0.38920515  0.14071544  1
  O  O333  1  0.63716692  0.38881626  0.63827775  1
  O  O334  1  0.65069801  0.83803471  0.17831366  1
  O  O335  1  0.62538045  0.85750325  0.63363856  1
  O  O336  1  0.14020557  0.26232200  0.25702631  1
  O  O337  1  0.11847688  0.24970629  0.75270243  1
  O  O338  1  0.12973967  0.75425120  0.27526141  1
  O  O339  1  0.11906733  0.75003022  0.75682284  1
  O  O340  1  0.60452352  0.23714914  0.24960399  1
  O  O341  1  0.60416578  0.27027940  0.74073049  1
  O  O342  1  0.63964284  0.77208420  0.20805049  1
  O  O343  1  0.60948974  0.74441134  0.74543816  1
  O  O344  1  0.37707195  0.23447986  0.24939043  1
  O  O345  1  0.37920517  0.25163744  0.74681341  1
  O  O346  1  0.35079600  0.72971266  0.23408606  1
  O  O347  1  0.38068593  0.73567131  0.74006648  1
  O  O348  1  0.79473431  0.19616235  0.16360906  1
  O  O349  1  0.85896830  0.23794853  0.75319182  1
  O  O350  1  0.88788663  0.76320326  0.23253261  1
  O  O351  1  0.89005419  0.73154947  0.74666481  1
  O  O352  1  0.37483234  0.48906034  0.49525464  1
  O  O353  1  0.38026057  0.48931938  0.99252485  1
  O  O354  1  0.35656568  1.00462362  0.48451703  1
  O  O355  1  0.38929135  1.00317249  0.99398370  1
  O  O356  1  0.88696577  0.48421545  0.49747895  1
  O  O357  1  0.94709411  0.50219521  1.05130715  1
  O  O358  1  0.89052480  1.01234457  0.51570279  1
  O  O359  1  0.86558135  1.01601175  1.05262734  1
  O  O360  1  0.13873074  0.00054767  0.01110138  1
  O  O361  1  0.14481333  0.02237383  0.51016347  1
  O  O362  1  0.12575235  0.51646982  -0.01101109  1
  O  O363  1  0.11447563  0.49046186  0.50100259  1
  O  O364  1  0.59369945  0.01835592  -0.02452526  1
  O  O365  1  0.62831085  0.06208022  0.59335612  1
  O  O366  1  0.60780695  0.48877406  0.00156700  1
  O  O367  1  0.64621066  0.51003800  0.50074255  1
  O  O368  1  0.37507180  0.37755302  0.10880783  1
  O  O369  1  0.34633065  0.37094236  0.64810516  1
  O  O370  1  0.36494693  0.85563967  0.13967311  1
  O  O371  1  0.38011409  0.85370601  0.63251740  1
  O  O372  1  0.88601801  0.33317502  0.13003627  1
  O  O373  1  0.86116625  0.37409885  0.62701637  1
  O  O374  1  0.86820542  0.85036197  0.10158789  1
  O  O375  1  0.87614554  0.85551462  0.65523127  1
  O  O376  1  0.12183646  0.14220925  0.35443765  1
  O  O377  1  0.13948667  0.11909249  0.89227143  1
  O  O378  1  0.13448359  0.63090529  0.37619661  1
  O  O379  1  0.13491039  0.63567181  0.87335669  1
  O  O380  1  0.62384226  0.12659497  0.39011661  1
  O  O381  1  0.61106059  0.13832140  0.86481294  1
  O  O382  1  0.71033879  0.65098145  0.30094251  1
  O  O383  1  0.62933776  0.63255923  0.88247649  1
