# generated using pymatgen
data_VZnO4
_symmetry_space_group_name_H-M   'P 1'
_cell_length_a   16.97411174
_cell_length_b   16.98469380
_cell_length_c   17.02335085
_cell_angle_alpha   89.89713872
_cell_angle_beta   90.12152220
_cell_angle_gamma   89.91446647
_symmetry_Int_Tables_number   1
_chemical_formula_structural   VZnO4
_chemical_formula_sum   'V64 Zn64 O256'
_cell_volume   4907.80914269
_cell_formula_units_Z   64
loop_
 _symmetry_equiv_pos_site_id
 _symmetry_equiv_pos_as_xyz
  1  'x, y, z'
loop_
 _atom_site_type_symbol
 _atom_site_label
 _atom_site_symmetry_multiplicity
 _atom_site_fract_x
 _atom_site_fract_y
 _atom_site_fract_z
 _atom_site_occupancy
  V  V0  1  0.25739637  0.74277355  -0.01747495  1
  V  V1  1  0.57746405  0.92466107  0.81251162  1
  V  V2  1  0.63275350  0.35424160  0.75005426  1
  V  V3  1  0.25452182  0.84222300  0.12815288  1
  V  V4  1  0.63341092  0.75770677  0.87125081  1
  V  V5  1  0.74091194  0.88725524  0.62910838  1
  V  V6  1  -0.00642103  0.02778537  0.00374453  1
  V  V7  1  0.13330604  0.62744268  0.50831190  1
  V  V8  1  0.87836419  0.75583288  0.63729049  1
  V  V9  1  0.51136020  0.37055677  0.35240058  1
  V  V10  1  0.49262399  0.11320064  0.13380648  1
  V  V11  1  0.60734684  0.75686963  0.37581058  1
  V  V12  1  0.75370974  0.74953203  0.49219135  1
  V  V13  1  0.24948350  0.38354015  0.13718994  1
  V  V14  1  0.62031843  0.62259282  -0.00114052  1
  V  V15  1  0.36717115  0.75942475  0.63135616  1
  V  V16  1  0.62689824  0.62922676  0.49896593  1
  V  V17  1  0.48595699  -0.00363179  0.49513913  1
  V  V18  1  0.63752719  0.24982158  0.36422379  1
  V  V19  1  0.74760444  0.25621526  0.51040349  1
  V  V20  1  0.11352206  0.88781284  0.76509433  1
  V  V21  1  0.62761568  0.00211570  0.11343676  1
  V  V22  1  0.87065009  0.61391667  0.75544280  1
  V  V23  1  0.76433515  0.87163749  0.13319029  1
  V  V24  1  0.63696920  0.11148792  0.50469330  1
  V  V25  1  0.88269135  0.72733702  0.13579935  1
  V  V26  1  0.00371455  0.61818913  0.64342589  1
  V  V27  1  0.86601641  0.11104988  0.75688377  1
  V  V28  1  0.49616657  0.48589968  0.50300777  1
  V  V29  1  0.39416555  0.26625440  0.12606990  1
  V  V30  1  -0.02145335  0.49973731  -0.01325729  1
  V  V31  1  0.50186534  0.13063529  0.62659472  1
  V  V32  1  0.00505910  0.85351334  0.35061195  1
  V  V33  1  0.76224258  0.76693557  -0.00395025  1
  V  V34  1  0.11628283  0.73954069  0.86801588  1
  V  V35  1  0.75699539  0.01074671  0.25747283  1
  V  V36  1  0.88589882  0.25854535  0.62393595  1
  V  V37  1  0.25479308  0.24946257  0.49200673  1
  V  V38  1  0.50015237  0.63309628  0.62667342  1
  V  V39  1  0.75878198  0.61721372  0.87414027  1
  V  V40  1  -0.00278272  0.50049656  0.50083144  1
  V  V41  1  0.71906674  0.53259483  0.25527665  1
  V  V42  1  0.36084398  0.12441162  0.75589833  1
  V  V43  1  0.50821937  0.75731099  0.75553312  1
  V  V44  1  0.86750471  0.38615625  0.49513847  1
  V  V45  1  0.68945690  0.40432638  0.10374575  1
  V  V46  1  0.88465223  0.00641773  0.36842339  1
  V  V47  1  0.61436235  0.87974375  0.25885445  1
  V  V48  1  0.11736498  0.00296210  0.61491803  1
  V  V49  1  0.61041818  0.11677858  -0.03205401  1
  V  V50  1  0.36780132  0.87420689  0.49424464  1
  V  V51  1  0.49123951  0.38950908  0.86153536  1
  V  V52  1  0.26119513  0.47796545  0.78624532  1
  V  V53  1  0.01418553  0.25917499  0.25337130  1
  V  V54  1  0.88711007  0.87451386  0.49372538  1
  V  V55  1  0.12525778  0.61199139  0.01645756  1
  V  V56  1  0.12653008  0.02838757  0.11924825  1
  V  V57  1  0.26226840  0.24571125  -0.01491980  1
  V  V58  1  0.25137919  0.02569891  0.24185526  1
  V  V59  1  0.36509283  0.63144831  0.76216749  1
  V  V60  1  -0.01271573  0.87617376  0.89553202  1
  V  V61  1  0.25014596  0.88813129  0.64074884  1
  V  V62  1  -0.00665454  0.11804174  0.61151418  1
  V  V63  1  0.63368204  0.50389110  0.64005974  1
  Zn  Zn64  1  0.20001763  0.20144694  0.17624641  1
  Zn  Zn65  1  0.15433710  0.13418261  0.75262123  1
  Zn  Zn66  1  0.23177269  0.65283895  0.17017537  1
  Zn  Zn67  1  0.18267993  0.69865794  0.69292473  1
  Zn  Zn68  1  0.70558627  0.19597512  0.17117759  1
  Zn  Zn69  1  0.64772623  0.11159441  0.74688830  1
  Zn  Zn70  1  0.66783394  0.68550628  0.17985777  1
  Zn  Zn71  1  0.69274853  0.69427862  0.68475779  1
  Zn  Zn72  1  0.35252310  0.25130391  0.32806040  1
  Zn  Zn73  1  0.32970449  0.29659810  0.80717252  1
  Zn  Zn74  1  0.30532308  0.89297129  0.30811631  1
  Zn  Zn75  1  0.30555397  0.81750683  0.81448443  1
  Zn  Zn76  1  0.82916354  0.29723344  0.33411467  1
  Zn  Zn77  1  0.75254479  0.25046570  0.73296648  1
  Zn  Zn78  1  0.81257046  0.80371717  0.30986744  1
  Zn  Zn79  1  0.81135319  0.82583121  0.81147324  1
  Zn  Zn80  1  0.15795999  0.42969088  0.45069187  1
  Zn  Zn81  1  0.21308626  0.43558782  0.97498852  1
  Zn  Zn82  1  0.18909273  0.92984555  0.44281888  1
  Zn  Zn83  1  0.15460228  0.90941631  0.98186426  1
  Zn  Zn84  1  0.68611163  0.44007978  0.43636798  1
  Zn  Zn85  1  0.67799448  0.44246377  0.92219733  1
  Zn  Zn86  1  0.69922482  0.93247254  0.43726894  1
  Zn  Zn87  1  0.47694256  0.95537701  0.99246986  1
  Zn  Zn88  1  0.30279042  0.06854693  0.04913301  1
  Zn  Zn89  1  0.31507637  0.06124327  0.57396354  1
  Zn  Zn90  1  0.32637231  0.57377388  -0.05137775  1
  Zn  Zn91  1  0.32392322  0.56635758  0.56288895  1
  Zn  Zn92  1  0.81671224  0.07131823  0.07246122  1
  Zn  Zn93  1  0.81418996  0.06119506  0.55092653  1
  Zn  Zn94  1  0.79389589  0.55531254  0.06817817  1
  Zn  Zn95  1  0.81172022  0.56853655  0.56738350  1
  Zn  Zn96  1  0.40311606  0.40787020  0.23808129  1
  Zn  Zn97  1  0.44411165  0.45251738  0.70031432  1
  Zn  Zn98  1  0.43002760  0.93480478  0.17500694  1
  Zn  Zn99  1  0.44440415  0.95089222  0.68026718  1
  Zn  Zn100  1  0.94778560  0.45226288  0.19953876  1
  Zn  Zn101  1  0.93255771  0.43668620  0.69683548  1
  Zn  Zn102  1  0.94804695  0.94268144  0.18337123  1
  Zn  Zn103  1  0.93291534  0.94076595  0.68974165  1
  Zn  Zn104  1  0.09896899  -0.00463628  0.32962242  1
  Zn  Zn105  1  0.03059067  0.04920899  0.80703214  1
  Zn  Zn106  1  0.06456837  0.57767149  0.33111764  1
  Zn  Zn107  1  0.07513348  0.53892987  0.81978381  1
  Zn  Zn108  1  0.56600287  0.06669315  0.32073634  1
  Zn  Zn109  1  0.49359328  0.07100839  0.82682447  1
  Zn  Zn110  1  0.55705419  0.56064601  0.32781660  1
  Zn  Zn111  1  0.56060657  0.57031727  0.82532653  1
  Zn  Zn112  1  0.46183989  0.18776292  0.43987396  1
  Zn  Zn113  1  0.44082341  0.19267771  0.94508100  1
  Zn  Zn114  1  0.43406435  0.69790275  0.44218388  1
  Zn  Zn115  1  0.46505939  0.75262384  0.97107573  1
  Zn  Zn116  1  1.01046127  0.13449888  0.40372334  1
  Zn  Zn117  1  0.99136185  0.18920735  0.88217820  1
  Zn  Zn118  1  0.97367097  0.71004648  0.46890419  1
  Zn  Zn119  1  0.94317394  0.68440789  0.94519896  1
  Zn  Zn120  1  0.06003662  0.38020688  0.08767777  1
  Zn  Zn121  1  0.05343262  0.30186317  0.53867518  1
  Zn  Zn122  1  0.06631261  0.79859063  0.07166816  1
  Zn  Zn123  1  0.06657854  0.81190611  0.57718472  1
  Zn  Zn124  1  0.57991763  0.29537639  0.06449588  1
  Zn  Zn125  1  0.56874537  0.31389777  0.57581716  1
  Zn  Zn126  1  0.57808962  0.80473631  0.07914187  1
  Zn  Zn127  1  0.55920708  0.81854271  0.56265305  1
  O  O128  1  0.12731372  0.12715703  0.12571465  1
  O  O129  1  0.11103590  0.10732123  0.64194876  1
  O  O130  1  0.14014134  0.61206180  0.11547950  1
  O  O131  1  0.10526106  0.63152374  0.64049739  1
  O  O132  1  0.61990266  0.10323387  0.13486859  1
  O  O133  1  0.62149600  0.12345199  0.60511666  1
  O  O134  1  0.65916771  0.60807143  0.09088800  1
  O  O135  1  0.61690422  0.62677911  0.61965723  1
  O  O136  1  0.40574193  0.35634937  0.34952795  1
  O  O137  1  0.39326181  0.36931915  0.86759640  1
  O  O138  1  0.36400783  0.85954797  0.39657184  1
  O  O139  1  0.36645746  0.89798860  0.88510637  1
  O  O140  1  0.87537784  0.38074913  0.39681920  1
  O  O141  1  0.92864266  0.35725126  0.83746900  1
  O  O142  1  0.88685941  0.86383367  0.38393371  1
  O  O143  1  0.88941310  0.86874899  0.88058433  1
  O  O144  1  0.23211960  -0.01804640  0.34391028  1
  O  O145  1  0.32280754  -0.04362079  0.91440989  1
  O  O146  1  0.19405413  0.46378829  0.34370567  1
  O  O147  1  0.27097045  0.48770664  0.88892317  1
  O  O148  1  0.76893207  -0.00961471  0.36357396  1
  O  O149  1  0.75970167  0.04176479  0.90208177  1
  O  O150  1  0.73238835  0.49616948  0.34986821  1
  O  O151  1  0.75141295  0.52033819  0.86972491  1
  O  O152  1  0.27913861  0.45290412  0.06957660  1
  O  O153  1  0.29492252  0.45274943  0.61025886  1
  O  O154  1  0.23972108  1.01065817  0.12727708  1
  O  O155  1  0.23604499  0.99593746  0.62689860  1
  O  O156  1  0.74467160  0.48459133  0.15700221  1
  O  O157  1  0.73133366  0.51158302  0.62540387  1
  O  O158  1  0.74501718  0.99147355  0.13747876  1
  O  O159  1  0.75836437  0.98495383  0.61280421  1
  O  O160  1  0.00317907  0.36609385  0.26345899  1
  O  O161  1  -0.02062165  0.35925075  0.77457609  1
  O  O162  1  0.00002082  0.86428240  0.25181677  1
  O  O163  1  0.00726760  0.88614579  0.76691454  1
  O  O164  1  0.52249632  0.38693896  0.25594214  1
  O  O165  1  0.50524552  0.37476926  0.75443773  1
  O  O166  1  0.51669011  0.88749952  0.24422594  1
  O  O167  1  0.51039676  0.87275138  0.74708034  1
  O  O168  1  0.50018093  0.10414653  0.23273169  1
  O  O169  1  0.53164458  0.12170196  0.72507125  1
  O  O170  1  0.45842096  0.58309973  0.25606267  1
  O  O171  1  0.49207179  0.63774300  0.74295052  1
  O  O172  1  1.00802574  0.16102346  0.22439949  1
  O  O173  1  0.97513058  0.11396214  0.72453076  1
  O  O174  1  0.98685104  0.57887124  0.24762205  1
  O  O175  1  0.98322934  0.62420673  0.74690181  1
  O  O176  1  0.36877096  0.24888748  0.01359406  1
  O  O177  1  0.36181801  0.24988837  0.47933600  1
  O  O178  1  0.35506564  0.73091995  -0.03190185  1
  O  O179  1  0.38199707  0.76709759  0.52090313  1
  O  O180  1  0.80859536  0.25653001  -0.02140351  1
  O  O181  1  0.86583551  0.27026131  0.50845100  1
  O  O182  1  0.86348290  0.74502999  0.00969758  1
  O  O183  1  0.87060238  0.75544557  0.50771741  1
  O  O184  1  0.15513157  0.23083980  0.50969564  1
  O  O185  1  0.08463916  0.29879231  0.89621821  1
  O  O186  1  0.11007750  0.72869001  0.51465603  1
  O  O187  1  0.12750557  0.73104297  0.98711404  1
  O  O188  1  0.64233980  0.25410260  0.50626647  1
  O  O189  1  0.63644141  0.20540651  1.00292084  1
  O  O190  1  0.62997370  0.75056754  0.49181813  1
  O  O191  1  0.64803041  0.74695976  0.98863777  1
  O  O192  1  0.49889931  0.22330440  0.11243683  1
  O  O193  1  0.50061886  0.22943367  0.60561846  1
  O  O194  1  0.56615453  0.72509754  0.15468517  1
  O  O195  1  0.49416010  0.75088637  0.63702796  1
  O  O196  1  1.01068869  0.28599633  0.15029567  1
  O  O197  1  0.99241585  0.23689947  0.61062964  1
  O  O198  1  0.98109632  0.74473937  0.11765823  1
  O  O199  1  0.98300558  0.73763872  0.62178382  1
  O  O200  1  0.01899639  0.24372638  0.35642040  1
  O  O201  1  -0.06704056  0.29621234  0.88464305  1
  O  O202  1  -0.00157504  0.75295789  0.36940557  1
  O  O203  1  0.01072131  0.76315064  0.88469757  1
  O  O204  1  0.52414642  0.26361079  0.38096905  1
  O  O205  1  0.51703029  0.27772031  0.90652302  1
  O  O206  1  0.50820206  0.75860985  0.37808220  1
  O  O207  1  0.51846560  0.75741018  0.86406235  1
  O  O208  1  0.26673267  0.14618422  0.50618543  1
  O  O209  1  0.23412259  0.15315862  1.01433673  1
  O  O210  1  0.22936050  0.61576575  0.53651673  1
  O  O211  1  0.23342522  0.63126854  0.98619330  1
  O  O212  1  0.74277093  0.13825786  0.50032984  1
  O  O213  1  0.74548670  0.09502943  0.95169838  1
  O  O214  1  0.73557538  0.63590720  0.50865644  1
  O  O215  1  0.75222839  0.63512316  0.97928696  1
  O  O216  1  0.19538411  0.32540949  -0.00035815  1
  O  O217  1  0.24330194  0.35284977  0.46928238  1
  O  O218  1  0.24813903  0.84625701  -0.00171841  1
  O  O219  1  0.26313787  0.88203774  0.51767236  1
  O  O220  1  0.73533078  0.41344311  0.01368330  1
  O  O221  1  0.75640948  0.37231087  0.50418737  1
  O  O222  1  0.75234879  0.86654910  0.01718334  1
  O  O223  1  0.76564488  0.86559381  0.50714691  1
  O  O224  1  0.15110810  0.49535242  0.28968081  1
  O  O225  1  0.16625032  0.50663937  0.76321013  1
  O  O226  1  0.14064101  0.99698878  0.22341401  1
  O  O227  1  0.12135816  0.99044413  0.74957801  1
  O  O228  1  0.61909898  0.52899633  0.24108405  1
  O  O229  1  0.62059771  0.51947422  0.73787397  1
  O  O230  1  0.64024793  0.98900020  0.26092295  1
  O  O231  1  0.62553171  0.99280927  0.76098000  1
  O  O232  1  0.34879316  -0.01672766  0.24319598  1
  O  O233  1  0.40469225  0.02230849  0.75695419  1
  O  O234  1  0.40324618  0.53260863  0.25508943  1
  O  O235  1  0.35604558  0.52008013  0.74214862  1
  O  O236  1  0.86698780  -0.00272570  0.25487369  1
  O  O237  1  0.86519325  0.00980193  0.74901338  1
  O  O238  1  0.87123703  0.51675702  0.26086923  1
  O  O239  1  0.86630885  0.51622877  0.74819773  1
  O  O240  1  0.09043085  0.34207867  0.44035556  1
  O  O241  1  0.10814143  0.33683088  0.83947839  1
  O  O242  1  0.10165153  0.88355774  0.37890528  1
  O  O243  1  0.11635918  0.87489529  0.87227505  1
  O  O244  1  0.62526745  0.36005649  0.37810942  1
  O  O245  1  0.61574140  0.38451060  0.85043731  1
  O  O246  1  0.62672207  0.86920901  0.37075348  1
  O  O247  1  0.64510887  0.86555053  0.86447785  1
  O  O248  1  0.39405271  0.10593387  0.11175587  1
  O  O249  1  0.39355506  0.11421570  0.63777456  1
  O  O250  1  0.37845487  0.61238056  0.10492761  1
  O  O251  1  0.38369703  0.64151854  0.63260205  1
  O  O252  1  0.79582131  0.16828283  0.11265543  1
  O  O253  1  0.88465149  0.12748033  0.61106252  1
  O  O254  1  0.86308612  0.63023326  0.12387480  1
  O  O255  1  0.87489933  0.63699313  0.64029438  1
  O  O256  1  0.27337512  0.27463985  0.12430021  1
  O  O257  1  0.27401844  0.28070150  0.58558410  1
  O  O258  1  0.26030399  0.73848540  0.10177748  1
  O  O259  1  0.26076215  0.76766567  0.63671290  1
  O  O260  1  0.68549265  0.30335784  0.12846189  1
  O  O261  1  0.76620731  0.24828689  0.61185999  1
  O  O262  1  0.75667699  0.76113157  0.11791164  1
  O  O263  1  0.76327162  0.75712925  0.61506381  1
  O  O264  1  0.24865837  0.24356375  0.38336573  1
  O  O265  1  0.26748239  0.24123726  0.88564695  1
  O  O266  1  0.15528929  0.74388961  0.30718414  1
  O  O267  1  0.22876922  0.75509734  0.87615257  1
  O  O268  1  0.74568516  0.25337373  0.39302710  1
  O  O269  1  0.76732921  0.26539009  0.92044917  1
  O  O270  1  0.74563828  0.75428664  0.38994694  1
  O  O271  1  0.75350885  0.75688839  0.88473879  1
  O  O272  1  -0.00180986  0.12505544  -0.01324317  1
  O  O273  1  0.00995792  0.12061866  0.51329821  1
  O  O274  1  0.01578819  0.61286026  0.00159676  1
  O  O275  1  -0.00061608  0.61363052  0.52345751  1
  O  O276  1  0.51031374  0.10899576  0.00041777  1
  O  O277  1  0.51108280  0.11208445  0.50674139  1
  O  O278  1  0.52498691  0.65722762  0.00266499  1
  O  O279  1  0.50823293  0.63538055  0.51310086  1
  O  O280  1  0.49750635  0.38747684  0.51828074  1
  O  O281  1  0.52040032  0.33891277  0.96472956  1
  O  O282  1  0.48293099  0.88631962  0.50795652  1
  O  O283  1  0.49701815  0.84904540  1.01893070  1
  O  O284  1  0.98017011  0.39367396  0.51989074  1
  O  O285  1  1.00564625  0.39559550  0.99269540  1
  O  O286  1  0.98740453  0.86362302  0.50321508  1
  O  O287  1  1.00843592  0.87493765  0.99523104  1
  O  O288  1  0.51466855  0.47704254  0.39380534  1
  O  O289  1  0.49171981  0.49115566  0.86721568  1
  O  O290  1  0.50604608  1.00480605  0.39686905  1
  O  O291  1  0.52105550  0.97250334  0.88405417  1
  O  O292  1  0.99768668  0.50921021  0.40259599  1
  O  O293  1  0.99283416  0.50677429  0.88436835  1
  O  O294  1  0.98318906  0.97434936  0.36037246  1
  O  O295  1  0.99867226  0.98806769  0.89797061  1
  O  O296  1  0.01667537  0.00504516  0.11669599  1
  O  O297  1  0.00762230  0.00143900  0.62139264  1
  O  O298  1  0.00145826  0.47846558  0.10614905  1
  O  O299  1  -0.00822826  0.51467207  0.63381903  1
  O  O300  1  0.51258090  -0.00307488  0.11223403  1
  O  O301  1  0.50654714  0.00895543  0.60258848  1
  O  O302  1  0.42291671  0.55418656  0.08538444  1
  O  O303  1  0.50557779  0.51658229  0.61983896  1
  O  O304  1  0.28974295  0.40756739  0.22640089  1
  O  O305  1  0.26333442  0.38186733  0.76544851  1
  O  O306  1  0.25157044  0.83260896  0.22934107  1
  O  O307  1  0.23541181  0.88070175  0.74701002  1
  O  O308  1  0.80012123  0.36338264  0.23820504  1
  O  O309  1  0.73368501  0.36351403  0.75218288  1
  O  O310  1  0.74498900  0.87651811  0.24197070  1
  O  O311  1  0.75525543  0.87350373  0.72830977  1
  O  O312  1  0.25451368  0.12450161  0.24478917  1
  O  O313  1  0.26182299  0.11195747  0.75296659  1
  O  O314  1  0.28221697  0.62130865  0.27014411  1
  O  O315  1  0.26639429  0.64441263  0.75018232  1
  O  O316  1  0.74719795  0.10722594  0.25389223  1
  O  O317  1  0.75846348  0.13575343  0.74984888  1
  O  O318  1  0.73894592  0.63128824  0.24980757  1
  O  O319  1  0.76347548  0.64085302  0.76111764  1
  O  O320  1  0.38549195  0.15105783  0.36865471  1
  O  O321  1  0.40101441  0.13341192  0.85769203  1
  O  O322  1  0.34909276  0.64549621  0.38029493  1
  O  O323  1  0.38077411  0.62563897  0.85934173  1
  O  O324  1  0.89921253  0.10358987  0.38117885  1
  O  O325  1  0.89095400  0.13396802  0.85128331  1
  O  O326  1  0.91214756  0.58144370  0.28306464  1
  O  O327  1  0.86949707  0.63591787  0.86343721  1
  O  O328  1  0.14991410  0.38983090  0.15050642  1
  O  O329  1  0.11549475  0.35782655  0.63265669  1
  O  O330  1  0.14978515  0.87032639  0.10658115  1
  O  O331  1  0.12659388  0.88555775  0.64038293  1
  O  O332  1  0.59306036  0.41846163  0.08760138  1
  O  O333  1  0.61729046  0.39500615  0.64325281  1
  O  O334  1  0.63691029  0.88865430  0.14072608  1
  O  O335  1  0.64213962  0.87265926  0.61490430  1
  O  O336  1  0.11830868  0.25722906  0.25229675  1
  O  O337  1  0.13833541  0.30726323  0.68232962  1
  O  O338  1  0.13127123  0.69698586  0.25625436  1
  O  O339  1  0.12189934  0.77086803  0.76202806  1
  O  O340  1  0.64645618  0.23543614  0.26791672  1
  O  O341  1  0.62687632  0.25455673  0.74139618  1
  O  O342  1  0.63025720  0.76699405  0.27190978  1
  O  O343  1  0.61771162  0.74696409  0.75505923  1
  O  O344  1  0.38413117  0.24174655  0.22216761  1
  O  O345  1  0.37488397  0.22462960  0.73591563  1
  O  O346  1  0.32917866  0.67444868  0.30727437  1
  O  O347  1  0.38545770  0.75171173  0.75035560  1
  O  O348  1  0.90925033  0.25301683  0.26554758  1
  O  O349  1  0.87260203  0.23296600  0.72298452  1
  O  O350  1  0.86972870  0.74584816  0.23406124  1
  O  O351  1  0.87509122  0.75516508  0.73718428  1
  O  O352  1  0.40033044  0.51692839  0.49684710  1
  O  O353  1  0.41527870  0.52708184  1.01185971  1
  O  O354  1  0.37797379  0.99179945  0.50067435  1
  O  O355  1  0.36558413  0.99870147  0.97444253  1
  O  O356  1  0.87728380  0.49465106  0.51292988  1
  O  O357  1  0.88054050  0.51149879  1.00087400  1
  O  O358  1  0.87215020  0.98089998  0.48219741  1
  O  O359  1  0.89487887  1.01149123  1.02366927  1
  O  O360  1  0.11749965  0.01119776  0.01134460  1
  O  O361  1  0.12753987  -0.00334725  0.51666705  1
  O  O362  1  0.12780372  0.51406281  -0.01405076  1
  O  O363  1  0.10628770  0.50620959  0.51681040  1
  O  O364  1  0.63608248  0.01039396  0.01351453  1
  O  O365  1  0.63471433  0.01128115  0.49048111  1
  O  O366  1  0.61149417  0.52950831  -0.03773289  1
  O  O367  1  0.61452989  0.51193442  0.51134385  1
  O  O368  1  0.41519083  0.36264987  0.12672154  1
  O  O369  1  0.35515518  0.40867944  0.62222757  1
  O  O370  1  0.34760236  0.88166662  0.11469703  1
  O  O371  1  0.36644863  0.87641971  0.63152462  1
  O  O372  1  0.84766907  0.37138866  0.17953524  1
  O  O373  1  0.88065730  0.36120819  0.62862441  1
  O  O374  1  0.86389079  0.87590284  0.13280219  1
  O  O375  1  0.87644916  0.86612475  0.61544967  1
  O  O376  1  0.10312848  0.10210871  0.35801688  1
  O  O377  1  0.08548444  0.14616343  0.83686705  1
  O  O378  1  0.13301640  0.61872895  0.40785199  1
  O  O379  1  0.11386469  0.64205749  0.85666772  1
  O  O380  1  0.61874384  0.14333461  0.39475118  1
  O  O381  1  0.60287271  0.11886951  0.86745176  1
  O  O382  1  0.61181442  0.64264505  0.38892023  1
  O  O383  1  0.64346905  0.64406048  0.87147421  1
