# generated using pymatgen
data_VZnO4
_symmetry_space_group_name_H-M   'P 1'
_cell_length_a   16.93895254
_cell_length_b   16.89541062
_cell_length_c   16.95877844
_cell_angle_alpha   90.06782922
_cell_angle_beta   90.05029054
_cell_angle_gamma   89.69556282
_symmetry_Int_Tables_number   1
_chemical_formula_structural   VZnO4
_chemical_formula_sum   'V64 Zn64 O256'
_cell_volume   4853.36852200
_cell_formula_units_Z   64
loop_
 _symmetry_equiv_pos_site_id
 _symmetry_equiv_pos_as_xyz
  1  'x, y, z'
loop_
 _atom_site_type_symbol
 _atom_site_label
 _atom_site_symmetry_multiplicity
 _atom_site_fract_x
 _atom_site_fract_y
 _atom_site_fract_z
 _atom_site_occupancy
  V  V0  1  0.13660556  0.74856184  0.87701346  1
  V  V1  1  0.35787211  0.13885347  0.23447638  1
  V  V2  1  0.39260157  0.86559760  0.00193816  1
  V  V3  1  0.50268816  0.87818469  0.35261042  1
  V  V4  1  -0.01029603  0.25348873  0.73885828  1
  V  V5  1  0.13714170  0.36627910  0.74251542  1
  V  V6  1  0.72423706  0.33237621  0.64215291  1
  V  V7  1  0.74709169  0.75268555  0.50173624  1
  V  V8  1  0.01307027  0.37122191  0.87188074  1
  V  V9  1  0.25824733  0.50172323  0.74709715  1
  V  V10  1  0.00644961  0.09626603  0.13686836  1
  V  V11  1  0.00767585  -0.00596844  0.49980546  1
  V  V12  1  0.62317135  0.39881305  0.76712629  1
  V  V13  1  0.36868899  0.86166397  0.49841001  1
  V  V14  1  -0.01493414  0.40990173  0.38048390  1
  V  V15  1  0.25140749  0.01091535  0.74020510  1
  V  V16  1  0.61568013  0.52990533  0.58620158  1
  V  V17  1  0.23764672  0.12247316  0.38876730  1
  V  V18  1  0.86978402  0.87082395  0.52500942  1
  V  V19  1  0.86258231  0.01574431  0.85774900  1
  V  V20  1  0.00798561  0.11548095  0.63187254  1
  V  V21  1  0.11629796  0.86486180  0.24672589  1
  V  V22  1  0.50386915  0.01018462  0.50392254  1
  V  V23  1  0.74299215  0.49337840  0.24365296  1
  V  V24  1  0.52676624  0.24835085  0.24158533  1
  V  V25  1  0.55789947  0.34840952  0.38727004  1
  V  V26  1  0.24489784  0.86650770  0.11497493  1
  V  V27  1  0.01026716  0.50298448  0.00736189  1
  V  V28  1  0.11663937  0.13349010  -0.00559801  1
  V  V29  1  0.36847132  0.00196964  0.37195145  1
  V  V30  1  0.13938617  0.62706962  0.49597727  1
  V  V31  1  0.36153038  0.64878986  0.78277840  1
  V  V32  1  -0.01021357  0.74364379  0.74756654  1
  V  V33  1  0.13630603  0.87444008  0.73582975  1
  V  V34  1  -0.00772985  0.64956844  0.11653861  1
  V  V35  1  0.76701782  0.23922548  -0.01663747  1
  V  V36  1  0.11839949  0.39710168  0.25317181  1
  V  V37  1  0.90261906  0.24961301  0.13690780  1
  V  V38  1  0.89067682  0.37261914  0.00138574  1
  V  V39  1  0.87678756  0.50708141  0.86325118  1
  V  V40  1  0.49180696  0.38699801  0.89023983  1
  V  V41  1  0.60927948  0.22238313  0.88447153  1
  V  V42  1  0.37771474  0.49288482  0.40513888  1
  V  V43  1  0.14117999  0.63032579  0.00199065  1
  V  V44  1  0.37206496  0.01284101  0.87013467  1
  V  V45  1  0.23271812  0.00134168  0.24350848  1
  V  V46  1  0.13199871  0.49928253  0.61292982  1
  V  V47  1  0.49199572  0.03399078  -0.00029043  1
  V  V48  1  0.61065979  0.84546431  0.76152710  1
  V  V49  1  0.87400562  0.62949792  0.24231490  1
  V  V50  1  0.74773628  0.36959815  0.12558755  1
  V  V51  1  -0.01540380  0.62285625  0.61762529  1
  V  V52  1  0.41422079  0.23392224  0.65245000  1
  V  V53  1  0.63358673  0.62266117  0.00563990  1
  V  V54  1  0.25472828  0.26630052  0.50149621  1
  V  V55  1  0.09911442  0.24482253  0.38436458  1
  V  V56  1  0.74580208  0.62111913  0.37234691  1
  V  V57  1  0.00086301  0.88544318  0.87528749  1
  V  V58  1  0.62313061  0.75560370  0.35607382  1
  V  V59  1  0.60491297  -0.00580354  0.12656331  1
  V  V60  1  -0.01614230  0.86380361  0.36935413  1
  V  V61  1  0.87152419  0.37248316  0.52079754  1
  V  V62  1  0.13298092  0.74797693  0.38114559  1
  V  V63  1  0.84653722  0.87471934  -0.01195736  1
  Zn  Zn64  1  0.13398491  0.17500135  0.21530414  1
  Zn  Zn65  1  0.18583849  0.18323718  0.67292072  1
  Zn  Zn66  1  0.18336627  0.68763071  0.18310742  1
  Zn  Zn67  1  0.17855444  0.67811535  0.69371419  1
  Zn  Zn68  1  0.70951938  0.17883287  0.16842668  1
  Zn  Zn69  1  0.61563881  0.19172490  0.69444588  1
  Zn  Zn70  1  0.71728243  0.70526965  0.18468301  1
  Zn  Zn71  1  0.67229108  0.68501786  0.67039122  1
  Zn  Zn72  1  0.29203288  0.31266086  0.31570605  1
  Zn  Zn73  1  0.36629765  0.35796285  0.75179786  1
  Zn  Zn74  1  0.30577933  0.81783644  0.31335521  1
  Zn  Zn75  1  0.31419106  0.83021475  0.82643994  1
  Zn  Zn76  1  0.82287273  0.31163920  0.31153091  1
  Zn  Zn77  1  0.81990041  0.32852812  0.80764080  1
  Zn  Zn78  1  0.81351987  0.79879088  0.30700213  1
  Zn  Zn79  1  0.81579711  0.79983670  0.83180901  1
  Zn  Zn80  1  0.19041637  0.43782209  0.41605221  1
  Zn  Zn81  1  0.18855213  0.45194661  0.92538157  1
  Zn  Zn82  1  0.18445364  0.93006470  0.43803742  1
  Zn  Zn83  1  0.18724412  0.95332243  0.93186890  1
  Zn  Zn84  1  0.71250643  0.43826025  0.45608890  1
  Zn  Zn85  1  0.70125863  0.42733185  0.93733412  1
  Zn  Zn86  1  0.68028941  0.93150533  0.44129688  1
  Zn  Zn87  1  0.70318427  1.00612603  0.96724837  1
  Zn  Zn88  1  0.29381363  0.05405780  0.05504145  1
  Zn  Zn89  1  0.32572664  0.06280705  0.56321495  1
  Zn  Zn90  1  0.48474178  0.59663403  0.14745878  1
  Zn  Zn91  1  0.32152734  0.42030791  0.57639540  1
  Zn  Zn92  1  0.86582709  0.07250966  0.03599338  1
  Zn  Zn93  1  0.84053858  0.06013454  0.57746219  1
  Zn  Zn94  1  0.82021988  0.55502712  0.05854772  1
  Zn  Zn95  1  0.80380494  0.55436398  0.56167303  1
  Zn  Zn96  1  0.51781915  0.46269985  0.25454934  1
  Zn  Zn97  1  0.47502855  0.49774427  0.71903390  1
  Zn  Zn98  1  0.42349275  0.94768511  0.17876357  1
  Zn  Zn99  1  0.42685251  0.93564823  0.67807222  1
  Zn  Zn100  1  0.93829694  0.44470157  0.19007906  1
  Zn  Zn101  1  0.94535619  0.44130665  0.68236835  1
  Zn  Zn102  1  0.93370147  0.90206655  0.16800445  1
  Zn  Zn103  1  0.93961050  0.93401380  0.69624061  1
  Zn  Zn104  1  0.05295019  0.05225366  0.32532589  1
  Zn  Zn105  1  0.07408692  0.06601699  0.80643789  1
  Zn  Zn106  1  0.05220216  0.57527543  0.30912307  1
  Zn  Zn107  1  0.06438035  0.56250209  0.81189875  1
  Zn  Zn108  1  0.54225686  0.07415578  0.30297384  1
  Zn  Zn109  1  0.56406822  0.04693912  0.81326616  1
  Zn  Zn110  1  0.55304143  0.56103038  0.39307502  1
  Zn  Zn111  1  0.50449004  0.59637083  0.86726801  1
  Zn  Zn112  1  0.46032460  0.21654464  0.45597897  1
  Zn  Zn113  1  0.39863583  0.22408890  0.86811523  1
  Zn  Zn114  1  0.41792739  0.69384347  0.38957725  1
  Zn  Zn115  1  0.36791459  0.66205227  0.98985748  1
  Zn  Zn116  1  0.92792960  0.18953358  0.48100324  1
  Zn  Zn117  1  0.95863748  0.18638588  0.93371432  1
  Zn  Zn118  1  0.93306059  0.68715988  0.43778695  1
  Zn  Zn119  1  0.93813326  0.69614108  0.93201110  1
  Zn  Zn120  1  0.08183242  0.31535985  0.06696191  1
  Zn  Zn121  1  0.06028617  0.32003575  0.55495162  1
  Zn  Zn122  1  0.06616036  0.81864011  0.05322142  1
  Zn  Zn123  1  0.05612987  0.80642037  0.56157734  1
  Zn  Zn124  1  0.52552567  0.37442404  0.09840623  1
  Zn  Zn125  1  0.51661776  0.36121587  0.59292662  1
  Zn  Zn126  1  0.57619846  0.79815550  0.08747815  1
  Zn  Zn127  1  0.56437869  0.83292730  0.54714169  1
  O  O128  1  0.11121232  0.11671801  0.11991316  1
  O  O129  1  0.10386110  0.13153383  0.60836608  1
  O  O130  1  0.10911082  0.63776763  0.11095421  1
  O  O131  1  0.12487184  0.61824147  0.61081670  1
  O  O132  1  0.66989322  0.09350726  0.10085304  1
  O  O133  1  0.64633651  0.14674888  0.53899908  1
  O  O134  1  0.64981451  0.62750536  0.11032079  1
  O  O135  1  0.60108213  0.62752537  0.60758980  1
  O  O136  1  0.38008121  0.38673634  0.35184862  1
  O  O137  1  0.39581325  0.34895917  0.86298958  1
  O  O138  1  0.38146889  0.88535335  0.36950304  1
  O  O139  1  0.37811318  0.89073105  0.89616890  1
  O  O140  1  0.88661358  0.37891206  0.37389199  1
  O  O141  1  0.89681858  0.38167803  0.88426516  1
  O  O142  1  0.88358087  0.86830837  0.36189028  1
  O  O143  1  0.88822949  0.89315602  0.86335900  1
  O  O144  1  0.24617121  0.00477207  0.36853047  1
  O  O145  1  0.26254864  -0.00755986  0.85698792  1
  O  O146  1  0.28035740  0.51379272  0.40208131  1
  O  O147  1  0.25571751  0.49862813  0.84620396  1
  O  O148  1  0.69958624  0.02996940  0.36353302  1
  O  O149  1  0.76194788  0.02027343  0.87111424  1
  O  O150  1  0.74571525  0.51628484  0.36044869  1
  O  O151  1  0.77825859  0.48476221  0.87781304  1
  O  O152  1  0.28663779  0.46299441  0.12831804  1
  O  O153  1  0.23690181  0.49167799  0.62348398  1
  O  O154  1  0.23664245  0.98906147  0.14277503  1
  O  O155  1  0.27223157  0.99984556  0.64186017  1
  O  O156  1  0.76288689  0.48102777  0.12941249  1
  O  O157  1  0.71152203  0.51246703  0.61759246  1
  O  O158  1  0.71624728  1.02137668  0.09337621  1
  O  O159  1  0.74153945  1.02119175  0.62815750  1
  O  O160  1  0.00358642  0.39211543  0.27074327  1
  O  O161  1  0.01211065  0.36732063  0.75177634  1
  O  O162  1  0.00534353  0.87620741  0.25744415  1
  O  O163  1  0.01379085  0.86249183  0.75278431  1
  O  O164  1  0.55543941  0.34941460  0.26914264  1
  O  O165  1  0.51550882  0.38765111  0.76486806  1
  O  O166  1  0.48599871  0.88185026  0.25457803  1
  O  O167  1  0.50933867  0.86333368  0.73663667  1
  O  O168  1  0.46421686  0.14355710  0.24948084  1
  O  O169  1  0.56717696  0.09235883  0.71384259  1
  O  O170  1  0.51021583  0.57939629  0.25604085  1
  O  O171  1  0.45771856  0.60585475  0.76162646  1
  O  O172  1  1.01615714  0.11653701  0.23869808  1
  O  O173  1  1.00949516  0.13867321  0.73792287  1
  O  O174  1  0.98402573  0.63368994  0.23216083  1
  O  O175  1  1.00788183  0.63693171  0.74144148  1
  O  O176  1  0.29198527  0.24178061  -0.06155294  1
  O  O177  1  0.35338415  0.25290342  0.48038243  1
  O  O178  1  0.35245489  0.77521185  -0.00172429  1
  O  O179  1  0.37967603  0.76380768  0.47029331  1
  O  O180  1  0.88934504  0.25998292  0.00642057  1
  O  O181  1  0.85451421  0.27671565  0.48944603  1
  O  O182  1  0.85124541  0.77359813  -0.05745703  1
  O  O183  1  0.86122370  0.76329339  0.49194262  1
  O  O184  1  0.13229542  0.25915843  0.48725331  1
  O  O185  1  0.13797918  0.23149535  1.01281933  1
  O  O186  1  0.12037128  0.74209661  0.49002743  1
  O  O187  1  0.11958321  0.74147210  0.98623416  1
  O  O188  1  0.65807785  0.19868053  0.49007500  1
  O  O189  1  0.66165985  0.25036119  0.97696629  1
  O  O190  1  0.64091803  0.76915676  0.48423595  1
  O  O191  1  0.61384434  0.72359926  0.99223123  1
  O  O192  1  0.48910525  0.27896471  0.15317066  1
  O  O193  1  0.51607669  0.23881143  0.64304195  1
  O  O194  1  0.52300811  0.70986947  0.13353123  1
  O  O195  1  0.48640933  0.74469842  0.60254430  1
  O  O196  1  1.00286604  0.25275046  0.12663771  1
  O  O197  1  1.00769669  0.25425046  0.63694691  1
  O  O198  1  0.99129563  0.74855972  0.11300688  1
  O  O199  1  1.00182825  0.73583921  0.63675457  1
  O  O200  1  0.00115134  0.23229320  0.39742375  1
  O  O201  1  0.00535678  0.26363801  0.85917408  1
  O  O202  1  0.00372348  0.76042107  0.37637420  1
  O  O203  1  0.00992296  0.75845345  0.86042593  1
  O  O204  1  0.51026167  0.24854634  0.35521130  1
  O  O205  1  0.51083359  0.24933890  0.88817095  1
  O  O206  1  0.51377626  0.76442131  0.36729037  1
  O  O207  1  0.47228588  0.68222522  0.93084791  1
  O  O208  1  0.24694380  0.11531902  0.48771716  1
  O  O209  1  0.34592701  0.28711822  1.07953866  1
  O  O210  1  0.23392489  0.63251924  0.49513940  1
  O  O211  1  0.23753453  0.63029650  1.01035405  1
  O  O212  1  0.78522062  0.10423144  0.47008920  1
  O  O213  1  0.77888745  0.14005780  0.99785146  1
  O  O214  1  0.76426373  0.63692974  0.47722337  1
  O  O215  1  0.73921623  0.63396289  0.99962028  1
  O  O216  1  0.25415764  0.36608111  -0.02825957  1
  O  O217  1  0.24545367  0.37013346  0.49745692  1
  O  O218  1  0.21853992  0.88535573  0.01899883  1
  O  O219  1  0.26866120  0.87825926  0.48941189  1
  O  O220  1  0.77256583  0.36694123  0.00987890  1
  O  O221  1  0.73604378  0.35816734  0.54451692  1
  O  O222  1  0.74831343  0.89314606  -0.01788745  1
  O  O223  1  0.76230233  0.87012649  0.49535822  1
  O  O224  1  0.11492198  0.49925097  0.25246948  1
  O  O225  1  0.14086204  0.50412404  0.73527707  1
  O  O226  1  0.12933342  0.98046918  0.26476612  1
  O  O227  1  0.13851034  0.98565778  0.74841580  1
  O  O228  1  0.64652539  0.48926281  0.24124297  1
  O  O229  1  0.62720182  0.49582017  0.75837971  1
  O  O230  1  0.60313562  1.02248722  0.22335335  1
  O  O231  1  0.62850668  0.94741736  0.77275820  1
  O  O232  1  0.35187241  0.00623485  0.25446382  1
  O  O233  1  0.37042297  -0.00793042  0.76182651  1
  O  O234  1  0.38822025  0.45062079  0.29670830  1
  O  O235  1  0.35820336  0.47481979  0.72262466  1
  O  O236  1  0.81747876  -0.05023556  0.22134616  1
  O  O237  1  0.87495959  0.00508882  0.75530682  1
  O  O238  1  0.86578625  0.52169070  0.24034753  1
  O  O239  1  0.88954952  0.49505328  0.76416338  1
  O  O240  1  0.08974529  0.37072319  0.38674767  1
  O  O241  1  0.12202001  0.38761634  0.85103786  1
  O  O242  1  0.11373485  0.86110589  0.36831693  1
  O  O243  1  0.11868751  0.86797229  0.86681977  1
  O  O244  1  0.65798100  0.35373920  0.39565056  1
  O  O245  1  0.61580766  0.38480437  0.87630477  1
  O  O246  1  0.61228442  0.87318013  0.36416646  1
  O  O247  1  0.58284011  0.83438567  0.85903761  1
  O  O248  1  0.34349722  0.11969878  0.13672942  1
  O  O249  1  0.38289201  0.15086450  0.60635182  1
  O  O250  1  0.34157685  0.66826699  0.22823778  1
  O  O251  1  0.31806350  0.71094052  0.60932470  1
  O  O252  1  0.89905225  0.13677997  0.12451123  1
  O  O253  1  0.91016386  0.14646658  0.59377618  1
  O  O254  1  0.88654698  0.62489303  0.12122215  1
  O  O255  1  0.88565651  0.60960521  0.61965915  1
  O  O256  1  0.28069906  0.29709661  0.10853097  1
  O  O257  1  0.24621382  0.24479822  0.60008608  1
  O  O258  1  0.24569696  0.76733586  0.12834079  1
  O  O259  1  0.25684995  0.74916612  0.62360774  1
  O  O260  1  0.77562642  0.25719646  0.11534922  1
  O  O261  1  0.71983859  0.23231888  0.64868853  1
  O  O262  1  0.69484112  0.77408720  0.10055903  1
  O  O263  1  0.74462218  0.73661922  0.60030506  1
  O  O264  1  0.23456425  0.23377460  0.38695607  1
  O  O265  1  0.24520193  0.30113416  0.92327998  1
  O  O266  1  0.23122452  0.75430091  0.37604825  1
  O  O267  1  0.23393155  0.75994733  0.87593952  1
  O  O268  1  0.75566895  0.21123085  0.32633012  1
  O  O269  1  0.78678573  0.25364335  0.88692646  1
  O  O270  1  0.73890520  0.74567035  0.37549850  1
  O  O271  1  0.76099440  0.67742048  0.81597395  1
  O  O272  1  0.01033027  0.11814997  0.01731768  1
  O  O273  1  0.00352767  0.09466990  0.48892209  1
  O  O274  1  0.00012698  0.62382196  0.00809615  1
  O  O275  1  0.00143993  0.63351475  0.51487298  1
  O  O276  1  0.48833341  0.12930130  0.00436474  1
  O  O277  1  0.49596852  0.10924870  0.47722093  1
  O  O278  1  0.53735353  0.59169459  0.03105226  1
  O  O279  1  0.46589177  0.68034573  0.57426820  1
  O  O280  1  0.52267257  0.32105970  0.48491512  1
  O  O281  1  0.50026184  0.37392371  0.98928885  1
  O  O282  1  0.48840905  0.88809769  0.47857146  1
  O  O283  1  0.48942004  0.85203854  1.02329615  1
  O  O284  1  0.97785061  0.38384327  0.49812535  1
  O  O285  1  1.01234664  0.38095885  0.99282481  1
  O  O286  1  0.98205175  0.86793881  0.49282726  1
  O  O287  1  1.00153063  0.87138261  0.97639778  1
  O  O288  1  0.52452399  0.44819864  0.37644240  1
  O  O289  1  0.47998805  0.48755772  0.88277023  1
  O  O290  1  0.48742827  0.99372045  0.36821883  1
  O  O291  1  0.48391560  1.00942393  0.88602360  1
  O  O292  1  0.98891718  0.50948596  0.38317452  1
  O  O293  1  1.00196299  0.49155481  0.88354676  1
  O  O294  1  0.99925024  0.97564364  0.38888036  1
  O  O295  1  1.01116603  0.98499194  0.86134924  1
  O  O296  1  -0.01205456  -0.00193255  0.13213047  1
  O  O297  1  -0.00410595  0.00933578  0.62159492  1
  O  O298  1  0.00247837  0.50402611  0.10938073  1
  O  O299  1  0.01720897  0.51744862  0.63186383  1
  O  O300  1  0.49328762  0.00611021  0.10935784  1
  O  O301  1  0.47850917  0.00428307  0.60127712  1
  O  O302  1  0.49695002  0.47478979  0.14419665  1
  O  O303  1  0.52791864  0.47775264  0.61817582  1
  O  O304  1  0.21337436  0.39239376  0.30234334  1
  O  O305  1  0.23917705  0.38024891  0.74050825  1
  O  O306  1  0.23594136  0.87989096  0.24390020  1
  O  O307  1  0.23942970  0.87491739  0.74772932  1
  O  O308  1  0.76499555  0.38131698  0.23673879  1
  O  O309  1  0.73987062  0.37550948  0.74266707  1
  O  O310  1  0.76475541  0.90006572  0.24086243  1
  O  O311  1  0.71440871  0.83095045  0.77706703  1
  O  O312  1  0.23243928  0.11004408  0.25498015  1
  O  O313  1  0.23366985  0.11027310  0.74699777  1
  O  O314  1  0.27114934  0.63937877  0.24899026  1
  O  O315  1  0.26940877  0.61244492  0.73224374  1
  O  O316  1  0.76902439  0.15500951  0.27633896  1
  O  O317  1  0.72166556  0.05943019  0.68945225  1
  O  O318  1  0.75033243  0.61171511  0.25000052  1
  O  O319  1  0.74407094  0.63920920  0.75384623  1
  O  O320  1  0.34521019  0.11616611  0.35765159  1
  O  O321  1  0.36581030  0.11290424  0.87651626  1
  O  O322  1  0.43714267  0.58457709  0.40374362  1
  O  O323  1  0.34470511  0.63112613  0.87961268  1
  O  O324  1  0.83920147  0.11762834  0.41951944  1
  O  O325  1  0.89864670  0.10889590  0.87832919  1
  O  O326  1  0.86253968  0.64243472  0.35152783  1
  O  O327  1  0.88861115  0.60592461  0.88269933  1
  O  O328  1  0.12742673  0.37013750  0.15629933  1
  O  O329  1  0.11337895  0.39242118  0.63255657  1
  O  O330  1  0.12144196  0.86735414  0.14227257  1
  O  O331  1  0.12272802  0.86133033  0.63824678  1
  O  O332  1  0.65051584  0.36324794  0.11577934  1
  O  O333  1  0.62296804  0.35867791  0.65643930  1
  O  O334  1  0.61156304  0.89481680  0.13292981  1
  O  O335  1  0.62014981  0.85122180  0.65219088  1
  O  O336  1  0.11721987  0.26569485  0.28040054  1
  O  O337  1  0.12897010  0.26530175  0.73966110  1
  O  O338  1  0.12420236  0.75750639  0.26170159  1
  O  O339  1  0.12417481  0.75518322  0.75984094  1
  O  O340  1  0.61503659  0.20218427  0.22628052  1
  O  O341  1  0.63866421  0.25402193  0.79155990  1
  O  O342  1  0.63809348  0.75357684  0.25870849  1
  O  O343  1  0.60407271  0.73953828  0.74914483  1
  O  O344  1  0.33560421  0.23656845  0.24506789  1
  O  O345  1  0.38238427  0.23333255  0.74982218  1
  O  O346  1  0.37439070  0.72692474  0.28078259  1
  O  O347  1  0.36759483  0.74703388  0.76748208  1
  O  O348  1  0.88889996  0.25544520  0.23455525  1
  O  O349  1  0.89180053  0.25864844  0.74563825  1
  O  O350  1  0.83312852  0.72920490  0.21904367  1
  O  O351  1  0.89165308  0.75478078  0.75527815  1
  O  O352  1  0.39506169  0.45743099  0.49829665  1
  O  O353  1  0.39348038  0.61598873  1.08676393  1
  O  O354  1  0.37775128  0.99462187  0.48106519  1
  O  O355  1  0.37979049  0.99927284  0.99370829  1
  O  O356  1  0.82591436  0.46536345  0.49098818  1
  O  O357  1  0.89141810  0.48705134  0.99549652  1
  O  O358  1  0.88580954  0.97691890  0.51029438  1
  O  O359  1  0.87827323  0.98212972  0.97393761  1
  O  O360  1  0.19365950  0.05805644  -0.00264608  1
  O  O361  1  0.10523755  -0.02913525  0.50827329  1
  O  O362  1  0.12295014  0.52015400  -0.01019423  1
  O  O363  1  0.12945419  0.51069555  0.50555665  1
  O  O364  1  0.59378977  0.00120583  0.00260598  1
  O  O365  1  0.60481695  -0.01183296  0.50381096  1
  O  O366  1  0.65591496  0.51783603  0.00172927  1
  O  O367  1  0.62290810  0.51574065  0.48345197  1
  O  O368  1  0.34135782  0.46202335  0.08098179  1
  O  O369  1  0.39208345  0.34013168  0.62910382  1
  O  O370  1  0.35164601  0.88821114  0.10896498  1
  O  O371  1  0.38485094  0.86572141  0.59883885  1
  O  O372  1  0.88611748  0.36623278  0.11682282  1
  O  O373  1  0.87144182  0.37509578  0.62386780  1
  O  O374  1  0.87054252  0.86176568  0.08608308  1
  O  O375  1  0.87523843  0.86688061  0.62345295  1
  O  O376  1  0.12744016  0.13150004  0.37312167  1
  O  O377  1  0.10119707  0.13170665  0.89384700  1
  O  O378  1  0.11435612  0.63771120  0.38405012  1
  O  O379  1  0.12442933  0.63851296  0.88369064  1
  O  O380  1  0.64910223  0.08594491  0.37043539  1
  O  O381  1  0.61792727  0.12178399  0.88220562  1
  O  O382  1  0.63643223  0.64165737  0.37259845  1
  O  O383  1  0.61987608  0.61398680  0.90088335  1
