# generated using pymatgen
data_VZnO4
_symmetry_space_group_name_H-M   'P 1'
_cell_length_a   17.02982969
_cell_length_b   17.03165591
_cell_length_c   17.00245430
_cell_angle_alpha   89.99506173
_cell_angle_beta   90.03858397
_cell_angle_gamma   89.75625518
_symmetry_Int_Tables_number   1
_chemical_formula_structural   VZnO4
_chemical_formula_sum   'V64 Zn64 O256'
_cell_volume   4931.45149095
_cell_formula_units_Z   64
loop_
 _symmetry_equiv_pos_site_id
 _symmetry_equiv_pos_as_xyz
  1  'x, y, z'
loop_
 _atom_site_type_symbol
 _atom_site_label
 _atom_site_symmetry_multiplicity
 _atom_site_fract_x
 _atom_site_fract_y
 _atom_site_fract_z
 _atom_site_occupancy
  V  V0  1  0.13255611  0.47953720  0.63715268  1
  V  V1  1  0.33394544  0.50268787  0.87490127  1
  V  V2  1  -0.01231076  0.24761143  0.74612739  1
  V  V3  1  0.10858334  -0.00617792  0.09615428  1
  V  V4  1  0.87586274  0.14277729  0.25318482  1
  V  V5  1  0.50471396  0.87175811  0.34599591  1
  V  V6  1  0.02512973  0.37648120  0.38461275  1
  V  V7  1  0.74656166  0.36529439  0.12836905  1
  V  V8  1  0.38871276  0.25659556  0.13028015  1
  V  V9  1  0.88271530  0.88491178  -0.00848829  1
  V  V10  1  -0.03622864  0.49657989  0.50235821  1
  V  V11  1  0.24364328  0.73260835  -0.01096455  1
  V  V12  1  0.73990575  0.22128672  0.49151399  1
  V  V13  1  0.87476362  -0.00307324  0.36665588  1
  V  V14  1  0.62786262  0.87246428  0.73910796  1
  V  V15  1  0.13868796  0.13617155  0.51899142  1
  V  V16  1  0.61212441  0.61905306  0.50608630  1
  V  V17  1  0.35874904  0.01536364  0.88369969  1
  V  V18  1  0.87229569  0.60938358  0.74275173  1
  V  V19  1  0.59833869  0.62707543  -0.00970337  1
  V  V20  1  0.22970052  0.37311610  0.13542015  1
  V  V21  1  0.37281238  0.12857081  0.75119270  1
  V  V22  1  0.38254855  0.12320514  0.24972915  1
  V  V23  1  0.51077567  0.90156115  0.88338321  1
  V  V24  1  0.52096498  0.23208180  0.76550591  1
  V  V25  1  0.74809820  0.86224310  0.60320687  1
  V  V26  1  -0.00232611  0.62024668  0.62832490  1
  V  V27  1  0.60930289  0.53290041  0.14071001  1
  V  V28  1  0.76865152  0.73755229  0.00658895  1
  V  V29  1  0.60783834  0.22907805  0.38767592  1
  V  V30  1  0.36646471  -0.00400537  0.37591953  1
  V  V31  1  0.75995977  0.25799599  -0.00791539  1
  V  V32  1  0.00633004  0.14557241  0.13163529  1
  V  V33  1  0.15405735  0.62315244  0.50763974  1
  V  V34  1  0.74451215  0.00644254  0.76820807  1
  V  V35  1  0.38286124  0.73120611  0.10449118  1
  V  V36  1  0.14840417  0.88913842  0.73867320  1
  V  V37  1  0.25657518  0.24729811  0.00072830  1
  V  V38  1  0.62566942  0.75276721  0.87428307  1
  V  V39  1  0.85749886  0.23350793  0.62016444  1
  V  V40  1  0.50347979  0.13398544  0.61027808  1
  V  V41  1  0.61581289  0.33416709  0.24647073  1
  V  V42  1  -0.00417899  0.01994645  0.51591592  1
  V  V43  1  0.75672144  0.88971439  0.13631337  1
  V  V44  1  0.62692594  0.00123321  0.60829609  1
  V  V45  1  0.88552391  0.86400243  0.50600208  1
  V  V46  1  0.49230899  -0.02113075  0.50468360  1
  V  V47  1  0.10216036  0.25200947  0.88567321  1
  V  V48  1  0.27340569  0.50814074  0.24455014  1
  V  V49  1  0.25389012  0.88808920  0.09593218  1
  V  V50  1  0.12762956  0.75347602  0.86368478  1
  V  V51  1  0.49672153  0.38272994  0.37329563  1
  V  V52  1  0.62225115  0.37097878  0.74721187  1
  V  V53  1  0.52117812  0.38111460  0.90858726  1
  V  V54  1  0.38065461  0.35989008  0.51019927  1
  V  V55  1  0.48908265  0.74383246  0.75578690  1
  V  V56  1  0.75158287  0.61656575  0.87306448  1
  V  V57  1  0.02750731  0.87710636  0.38157404  1
  V  V58  1  -0.01564246  0.76938255  0.74931835  1
  V  V59  1  0.74235956  0.38211835  0.60421369  1
  V  V60  1  0.23873076  0.00012372  0.24779108  1
  V  V61  1  0.73533438  0.49571071  0.75014574  1
  V  V62  1  0.51152625  0.11329618  0.11261114  1
  V  V63  1  0.03110015  0.72920362  0.21714656  1
  Zn  Zn64  1  0.20365519  0.16278931  0.15001984  1
  Zn  Zn65  1  0.16805251  0.18226936  0.72126366  1
  Zn  Zn66  1  0.22693787  0.71200153  0.20676692  1
  Zn  Zn67  1  0.15718228  0.73812929  0.65064408  1
  Zn  Zn68  1  0.68791481  0.07442925  0.18799719  1
  Zn  Zn69  1  0.71231031  0.19381676  0.70197398  1
  Zn  Zn70  1  0.66707729  0.72631794  0.15913453  1
  Zn  Zn71  1  0.68635922  0.69045713  0.68988270  1
  Zn  Zn72  1  0.32299343  0.32178581  0.29961161  1
  Zn  Zn73  1  0.34877824  0.31040913  0.83396279  1
  Zn  Zn74  1  0.35088068  0.83796935  0.26533104  1
  Zn  Zn75  1  0.31944392  0.83319049  0.82684213  1
  Zn  Zn76  1  0.78609362  0.29672519  0.30871919  1
  Zn  Zn77  1  0.82519586  0.32013049  0.79891542  1
  Zn  Zn78  1  0.85842425  0.81877290  0.29573117  1
  Zn  Zn79  1  0.81012572  0.81271399  0.80967424  1
  Zn  Zn80  1  0.20155697  0.45391361  0.43590209  1
  Zn  Zn81  1  0.19585983  0.40782355  0.92992996  1
  Zn  Zn82  1  0.16345030  0.99553371  0.42560625  1
  Zn  Zn83  1  0.17261981  0.94574815  0.91871466  1
  Zn  Zn84  1  0.67659054  0.43961259  0.41730216  1
  Zn  Zn85  1  0.68111133  0.43722939  0.94348128  1
  Zn  Zn86  1  0.69345445  0.93045226  0.31190012  1
  Zn  Zn87  1  0.70757996  0.91721068  0.93496608  1
  Zn  Zn88  1  0.31520682  0.06900254  0.06361069  1
  Zn  Zn89  1  0.32439365  0.07388966  0.56451296  1
  Zn  Zn90  1  0.30938951  0.55179398  0.05745954  1
  Zn  Zn91  1  0.30145094  0.52236228  0.56702031  1
  Zn  Zn92  1  0.83911379  0.07308436  0.06113540  1
  Zn  Zn93  1  0.80759359  0.05084062  0.54787446  1
  Zn  Zn94  1  0.77870780  0.55969155  0.08164711  1
  Zn  Zn95  1  0.79812776  0.56630410  0.56547771  1
  Zn  Zn96  1  0.44763231  0.43780912  0.18454125  1
  Zn  Zn97  1  0.41907555  0.40630432  0.71103723  1
  Zn  Zn98  1  0.43802557  0.94616123  0.17010728  1
  Zn  Zn99  1  0.44836545  0.94923312  0.70426573  1
  Zn  Zn100  1  0.92222627  0.41526519  0.21941315  1
  Zn  Zn101  1  0.92426834  0.42625686  0.68534050  1
  Zn  Zn102  1  0.95304449  0.91031455  0.18992433  1
  Zn  Zn103  1  0.91246788  0.94866710  0.68864437  1
  Zn  Zn104  1  0.05302737  0.07837284  0.32726680  1
  Zn  Zn105  1  0.05100390  0.06602891  0.68811316  1
  Zn  Zn106  1  0.05370575  0.58235408  0.34269567  1
  Zn  Zn107  1  0.14090746  0.54901224  0.81335541  1
  Zn  Zn108  1  0.55496012  0.05596622  0.31283350  1
  Zn  Zn109  1  0.58899078  0.07604437  0.80359539  1
  Zn  Zn110  1  0.53496536  0.58036129  0.31991781  1
  Zn  Zn111  1  0.55290300  0.55457310  0.81940564  1
  Zn  Zn112  1  0.42670054  0.18900714  0.43625566  1
  Zn  Zn113  1  0.44141557  0.19515974  0.93789456  1
  Zn  Zn114  1  0.41102304  0.69025874  0.39913511  1
  Zn  Zn115  1  0.41282070  0.68830414  0.90544884  1
  Zn  Zn116  1  0.93052993  0.19573493  0.43129493  1
  Zn  Zn117  1  0.92801384  0.18991029  0.94870407  1
  Zn  Zn118  1  0.96389652  0.70044783  0.44932665  1
  Zn  Zn119  1  0.93550634  0.68989828  0.91545330  1
  Zn  Zn120  1  0.06605171  0.31306933  0.06392445  1
  Zn  Zn121  1  0.04407117  0.31034844  0.56052963  1
  Zn  Zn122  1  0.06685684  0.80855601  0.05648029  1
  Zn  Zn123  1  0.10328489  0.84231359  0.53123763  1
  Zn  Zn124  1  0.58403752  0.26836712  0.05942736  1
  Zn  Zn125  1  0.56291556  0.31841161  0.56042638  1
  Zn  Zn126  1  0.56806530  0.81964677  0.06019688  1
  Zn  Zn127  1  0.47984951  0.76967096  0.54449479  1
  O  O128  1  0.10877534  0.10233305  0.13372730  1
  O  O129  1  0.12607484  0.12903704  0.62964562  1
  O  O130  1  0.10321079  0.57270796  0.09396087  1
  O  O131  1  0.10043393  0.60340506  0.62832619  1
  O  O132  1  0.61014946  0.13424415  0.12992873  1
  O  O133  1  0.61412945  0.10413459  0.61729371  1
  O  O134  1  0.61241316  0.63615972  0.10418563  1
  O  O135  1  0.62914694  0.62614454  0.61151077  1
  O  O136  1  0.39367518  0.36888473  0.37232033  1
  O  O137  1  0.44469011  0.31126135  0.90267936  1
  O  O138  1  0.37310284  0.89462507  0.36577210  1
  O  O139  1  0.40101079  0.90857829  0.87213067  1
  O  O140  1  0.82733531  0.40134312  0.36605554  1
  O  O141  1  0.91553342  0.38846355  0.98611851  1
  O  O142  1  0.89853392  0.87895653  0.38990850  1
  O  O143  1  0.86412735  0.86960343  0.89173363  1
  O  O144  1  0.26139039  0.00297061  0.36284115  1
  O  O145  1  0.26114716  0.00582627  0.87410200  1
  O  O146  1  0.23875556  0.50291174  0.33942177  1
  O  O147  1  0.22764140  0.50098625  0.87093828  1
  O  O148  1  0.77647238  -0.01647159  0.37174029  1
  O  O149  1  0.74822440  -0.00476287  0.86662991  1
  O  O150  1  0.70597144  0.53349798  0.37325208  1
  O  O151  1  0.73785784  0.50838235  0.86604001  1
  O  O152  1  0.25653910  0.47671091  0.12599494  1
  O  O153  1  0.23221968  0.48808356  0.65060025  1
  O  O154  1  0.23301937  0.99899519  0.12258243  1
  O  O155  1  0.29584533  0.96626643  0.62092142  1
  O  O156  1  0.70446850  0.48519937  0.12473482  1
  O  O157  1  0.74476573  0.48718113  0.63403837  1
  O  O158  1  0.74761859  0.99001134  0.12103711  1
  O  O159  1  0.73168626  0.98881852  0.60899225  1
  O  O160  1  0.00507573  0.40109978  0.28564674  1
  O  O161  1  -0.06755306  0.34313663  0.76419429  1
  O  O162  1  0.04242519  0.89774110  0.28795851  1
  O  O163  1  -0.02681741  0.86691149  0.74069867  1
  O  O164  1  0.51448214  0.37190917  0.25889723  1
  O  O165  1  0.51195669  0.34868866  0.75334303  1
  O  O166  1  0.47215791  0.86836321  0.24749002  1
  O  O167  1  0.51381866  0.87262249  0.76147018  1
  O  O168  1  0.48638983  0.11544402  0.23769150  1
  O  O169  1  0.51187676  0.12881769  0.73017091  1
  O  O170  1  0.56045456  0.70794426  0.27128065  1
  O  O171  1  0.50992412  0.64586503  0.76726623  1
  O  O172  1  0.99151633  0.12444079  0.24670495  1
  O  O173  1  0.98272916  0.14691125  0.74026985  1
  O  O174  1  1.00862966  0.63834704  0.25999325  1
  O  O175  1  0.97578894  0.60484806  0.73992361  1
  O  O176  1  0.36357791  0.24093052  0.02502838  1
  O  O177  1  0.35856290  0.26361280  0.49086873  1
  O  O178  1  0.35389780  0.74563281  -0.00686584  1
  O  O179  1  0.40950535  0.69350025  0.50750897  1
  O  O180  1  0.93924657  0.32651132  0.01901239  1
  O  O181  1  0.84540986  0.24376135  0.49942161  1
  O  O182  1  0.86857733  0.74235474  -0.01011858  1
  O  O183  1  0.88965053  0.76593557  0.50754062  1
  O  O184  1  0.11209383  0.23253711  0.51307014  1
  O  O185  1  0.12867234  0.25080688  0.98839533  1
  O  O186  1  0.13081817  0.72425419  0.53890895  1
  O  O187  1  0.12982903  0.75631789  0.97254475  1
  O  O188  1  0.62929949  0.25036185  0.49269143  1
  O  O189  1  0.66536098  0.22972316  0.98541860  1
  O  O190  1  0.58906426  0.72255882  0.51275313  1
  O  O191  1  0.63839161  0.73853665  0.99103941  1
  O  O192  1  0.48934583  0.24222208  0.12634580  1
  O  O193  1  0.51224443  0.23376264  0.62122530  1
  O  O194  1  0.47774423  0.76250360  0.10441981  1
  O  O195  1  0.47915143  0.76246057  0.65789051  1
  O  O196  1  1.01989241  0.24385939  0.14201174  1
  O  O197  1  0.96035653  0.26011565  0.62996262  1
  O  O198  1  1.03353582  0.71741151  0.11654464  1
  O  O199  1  0.99770340  0.72351721  0.64812226  1
  O  O200  1  -0.00672362  0.28064413  0.39177986  1
  O  O201  1  -0.00450268  0.24000486  0.86943993  1
  O  O202  1  0.01802920  0.77444260  0.38760532  1
  O  O203  1  0.01106898  0.74772586  0.85516233  1
  O  O204  1  0.50699368  0.25678837  0.38609235  1
  O  O205  1  0.54080062  0.20026038  0.85709262  1
  O  O206  1  0.47903359  0.78480902  0.38733262  1
  O  O207  1  0.52032124  0.77100554  0.87564375  1
  O  O208  1  0.23951709  0.12579850  0.51784482  1
  O  O209  1  0.23805688  0.14868725  1.02977394  1
  O  O210  1  0.25379994  0.61535369  0.51685799  1
  O  O211  1  0.23912104  0.63511886  1.00058336  1
  O  O212  1  0.73511411  0.12385965  0.49516113  1
  O  O213  1  0.82344529  0.16993146  0.99547392  1
  O  O214  1  0.71869910  0.62899180  0.50691786  1
  O  O215  1  0.75447664  0.62570424  0.98826282  1
  O  O216  1  0.24078732  0.35632504  0.02161734  1
  O  O217  1  0.30430944  0.43286809  0.49262399  1
  O  O218  1  0.24765843  0.89315305  -0.00334400  1
  O  O219  1  0.25512864  0.77227104  0.42492100  1
  O  O220  1  0.73887904  0.37385839  0.01864603  1
  O  O221  1  0.73072741  0.38896081  0.50544160  1
  O  O222  1  0.75890832  0.85154488  0.01093954  1
  O  O223  1  0.76373483  0.86221109  0.50301196  1
  O  O224  1  0.08371687  0.53223016  0.14994163  1
  O  O225  1  0.09730394  0.48792802  0.73383609  1
  O  O226  1  0.14259492  1.01297075  0.26390965  1
  O  O227  1  0.11373091  0.98352131  0.73967984  1
  O  O228  1  0.60540611  0.54615433  0.23949024  1
  O  O229  1  0.62549820  0.48854539  0.75314913  1
  O  O230  1  0.63174970  1.00396981  0.25380624  1
  O  O231  1  0.62803577  0.98531687  0.72778208  1
  O  O232  1  0.37153912  0.00804684  0.25762342  1
  O  O233  1  0.38658744  0.02202230  0.76511427  1
  O  O234  1  0.37371953  0.50148652  0.24236851  1
  O  O235  1  0.35714579  0.42279627  0.80558131  1
  O  O236  1  0.89739266  -0.02099625  0.26965992  1
  O  O237  1  0.83876124  0.01782062  0.73872294  1
  O  O238  1  0.84754150  0.45804527  0.32091835  1
  O  O239  1  0.85337297  0.50512111  0.74655147  1
  O  O240  1  0.12377567  0.37848655  0.39942540  1
  O  O241  1  0.13251565  0.34476532  0.86017883  1
  O  O242  1  0.12518695  0.88796351  0.42701710  1
  O  O243  1  0.12616892  0.86817853  0.85037197  1
  O  O244  1  0.61444399  0.35905068  0.36614127  1
  O  O245  1  0.61933018  0.37155086  0.86391858  1
  O  O246  1  0.60420388  0.87140411  0.35046343  1
  O  O247  1  0.63000787  0.87001482  0.86249587  1
  O  O248  1  0.38785903  0.12789267  0.13347902  1
  O  O249  1  0.39657226  0.12024325  0.63939848  1
  O  O250  1  0.38176597  0.63192676  0.09893452  1
  O  O251  1  0.31509625  0.70935103  0.65204311  1
  O  O252  1  0.89604105  0.12236838  0.14591326  1
  O  O253  1  0.85559654  0.13506659  0.60965970  1
  O  O254  1  0.80732863  0.59330852  0.20879667  1
  O  O255  1  0.86719370  0.62325280  0.63859997  1
  O  O256  1  0.25672089  0.26336645  0.13197868  1
  O  O257  1  0.23749871  0.28534961  0.66425433  1
  O  O258  1  0.24323105  0.77105730  0.09234633  1
  O  O259  1  0.30082864  0.76873169  0.60782389  1
  O  O260  1  0.76840502  0.26717061  0.10833203  1
  O  O261  1  0.73919424  0.25633733  0.60027233  1
  O  O262  1  0.76821975  0.72136375  0.10584200  1
  O  O263  1  0.74705323  0.76659945  0.63237127  1
  O  O264  1  0.22924793  0.25047674  0.36056303  1
  O  O265  1  0.27415948  0.25775517  0.90209308  1
  O  O266  1  0.29254890  0.73657886  0.37243823  1
  O  O267  1  0.24319461  0.76374775  0.88396217  1
  O  O268  1  0.72776989  0.24191470  0.38715219  1
  O  O269  1  0.79728928  0.28955738  0.90246147  1
  O  O270  1  0.82061443  0.71582367  0.35073417  1
  O  O271  1  0.74150734  0.73890854  0.87728839  1
  O  O272  1  -0.00949072  0.13890189  0.03067969  1
  O  O273  1  -0.01487967  0.11867440  0.50079208  1
  O  O274  1  0.00315862  0.59037811  -0.04966944  1
  O  O275  1  -0.01393921  0.61329048  0.51842577  1
  O  O276  1  0.50331810  0.14000312  0.01467314  1
  O  O277  1  0.48728069  0.11674799  0.51028238  1
  O  O278  1  0.50270413  0.63768060  -0.02899029  1
  O  O279  1  0.51384080  0.59521489  0.52364925  1
  O  O280  1  0.48834926  0.37347883  0.48984711  1
  O  O281  1  0.55046501  0.36987974  1.00282955  1
  O  O282  1  0.48116641  0.88193496  0.51556086  1
  O  O283  1  0.52571404  0.88937703  0.98159168  1
  O  O284  1  0.98462152  0.39218040  0.49503705  1
  O  O285  1  1.04972922  0.43141051  1.01325853  1
  O  O286  1  0.99066769  0.88766812  0.51404807  1
  O  O287  1  0.97923651  0.86201845  1.00666333  1
  O  O288  1  0.51161161  0.48013342  0.37415023  1
  O  O289  1  0.49625870  0.47709114  0.88217510  1
  O  O290  1  0.49152765  0.98219972  0.38615140  1
  O  O291  1  0.53086571  0.99878991  0.86662581  1
  O  O292  1  1.00315708  0.50093568  0.40260242  1
  O  O293  1  1.01866878  0.54342071  0.89465475  1
  O  O294  1  0.99921155  0.99384258  0.40014553  1
  O  O295  1  0.99022144  1.02899400  0.87248146  1
  O  O296  1  0.01249678  -0.01661311  0.12545439  1
  O  O297  1  -0.02437750  0.01126360  0.61962403  1
  O  O298  1  -0.06374237  0.52707334  0.13918409  1
  O  O299  1  -0.01850534  0.50034334  0.61371002  1
  O  O300  1  0.50410237  0.01269337  0.11325860  1
  O  O301  1  0.50337428  0.00185541  0.61523006  1
  O  O302  1  0.52454356  0.48640127  0.11865216  1
  O  O303  1  0.45000662  0.51759563  0.66835562  1
  O  O304  1  0.25306787  0.38637744  0.23946426  1
  O  O305  1  0.25653234  0.33090420  0.71830334  1
  O  O306  1  0.25469893  0.89785413  0.23083376  1
  O  O307  1  0.24805406  0.88288215  0.75345487  1
  O  O308  1  0.72033747  0.36620887  0.24501549  1
  O  O309  1  0.73711123  0.38297410  0.75023513  1
  O  O310  1  0.76677722  0.86701275  0.24008072  1
  O  O311  1  0.74227074  0.88690836  0.74373079  1
  O  O312  1  0.26808243  0.10719230  0.23027903  1
  O  O313  1  0.27725899  0.14320831  0.73828840  1
  O  O314  1  0.24131862  0.60032807  0.21407967  1
  O  O315  1  0.25072755  0.68021661  0.69163355  1
  O  O316  1  0.77957937  0.11742604  0.24086166  1
  O  O317  1  0.69994555  0.10416694  0.76907989  1
  O  O318  1  0.75582185  0.63582581  0.24029604  1
  O  O319  1  0.74702887  0.61505786  0.75325260  1
  O  O320  1  0.38414749  0.11445417  0.35864285  1
  O  O321  1  0.38288534  0.12317678  0.86493202  1
  O  O322  1  0.43544254  0.62592193  0.31758599  1
  O  O323  1  0.36657851  0.59408483  0.85449085  1
  O  O324  1  0.88634271  0.10824111  0.36151908  1
  O  O325  1  0.92772206  0.06552078  0.87680790  1
  O  O326  1  0.87035291  0.66184245  0.36886116  1
  O  O327  1  0.85895765  0.62378313  0.85731423  1
  O  O328  1  0.13109850  0.37113417  0.13940170  1
  O  O329  1  0.11226667  0.38516245  0.61176089  1
  O  O330  1  0.13639459  0.88903369  0.11009343  1
  O  O331  1  0.14170673  0.85988812  0.63628175  1
  O  O332  1  0.62828859  0.33842589  0.14223931  1
  O  O333  1  0.63286398  0.37237204  0.63497416  1
  O  O334  1  0.65740968  0.84007585  0.12977104  1
  O  O335  1  0.63539883  0.87899310  0.62690495  1
  O  O336  1  0.17161804  0.23448722  0.31880397  1
  O  O337  1  0.08139034  0.27051463  0.73010024  1
  O  O338  1  0.12703486  0.75279621  0.24066437  1
  O  O339  1  0.10488265  0.77387438  0.74956882  1
  O  O340  1  0.61989513  0.23754110  0.27129824  1
  O  O341  1  0.62474209  0.25720646  0.74118184  1
  O  O342  1  0.63240466  0.72690830  0.27228539  1
  O  O343  1  0.61987192  0.75795880  0.75580857  1
  O  O344  1  0.36928512  0.23213716  0.24156440  1
  O  O345  1  0.40819060  0.23539890  0.76071679  1
  O  O346  1  0.34176518  0.74481463  0.20374781  1
  O  O347  1  0.39453736  0.75087389  0.79976218  1
  O  O348  1  0.87424923  0.24325541  0.26590774  1
  O  O349  1  0.82363661  0.23186130  0.72127461  1
  O  O350  1  0.94780355  0.79725647  0.22783514  1
  O  O351  1  0.88391858  0.73621359  0.75746288  1
  O  O352  1  0.39814679  0.56099157  0.63433198  1
  O  O353  1  0.34895788  0.48346101  0.97220057  1
  O  O354  1  0.38112642  1.00806647  0.48320900  1
  O  O355  1  0.37578186  1.02069312  0.98256410  1
  O  O356  1  0.86571221  0.50748805  0.49500921  1
  O  O357  1  0.89743587  0.53773364  1.07507953  1
  O  O358  1  0.88226630  0.99129527  0.48894504  1
  O  O359  1  0.86954766  0.98467562  1.00004591  1
  O  O360  1  0.11043128  0.00232531  -0.00272434  1
  O  O361  1  0.10078713  0.01624400  0.52783202  1
  O  O362  1  0.10976841  0.47082645  -0.00782487  1
  O  O363  1  0.13414784  0.51428428  0.52089180  1
  O  O364  1  0.64485436  0.01145729  -0.00085712  1
  O  O365  1  0.60016195  -0.01218481  0.50649844  1
  O  O366  1  0.62216178  0.52878636  -0.00753920  1
  O  O367  1  0.62376234  0.51605625  0.50215286  1
  O  O368  1  0.38162589  0.35648548  0.13680039  1
  O  O369  1  0.38856059  0.36795037  0.61028471  1
  O  O370  1  0.35523679  0.88741995  0.11205078  1
  O  O371  1  0.35102915  0.91585978  0.63131198  1
  O  O372  1  0.83998277  0.39849972  0.15080874  1
  O  O373  1  0.84307935  0.36295136  0.62052312  1
  O  O374  1  0.85772617  0.87541557  0.11259462  1
  O  O375  1  0.85589810  0.88405519  0.61226274  1
  O  O376  1  0.12536416  0.10583154  0.41215833  1
  O  O377  1  0.14817665  0.17838907  0.83655292  1
  O  O378  1  0.13167109  0.62801416  0.40966223  1
  O  O379  1  0.14086881  0.65629391  0.84175611  1
  O  O380  1  0.60012610  0.13109825  0.38674255  1
  O  O381  1  0.63891847  0.07372917  0.96084103  1
  O  O382  1  0.60760430  0.63562417  0.40435587  1
  O  O383  1  0.63159814  0.63400143  0.87942057  1
