# generated using pymatgen
data_VZnO4
_symmetry_space_group_name_H-M   'P 1'
_cell_length_a   16.99357305
_cell_length_b   16.97211847
_cell_length_c   16.96011290
_cell_angle_alpha   90.31525579
_cell_angle_beta   89.69376934
_cell_angle_gamma   90.30094794
_symmetry_Int_Tables_number   1
_chemical_formula_structural   VZnO4
_chemical_formula_sum   'V64 Zn64 O256'
_cell_volume   4891.37314255
_cell_formula_units_Z   64
loop_
 _symmetry_equiv_pos_site_id
 _symmetry_equiv_pos_as_xyz
  1  'x, y, z'
loop_
 _atom_site_type_symbol
 _atom_site_label
 _atom_site_symmetry_multiplicity
 _atom_site_fract_x
 _atom_site_fract_y
 _atom_site_fract_z
 _atom_site_occupancy
  V  V0  1  0.24366111  0.60748039  0.86775529  1
  V  V1  1  0.00589431  0.38309745  0.38194473  1
  V  V2  1  0.13912556  0.50466632  0.10436718  1
  V  V3  1  0.08623539  0.37815812  0.76279136  1
  V  V4  1  0.00163290  0.61308191  0.59711003  1
  V  V5  1  0.13949201  -0.00682916  0.62777376  1
  V  V6  1  0.88304612  0.24858132  0.62110452  1
  V  V7  1  0.26219236  0.86544024  0.13123560  1
  V  V8  1  0.00886093  0.74981792  0.74173948  1
  V  V9  1  0.86205608  0.87200632  0.50690480  1
  V  V10  1  0.13275510  0.00059058  0.12501312  1
  V  V11  1  0.37862716  0.87607719  -0.01192166  1
  V  V12  1  0.49345679  0.86829650  0.38150071  1
  V  V13  1  0.25209110  0.73644319  0.00945929  1
  V  V14  1  0.00923537  -0.01327278  0.00310017  1
  V  V15  1  0.50007305  0.76571635  0.75325952  1
  V  V16  1  0.61870457  0.76206673  0.89664466  1
  V  V17  1  0.25951976  0.50710355  0.24670782  1
  V  V18  1  0.37455660  0.12102203  0.26644099  1
  V  V19  1  0.74958240  0.48453280  0.75681740  1
  V  V20  1  0.62257616  0.48489821  0.63647641  1
  V  V21  1  0.25255618  0.76301191  0.50496506  1
  V  V22  1  0.49543267  -0.00063728  0.49362959  1
  V  V23  1  0.37234199  0.24208775  0.11436671  1
  V  V24  1  0.38048273  0.50330765  0.37380309  1
  V  V25  1  0.13213952  0.75022677  0.87511846  1
  V  V26  1  0.25759775  0.00067349  0.26425715  1
  V  V27  1  -0.01178470  0.23389072  0.24149905  1
  V  V28  1  0.86199197  0.01723801  0.37066435  1
  V  V29  1  0.36642808  0.76479625  0.62698360  1
  V  V30  1  0.87353643  0.64721653  0.74663474  1
  V  V31  1  0.12893378  0.74354458  0.38131244  1
  V  V32  1  -0.00140789  0.88147843  0.37509746  1
  V  V33  1  0.50291010  0.12487738  0.61817258  1
  V  V34  1  0.63437112  -0.01975543  0.62737925  1
  V  V35  1  0.50212262  0.62647778  0.62683264  1
  V  V36  1  0.36484506  0.26638150  0.61747877  1
  V  V37  1  0.83331264  0.77872389  0.09915861  1
  V  V38  1  -0.00266736  0.87202601  0.87831371  1
  V  V39  1  0.15040128  0.13098697  0.48881557  1
  V  V40  1  0.64423053  0.25757068  0.37973602  1
  V  V41  1  0.74619297  0.63522985  0.89560838  1
  V  V42  1  0.49820296  0.37012581  0.38203083  1
  V  V43  1  0.51451706  0.25289737  0.75111042  1
  V  V44  1  0.14601159  0.13273286  -0.00875243  1
  V  V45  1  0.36421195  0.12204683  0.75549485  1
  V  V46  1  0.50577411  0.11026346  0.11498854  1
  V  V47  1  0.50011858  0.50336843  0.50407996  1
  V  V48  1  0.38364467  0.37627142  -0.01419243  1
  V  V49  1  0.51219039  0.38505782  0.86794759  1
  V  V50  1  0.74447590  0.24600255  -0.00106357  1
  V  V51  1  0.36576184  0.61030607  0.74953478  1
  V  V52  1  0.13394394  0.36303479  0.25083660  1
  V  V53  1  0.00294111  0.01363116  0.50103296  1
  V  V54  1  0.62894764  0.48398503  0.12567181  1
  V  V55  1  0.25652539  0.62544142  0.38081253  1
  V  V56  1  0.63081070  0.88103998  0.25264919  1
  V  V57  1  -0.02748579  0.55491066  0.02374559  1
  V  V58  1  0.74862199  0.01604624  0.22630885  1
  V  V59  1  0.50323614  0.25007080  0.25124619  1
  V  V60  1  0.12640281  0.87180811  0.25183350  1
  V  V61  1  0.25507111  0.36936811  0.11806099  1
  V  V62  1  0.49519061  0.74125206  0.25020549  1
  V  V63  1  -0.00257469  0.73167507  0.24830552  1
  Zn  Zn64  1  0.19309939  0.18108204  0.18451927  1
  Zn  Zn65  1  0.20775208  0.16150287  0.65302995  1
  Zn  Zn66  1  0.18603585  0.68153883  0.19331302  1
  Zn  Zn67  1  0.18038418  0.67521532  0.68087473  1
  Zn  Zn68  1  0.68336148  0.18658909  0.18707796  1
  Zn  Zn69  1  0.69589460  0.18492008  0.65135161  1
  Zn  Zn70  1  0.68485143  0.71541935  0.19454574  1
  Zn  Zn71  1  0.66203834  0.67085756  0.73249389  1
  Zn  Zn72  1  0.32332232  0.31807315  0.30510736  1
  Zn  Zn73  1  0.32754049  0.27138686  0.82657243  1
  Zn  Zn74  1  0.32148083  0.81419973  0.31744353  1
  Zn  Zn75  1  0.31352526  0.81183262  0.81330321  1
  Zn  Zn76  1  0.83725692  0.31647666  0.31637895  1
  Zn  Zn77  1  0.79502643  0.27503494  0.80063911  1
  Zn  Zn78  1  0.83753548  0.84334967  0.27557976  1
  Zn  Zn79  1  0.79318704  0.84835710  0.93246390  1
  Zn  Zn80  1  0.19696918  0.43042659  0.43185925  1
  Zn  Zn81  1  0.20444673  0.40662445  0.92199875  1
  Zn  Zn82  1  0.18711044  0.93706827  0.44257975  1
  Zn  Zn83  1  0.19268847  0.92015265  0.94356835  1
  Zn  Zn84  1  0.66487272  0.41366383  0.45555553  1
  Zn  Zn85  1  0.69402561  0.43751956  0.92658896  1
  Zn  Zn86  1  0.67796382  0.94232559  0.44070322  1
  Zn  Zn87  1  0.66036384  0.96838273  0.89615165  1
  Zn  Zn88  1  0.31883090  0.05491769  0.06792978  1
  Zn  Zn89  1  0.31847061  0.05681838  0.56649617  1
  Zn  Zn90  1  0.31262638  0.55088893  0.04410870  1
  Zn  Zn91  1  0.32145193  0.56976378  0.55498569  1
  Zn  Zn92  1  0.79955275  0.03307236  0.01454229  1
  Zn  Zn93  1  0.80574108  0.05733051  0.55376817  1
  Zn  Zn94  1  0.80113365  0.59176472  0.10763885  1
  Zn  Zn95  1  0.78796079  0.59600299  0.60396837  1
  Zn  Zn96  1  0.43293771  0.43077813  0.18894653  1
  Zn  Zn97  1  0.43549798  0.43277269  0.69184475  1
  Zn  Zn98  1  0.44483982  0.93330187  0.19401292  1
  Zn  Zn99  1  0.43528357  0.94864215  0.69068022  1
  Zn  Zn100  1  0.97026385  0.44274233  0.18377261  1
  Zn  Zn101  1  0.92307486  0.45511801  0.67493818  1
  Zn  Zn102  1  0.93642060  0.94935881  0.18363723  1
  Zn  Zn103  1  0.96482037  0.92210262  0.67549443  1
  Zn  Zn104  1  0.06794840  0.06699749  0.31523436  1
  Zn  Zn105  1  0.11098660  0.03973294  0.82675542  1
  Zn  Zn106  1  0.07614088  0.55766495  0.30827582  1
  Zn  Zn107  1  0.04320341  0.56797945  0.83971106  1
  Zn  Zn108  1  0.57670305  0.07051957  0.32169771  1
  Zn  Zn109  1  0.57724147  0.08051946  0.78815100  1
  Zn  Zn110  1  0.56607429  0.55472610  0.31017130  1
  Zn  Zn111  1  0.55668326  0.56804458  0.81512150  1
  Zn  Zn112  1  0.43461289  0.18537848  0.44359523  1
  Zn  Zn113  1  0.44961967  0.18119642  0.92985559  1
  Zn  Zn114  1  0.43799939  0.68753534  0.44082111  1
  Zn  Zn115  1  0.42646311  0.69632647  0.92542043  1
  Zn  Zn116  1  0.95559514  0.19370918  0.42029771  1
  Zn  Zn117  1  0.92503017  0.15267569  0.98044877  1
  Zn  Zn118  1  0.93252658  0.69866519  0.42912449  1
  Zn  Zn119  1  0.92366646  0.70526265  0.93557096  1
  Zn  Zn120  1  0.03197215  0.27547936  0.03739701  1
  Zn  Zn121  1  0.07043745  0.30500083  0.55831639  1
  Zn  Zn122  1  0.06585582  0.79644899  0.06225959  1
  Zn  Zn123  1  0.06043112  0.81384747  0.55587179  1
  Zn  Zn124  1  0.55204108  0.30700940  0.06173686  1
  Zn  Zn125  1  0.55832167  0.30743870  0.55995129  1
  Zn  Zn126  1  0.55879509  0.81889465  0.07764696  1
  Zn  Zn127  1  0.55913237  0.81363054  0.56341941  1
  O  O128  1  0.13272068  0.10192733  0.12676905  1
  O  O129  1  0.12698494  0.10583566  0.60261151  1
  O  O130  1  0.15189645  0.60436310  0.11628061  1
  O  O131  1  0.10019152  0.62155645  0.62291937  1
  O  O132  1  0.60275639  0.12515746  0.13616495  1
  O  O133  1  0.60436716  0.12015882  0.63230144  1
  O  O134  1  0.61913882  0.58400313  0.10852595  1
  O  O135  1  0.60414489  0.61981981  0.64178628  1
  O  O136  1  0.38774599  0.39051882  0.37035247  1
  O  O137  1  0.38341686  0.36102044  0.88424010  1
  O  O138  1  0.39400191  0.88485902  0.37284655  1
  O  O139  1  0.37793949  0.86715346  0.88735811  1
  O  O140  1  0.90365351  0.37444320  0.38527674  1
  O  O141  1  0.86980744  0.31543843  0.86690703  1
  O  O142  1  0.88675122  0.89153706  0.37533892  1
  O  O143  1  0.89961737  0.87647816  0.87734293  1
  O  O144  1  0.24953807  -0.00832130  0.36174715  1
  O  O145  1  0.23748400  -0.03504070  0.83967298  1
  O  O146  1  0.26062409  0.50604560  0.36906451  1
  O  O147  1  0.24452015  0.50965178  0.87554026  1
  O  O148  1  0.76277578  0.01001170  0.38270540  1
  O  O149  1  0.76094875  -0.03036750  0.78632413  1
  O  O150  1  0.70968947  0.51839532  0.37931058  1
  O  O151  1  0.73726705  0.52160158  0.86196507  1
  O  O152  1  0.26028357  0.49056027  0.12858453  1
  O  O153  1  0.23991063  0.48317912  0.58675824  1
  O  O154  1  0.24542666  0.98453143  0.13900439  1
  O  O155  1  0.24030275  0.99191175  0.62233565  1
  O  O156  1  0.73140168  0.47751890  0.12712436  1
  O  O157  1  0.73027529  0.49946551  0.63800470  1
  O  O158  1  0.75496709  1.00299406  0.12884076  1
  O  O159  1  0.73350387  1.00410686  0.62249175  1
  O  O160  1  0.02485226  0.37034560  0.24910528  1
  O  O161  1  -0.01860685  0.40008944  0.75898759  1
  O  O162  1  0.01594250  0.88134525  0.26123892  1
  O  O163  1  0.00454510  0.85784295  0.76107328  1
  O  O164  1  0.48544782  0.35401717  0.25877727  1
  O  O165  1  0.49516524  0.36369791  0.75974539  1
  O  O166  1  0.50470874  0.86839503  0.26533897  1
  O  O167  1  0.48096606  0.86242371  0.75179174  1
  O  O168  1  0.48674233  0.13161417  0.24987197  1
  O  O169  1  0.49379392  0.13876987  0.74066885  1
  O  O170  1  0.51725722  0.64456053  0.27427199  1
  O  O171  1  0.48112266  0.63437992  0.74536990  1
  O  O172  1  1.00320509  0.13347050  0.25299470  1
  O  O173  1  0.94587854  0.07314694  0.78827071  1
  O  O174  1  1.00997982  0.63227615  0.25321625  1
  O  O175  1  0.98483387  0.63401562  0.76268645  1
  O  O176  1  0.38161235  0.24971559  0.01390046  1
  O  O177  1  0.38134758  0.24681754  0.51816770  1
  O  O178  1  0.35490391  0.75468020  -0.00603852  1
  O  O179  1  0.36372160  0.74591755  0.51552846  1
  O  O180  1  0.84520076  0.25183676  0.01247049  1
  O  O181  1  0.88946766  0.24056853  0.51584425  1
  O  O182  1  0.85891342  0.78060248  -0.00320839  1
  O  O183  1  0.87264263  0.77272647  0.48791249  1
  O  O184  1  0.13344513  0.22975190  0.50911876  1
  O  O185  1  0.13300791  0.23081603  1.01208259  1
  O  O186  1  0.13931755  0.75524912  0.49156555  1
  O  O187  1  0.14158710  0.74541665  0.98780552  1
  O  O188  1  0.64335981  0.29435552  0.48096882  1
  O  O189  1  0.63788996  0.26218722  1.00598232  1
  O  O190  1  0.63054533  0.73541054  0.50342713  1
  O  O191  1  0.60112100  0.75034529  0.99318522  1
  O  O192  1  0.48998522  0.24495780  0.13837260  1
  O  O193  1  0.49477160  0.23968028  0.62540797  1
  O  O194  1  0.51063228  0.74463292  0.15105379  1
  O  O195  1  0.48309476  0.74630959  0.63098612  1
  O  O196  1  1.01656394  0.24864383  0.14418871  1
  O  O197  1  0.98911056  0.23779220  0.61498266  1
  O  O198  1  1.01209101  0.75811054  0.15197266  1
  O  O199  1  1.00965800  0.74643053  0.63993716  1
  O  O200  1  0.00866496  0.26540561  0.35101449  1
  O  O201  1  -0.01913377  0.23905179  0.94453918  1
  O  O202  1  0.01555078  0.75877057  0.36926154  1
  O  O203  1  0.01257576  0.75542410  0.87194147  1
  O  O204  1  0.49698957  0.25944105  0.37188581  1
  O  O205  1  0.51037362  0.25149847  0.85626996  1
  O  O206  1  0.50025927  0.76493243  0.38378704  1
  O  O207  1  0.50824685  0.74107261  0.86060551  1
  O  O208  1  0.25036652  0.11757980  0.49888088  1
  O  O209  1  0.24348129  0.11809708  1.01353026  1
  O  O210  1  0.25362601  0.63351691  0.48640559  1
  O  O211  1  0.25986988  0.63126617  0.98259753  1
  O  O212  1  0.73842989  0.14902913  0.54846011  1
  O  O213  1  0.73084149  0.14425143  1.00378858  1
  O  O214  1  0.72998067  0.65053560  0.51873439  1
  O  O215  1  0.74692232  0.62064220  0.99140268  1
  O  O216  1  0.26993570  0.36852908  0.01195679  1
  O  O217  1  0.25524024  0.32634470  0.46043131  1
  O  O218  1  0.25708848  0.85613130  0.01260652  1
  O  O219  1  0.25490869  0.86123725  0.49625052  1
  O  O220  1  0.74789559  0.35366938  -0.01826848  1
  O  O221  1  0.78349288  0.42702092  0.48161675  1
  O  O222  1  0.74911138  0.94729166  -0.03943007  1
  O  O223  1  0.76430690  0.88779729  0.49304499  1
  O  O224  1  0.14639897  0.49223744  0.23685487  1
  O  O225  1  0.09136092  0.48646467  0.76328800  1
  O  O226  1  0.13878172  0.99173127  0.24478854  1
  O  O227  1  0.10886148  1.00773585  0.72391350  1
  O  O228  1  0.63106213  0.49457756  0.22897368  1
  O  O229  1  0.63017650  0.50448936  0.74332363  1
  O  O230  1  0.64245551  1.00239379  0.25752586  1
  O  O231  1  0.61045971  0.99100843  0.72783864  1
  O  O232  1  0.36625407  0.00925811  0.24931226  1
  O  O233  1  0.38592331  0.02332195  0.75983087  1
  O  O234  1  0.36971138  0.49769099  0.25635944  1
  O  O235  1  0.37135065  0.51219083  0.74392161  1
  O  O236  1  0.86036028  -0.00278416  0.25935985  1
  O  O237  1  0.90863058  0.02280101  0.74983055  1
  O  O238  1  0.86759832  0.48769255  0.22731556  1
  O  O239  1  0.85189875  0.51078012  0.74335960  1
  O  O240  1  0.13482946  0.37940593  0.35316034  1
  O  O241  1  0.09735669  0.39183886  0.86654195  1
  O  O242  1  0.12255817  0.86682587  0.36922421  1
  O  O243  1  0.12813126  0.85258427  0.87067844  1
  O  O244  1  0.60223445  0.37500462  0.36088194  1
  O  O245  1  0.61136241  0.38135174  0.87272595  1
  O  O246  1  0.60571019  0.89252604  0.36577682  1
  O  O247  1  0.62359713  0.86063615  0.88051951  1
  O  O248  1  0.38148643  0.13378835  0.13209173  1
  O  O249  1  0.38579706  0.12738082  0.63604720  1
  O  O250  1  0.41327505  0.62029872  0.07838628  1
  O  O251  1  0.37749811  0.63007566  0.63576949  1
  O  O252  1  0.86672648  0.11271843  0.06947434  1
  O  O253  1  0.86651654  0.14652762  0.62431721  1
  O  O254  1  0.86186673  0.68850235  0.13069503  1
  O  O255  1  0.89281083  0.63329873  0.63907223  1
  O  O256  1  0.26781295  0.25400041  0.13189866  1
  O  O257  1  0.26436928  0.25404902  0.62960764  1
  O  O258  1  0.24520628  0.74661856  0.11466027  1
  O  O259  1  0.25436742  0.74431854  0.61513807  1
  O  O260  1  0.73598896  0.25365795  0.10672826  1
  O  O261  1  0.78307740  0.27432730  0.61613089  1
  O  O262  1  0.73280576  0.77675345  0.10986608  1
  O  O263  1  0.69675945  0.72002963  0.54280862  1
  O  O264  1  0.26362635  0.27572054  0.40440155  1
  O  O265  1  0.23215883  0.30887596  0.86703614  1
  O  O266  1  0.25060244  0.74611153  0.38550676  1
  O  O267  1  0.24059926  0.74196426  0.87578978  1
  O  O268  1  0.73664873  0.28179612  0.34964128  1
  O  O269  1  0.74086007  0.23325942  0.89526068  1
  O  O270  1  0.77856093  0.67236949  0.35856297  1
  O  O271  1  0.73055762  0.74812373  0.89132547  1
  O  O272  1  0.02898645  0.09163963  -0.00028966  1
  O  O273  1  0.00781838  0.11398551  0.48637861  1
  O  O274  1  -0.01461531  0.65513426  0.01781138  1
  O  O275  1  -0.00828717  0.63468471  0.49921881  1
  O  O276  1  0.49822607  0.13081048  0.01563091  1
  O  O277  1  0.49889955  0.11878132  0.51187840  1
  O  O278  1  0.46194513  0.62752216  0.02085910  1
  O  O279  1  0.49352040  0.61648903  0.51412949  1
  O  O280  1  0.50000848  0.38255515  0.48657635  1
  O  O281  1  0.49240592  0.36038797  0.98280153  1
  O  O282  1  0.50385772  0.88542830  0.49083447  1
  O  O283  1  0.47323375  0.85990680  1.01647413  1
  O  O284  1  1.03695868  0.37448774  0.47893640  1
  O  O285  1  0.95807317  0.37563227  1.03619103  1
  O  O286  1  0.99546213  0.88430191  0.48612611  1
  O  O287  1  1.02114175  0.87012185  0.98719730  1
  O  O288  1  0.49883228  0.49356000  0.38095625  1
  O  O289  1  0.49754396  0.48554513  0.86533565  1
  O  O290  1  0.50531429  1.00970463  0.39092979  1
  O  O291  1  0.47950271  1.01642549  0.89264620  1
  O  O292  1  1.01401743  0.48375683  0.36296969  1
  O  O293  1  0.99097383  0.52307917  0.92897081  1
  O  O294  1  0.99839807  0.99453765  0.37923009  1
  O  O295  1  1.02833356  0.97650567  0.88759971  1
  O  O296  1  0.02644650  -0.02165102  0.11865450  1
  O  O297  1  -0.00536988  0.00535883  0.60207046  1
  O  O298  1  0.02814948  0.50654900  0.10851262  1
  O  O299  1  -0.01714391  0.51337372  0.60258374  1
  O  O300  1  0.48804451  0.01182033  0.12624142  1
  O  O301  1  0.50160228  0.00975109  0.61815737  1
  O  O302  1  0.52305735  0.47914462  0.13150512  1
  O  O303  1  0.50288944  0.50614735  0.62402073  1
  O  O304  1  0.25350158  0.38293816  0.24006534  1
  O  O305  1  0.18589260  0.37167909  0.74214922  1
  O  O306  1  0.24674970  0.87923175  0.25128492  1
  O  O307  1  0.25037945  0.91311579  0.78330885  1
  O  O308  1  0.82022459  0.44354163  0.26605513  1
  O  O309  1  0.75257108  0.38629454  0.76675714  1
  O  O310  1  0.73566862  0.88845068  0.26007721  1
  O  O311  1  0.78050509  0.90807152  0.75373903  1
  O  O312  1  0.26170162  0.11026802  0.24806135  1
  O  O313  1  0.26382798  0.12694471  0.74388174  1
  O  O314  1  0.25234049  0.61603886  0.26270782  1
  O  O315  1  0.25509697  0.62257915  0.75412684  1
  O  O316  1  0.75191544  0.11638267  0.23858756  1
  O  O317  1  0.75397903  0.18711903  0.74682355  1
  O  O318  1  0.73503344  0.61824911  0.19575871  1
  O  O319  1  0.76671732  0.63725566  0.72688934  1
  O  O320  1  0.37421157  0.12843509  0.36419262  1
  O  O321  1  0.36772158  0.15924822  0.85608749  1
  O  O322  1  0.37134712  0.61336721  0.37862063  1
  O  O323  1  0.35984617  0.62877563  0.85715878  1
  O  O324  1  0.88190440  0.11466651  0.37682052  1
  O  O325  1  0.84848864  0.09810792  0.91903720  1
  O  O326  1  0.83325215  0.62812146  0.37868982  1
  O  O327  1  0.85022220  0.64253881  0.86379256  1
  O  O328  1  0.14621585  0.38465014  0.13373614  1
  O  O329  1  0.07995607  0.36617672  0.65738340  1
  O  O330  1  0.14138301  0.87199339  0.13936541  1
  O  O331  1  0.11055592  0.89405795  0.61586817  1
  O  O332  1  0.61783670  0.37803984  0.13112682  1
  O  O333  1  0.61170240  0.38706678  0.63109703  1
  O  O334  1  0.61029418  0.88755939  0.15310122  1
  O  O335  1  0.63031627  0.87916956  0.61911499  1
  O  O336  1  0.14361425  0.26303663  0.24573712  1
  O  O337  1  0.06622043  0.28117004  0.78505187  1
  O  O338  1  0.12522003  0.75576887  0.26163435  1
  O  O339  1  0.11495696  0.73650965  0.76129208  1
  O  O340  1  0.60620655  0.24734923  0.25646502  1
  O  O341  1  0.61019415  0.25048795  0.72523804  1
  O  O342  1  0.61992867  0.77261558  0.26342169  1
  O  O343  1  0.60047261  0.76360971  0.73977888  1
  O  O344  1  0.37847592  0.23482835  0.24608894  1
  O  O345  1  0.38875991  0.24544321  0.73180309  1
  O  O346  1  0.39346303  0.74792703  0.26057089  1
  O  O347  1  0.37218606  0.74438444  0.73801355  1
  O  O348  1  0.88838407  0.25342885  0.23972284  1
  O  O349  1  0.89076844  0.24653054  0.72563620  1
  O  O350  1  0.90051137  0.74786984  0.27629138  1
  O  O351  1  0.89200298  0.74682142  0.75193476  1
  O  O352  1  0.38917783  0.50059166  0.48978033  1
  O  O353  1  0.38166942  0.47562338  0.99589499  1
  O  O354  1  0.39568251  0.99942908  0.50676513  1
  O  O355  1  0.35991024  0.97484314  1.00247022  1
  O  O356  1  0.81759733  0.49225977  0.49483719  1
  O  O357  1  0.87682511  0.53318773  1.04967606  1
  O  O358  1  0.88477731  0.99938826  0.48766779  1
  O  O359  1  0.91243252  0.97837803  1.01259521  1
  O  O360  1  0.13877508  -0.01065751  0.01765066  1
  O  O361  1  0.11569304  0.00417865  0.50048326  1
  O  O362  1  0.15264259  0.48155354  0.00847518  1
  O  O363  1  0.17939296  0.47261139  0.54075570  1
  O  O364  1  0.52202516  -0.01670484  -0.05917646  1
  O  O365  1  0.60931811  0.00014864  0.51645430  1
  O  O366  1  0.63143809  0.47382495  0.02054036  1
  O  O367  1  0.61036658  0.49523270  0.51909683  1
  O  O368  1  0.37565442  0.35915471  0.11905989  1
  O  O369  1  0.37780171  0.36710880  0.62288967  1
  O  O370  1  0.36238234  0.87153926  0.13443243  1
  O  O371  1  0.37118283  0.86269816  0.63272581  1
  O  O372  1  0.91536038  0.37304538  0.09860083  1
  O  O373  1  0.89907535  0.35362633  0.62210874  1
  O  O374  1  0.87153560  0.85823970  0.15723269  1
  O  O375  1  0.88174986  0.88330656  0.60614837  1
  O  O376  1  0.13494585  0.11944555  0.38806148  1
  O  O377  1  0.14326695  0.12243186  0.89020652  1
  O  O378  1  0.13950125  0.63695400  0.37050364  1
  O  O379  1  0.13820750  0.62983773  0.86988057  1
  O  O380  1  0.62780039  0.15832859  0.38029958  1
  O  O381  1  0.63883823  0.07347118  0.87633417  1
  O  O382  1  0.66541645  0.57785252  0.37091685  1
  O  O383  1  0.63765490  0.64522620  0.85373365  1
