# generated using pymatgen
data_VZnO4
_symmetry_space_group_name_H-M   'P 1'
_cell_length_a   17.00596066
_cell_length_b   16.88037085
_cell_length_c   16.97621096
_cell_angle_alpha   90.29854041
_cell_angle_beta   90.15462112
_cell_angle_gamma   89.24248186
_symmetry_Int_Tables_number   1
_chemical_formula_structural   VZnO4
_chemical_formula_sum   'V64 Zn64 O256'
_cell_volume   4872.79971650
_cell_formula_units_Z   64
loop_
 _symmetry_equiv_pos_site_id
 _symmetry_equiv_pos_as_xyz
  1  'x, y, z'
loop_
 _atom_site_type_symbol
 _atom_site_label
 _atom_site_symmetry_multiplicity
 _atom_site_fract_x
 _atom_site_fract_y
 _atom_site_fract_z
 _atom_site_occupancy
  V  V0  1  0.12857805  0.33971817  0.74314697  1
  V  V1  1  0.75200121  0.62802556  0.38515135  1
  V  V2  1  0.02613017  0.48602394  -0.01850124  1
  V  V3  1  0.88151805  -0.01729063  0.37688700  1
  V  V4  1  0.87363739  0.13301420  0.26112441  1
  V  V5  1  0.10092309  0.84000293  0.24852983  1
  V  V6  1  0.48276209  0.00020920  0.00964004  1
  V  V7  1  0.76589033  0.50897471  0.25954859  1
  V  V8  1  0.63219928  0.00574914  0.11868657  1
  V  V9  1  0.49424482  0.86112296  0.89440657  1
  V  V10  1  0.87700224  0.87475124  0.52221275  1
  V  V11  1  0.12321260  0.23160032  0.36290068  1
  V  V12  1  0.17529190  -0.04331442  0.16111969  1
  V  V13  1  0.73878954  0.24576812  -0.00526699  1
  V  V14  1  0.36660474  0.26393475  0.11532862  1
  V  V15  1  0.38379924  0.62454147  0.24441506  1
  V  V16  1  -0.01389265  0.11789783  0.11361269  1
  V  V17  1  0.73926836  0.26127436  0.52223721  1
  V  V18  1  0.48686140  0.25856439  0.76240761  1
  V  V19  1  0.86865197  0.88201534  -0.00653948  1
  V  V20  1  0.38403312  0.26355747  0.61571938  1
  V  V21  1  0.63762452  0.74636537  0.87417634  1
  V  V22  1  0.12305470  0.61496558  0.51499355  1
  V  V23  1  0.50970452  0.14400976  0.13194946  1
  V  V24  1  0.88686600  0.72482757  0.12802746  1
  V  V25  1  0.36245056  0.76760636  0.12387281  1
  V  V26  1  0.35768064  0.13580344  0.24546760  1
  V  V27  1  0.24607999  0.64180640  0.88045517  1
  V  V28  1  0.25176796  0.48910498  0.24922363  1
  V  V29  1  0.50512286  0.76055920  0.24054184  1
  V  V30  1  0.61509606  0.36817050  0.26545000  1
  V  V31  1  0.24654670  0.85588714  0.61539887  1
  V  V32  1  -0.01987579  0.61216399  0.63036994  1
  V  V33  1  0.64425322  0.77450904  0.36710692  1
  V  V34  1  0.25593912  0.63925291  0.37403679  1
  V  V35  1  0.74033753  0.76684522  0.51825248  1
  V  V36  1  0.37183968  0.38189017  -0.00941556  1
  V  V37  1  0.24910795  0.52952753  0.71941559  1
  V  V38  1  0.61332809  0.50450501  0.13228481  1
  V  V39  1  0.74930787  0.49278401  0.73990777  1
  V  V40  1  0.75365187  0.86393960  0.12709932  1
  V  V41  1  0.60583546  0.13301173  0.50413050  1
  V  V42  1  0.23730291  0.26115002  0.51082327  1
  V  V43  1  0.50181473  0.50379337  -0.00483243  1
  V  V44  1  0.63634558  0.63013095  0.00510320  1
  V  V45  1  0.73431703  0.14165664  0.37751634  1
  V  V46  1  0.75493803  0.38337144  0.12415608  1
  V  V47  1  0.13321295  0.08877379  0.01747754  1
  V  V48  1  0.00369968  0.74353687  0.76472723  1
  V  V49  1  -0.00592975  0.26987245  0.25616893  1
  V  V50  1  0.47035157  0.88396236  0.36401290  1
  V  V51  1  0.08553334  0.73259646  0.37673871  1
  V  V52  1  0.90330880  0.25822157  0.62484397  1
  V  V53  1  0.74161357  -0.00156779  0.25894138  1
  V  V54  1  0.62977316  0.36699482  0.76113123  1
  V  V55  1  0.48748137  -0.00591499  0.48792665  1
  V  V56  1  0.02846240  0.60551200  0.11427108  1
  V  V57  1  0.87020716  0.47397697  0.88160894  1
  V  V58  1  0.39066097  0.51888662  0.85366856  1
  V  V59  1  0.86464979  0.62419322  0.76986797  1
  V  V60  1  0.87371781  0.26169454  0.11652021  1
  V  V61  1  -0.01026307  0.87941947  0.86911942  1
  V  V62  1  0.85425672  0.12032089  0.74568538  1
  V  V63  1  0.48730514  0.10611883  0.63877226  1
  Zn  Zn64  1  0.18034397  0.21593501  0.16809713  1
  Zn  Zn65  1  0.25431198  0.20013876  0.71841367  1
  Zn  Zn66  1  0.19372993  0.67934523  0.18749080  1
  Zn  Zn67  1  0.18986321  0.69611246  0.70392290  1
  Zn  Zn68  1  0.68931342  0.19310096  0.18706252  1
  Zn  Zn69  1  0.67264616  0.18025552  0.69287977  1
  Zn  Zn70  1  0.68816049  0.68638831  0.19177407  1
  Zn  Zn71  1  0.63683224  0.82167020  0.69331100  1
  Zn  Zn72  1  0.32510785  0.29462239  0.32377048  1
  Zn  Zn73  1  0.31698650  0.35548019  0.78987409  1
  Zn  Zn74  1  0.29446198  0.81922460  0.28470795  1
  Zn  Zn75  1  0.30851583  0.84023870  0.81828067  1
  Zn  Zn76  1  0.80371028  0.33104051  0.32289868  1
  Zn  Zn77  1  0.80789137  0.29363300  0.80486729  1
  Zn  Zn78  1  0.87344024  0.76013971  0.34114756  1
  Zn  Zn79  1  0.79489294  0.81111389  0.80748965  1
  Zn  Zn80  1  0.23494794  0.46003775  0.45525380  1
  Zn  Zn81  1  0.20963841  0.44444479  0.90664734  1
  Zn  Zn82  1  0.17158372  0.90704071  0.43026921  1
  Zn  Zn83  1  0.15436512  0.96995763  0.88453480  1
  Zn  Zn84  1  0.86225859  0.40062175  0.49678846  1
  Zn  Zn85  1  0.68400712  0.43214944  0.93819906  1
  Zn  Zn86  1  0.69196607  0.96415097  0.51798614  1
  Zn  Zn87  1  0.68251786  0.93024480  0.94321685  1
  Zn  Zn88  1  0.31344513  0.07122686  0.07461117  1
  Zn  Zn89  1  0.20796675  0.07362829  0.43941073  1
  Zn  Zn90  1  0.31154111  0.56602523  0.06596174  1
  Zn  Zn91  1  0.31683624  0.65477435  0.56710545  1
  Zn  Zn92  1  0.81409524  0.06745925  0.06211665  1
  Zn  Zn93  1  0.82138518  0.07711511  0.56092889  1
  Zn  Zn94  1  0.81647077  0.55263204  0.05383661  1
  Zn  Zn95  1  0.79531605  0.56998049  0.56681459  1
  Zn  Zn96  1  0.41334809  0.41381528  0.21446313  1
  Zn  Zn97  1  0.46707913  0.43182109  0.68690876  1
  Zn  Zn98  1  0.43116704  0.95162156  0.18939492  1
  Zn  Zn99  1  0.44779544  0.86456899  0.70420569  1
  Zn  Zn100  1  0.95243631  0.46136616  0.18705105  1
  Zn  Zn101  1  0.94710072  0.42660813  0.69860281  1
  Zn  Zn102  1  0.92704618  0.93643528  0.19333860  1
  Zn  Zn103  1  0.78346036  0.94715768  0.68481132  1
  Zn  Zn104  1  0.05608865  0.06223705  0.30327721  1
  Zn  Zn105  1  -0.01415805  0.09013265  0.89610043  1
  Zn  Zn106  1  0.07818231  0.54730728  0.30053513  1
  Zn  Zn107  1  0.06875292  0.56128551  0.81093651  1
  Zn  Zn108  1  0.55729319  0.06781385  0.30878133  1
  Zn  Zn109  1  0.54904833  0.01179743  0.80878383  1
  Zn  Zn110  1  0.57771783  0.58213155  0.30319888  1
  Zn  Zn111  1  0.57589215  0.56715240  0.81543457  1
  Zn  Zn112  1  0.38103421  0.14505181  0.45260061  1
  Zn  Zn113  1  0.44510121  0.18212287  0.94939364  1
  Zn  Zn114  1  0.43524756  0.71152208  0.42223089  1
  Zn  Zn115  1  0.44253387  0.68652507  0.95371798  1
  Zn  Zn116  1  0.91474737  0.22823998  0.42899260  1
  Zn  Zn117  1  0.99337251  0.32834352  0.87655465  1
  Zn  Zn118  1  0.92995998  0.57526886  0.43823874  1
  Zn  Zn119  1  0.93208648  0.68193578  0.94889779  1
  Zn  Zn120  1  0.06383157  0.30845699  0.05640826  1
  Zn  Zn121  1  0.06934152  0.32848103  0.56156528  1
  Zn  Zn122  1  0.04223574  0.81327111  0.06334585  1
  Zn  Zn123  1  0.04306467  0.78902615  0.56738778  1
  Zn  Zn124  1  0.56559126  0.32527033  0.06432870  1
  Zn  Zn125  1  0.56643839  0.31313965  0.57959505  1
  Zn  Zn126  1  0.57119537  0.81947208  0.06754347  1
  Zn  Zn127  1  0.50135302  0.73708987  0.58821746  1
  O  O128  1  0.09414449  0.14198794  0.10691831  1
  O  O129  1  0.21925338  0.08273734  0.65637316  1
  O  O130  1  0.12622922  0.61966496  0.11576293  1
  O  O131  1  0.13090284  0.63849694  0.61192409  1
  O  O132  1  0.61656779  0.12017325  0.13330433  1
  O  O133  1  0.60333972  0.12746069  0.61091722  1
  O  O134  1  0.63308854  0.61014259  0.12174100  1
  O  O135  1  0.59757156  0.61215588  0.66132780  1
  O  O136  1  0.41841188  0.35639182  0.38926058  1
  O  O137  1  0.37860077  0.40370407  0.88309282  1
  O  O138  1  0.37254414  0.87410671  0.35691425  1
  O  O139  1  0.39605282  0.86413054  0.89591668  1
  O  O140  1  0.87989790  0.33725198  0.40316002  1
  O  O141  1  0.88562020  0.37130152  0.86431525  1
  O  O142  1  0.87576211  0.88252145  0.36851009  1
  O  O143  1  0.86097359  0.86142785  0.89209635  1
  O  O144  1  0.23320209  -0.01693051  0.37769776  1
  O  O145  1  0.25076899  -0.06827218  0.85649184  1
  O  O146  1  0.25382884  0.52532568  0.36417614  1
  O  O147  1  0.27929107  0.51917581  0.84838242  1
  O  O148  1  0.75826992  0.01427609  0.36326638  1
  O  O149  1  0.68062382  0.08349406  0.87900004  1
  O  O150  1  0.74848863  0.52099832  0.36561595  1
  O  O151  1  0.76659802  0.47841537  0.87087759  1
  O  O152  1  0.26947170  0.50246572  0.15003002  1
  O  O153  1  0.27479021  0.56859857  0.62727127  1
  O  O154  1  0.26574867  0.98909728  0.13985746  1
  O  O155  1  0.23003062  0.95459216  0.63357641  1
  O  O156  1  0.75335245  0.49213091  0.13543789  1
  O  O157  1  0.74956360  0.49520159  0.64073317  1
  O  O158  1  0.74167118  1.01277326  0.13863365  1
  O  O159  1  0.73844761  1.01611116  0.60659367  1
  O  O160  1  -0.00339477  0.36755981  0.24277235  1
  O  O161  1  0.02881584  0.36322863  0.77091665  1
  O  O162  1  0.00704589  0.87722085  0.24908096  1
  O  O163  1  -0.02181950  0.84719512  0.76346475  1
  O  O164  1  0.51530921  0.38550323  0.24964213  1
  O  O165  1  0.48522257  0.35656951  0.78088301  1
  O  O166  1  0.49504502  0.87140746  0.25660574  1
  O  O167  1  0.51575668  0.90030979  0.79498136  1
  O  O168  1  0.49403412  0.13146749  0.23451746  1
  O  O169  1  0.50798558  0.08832605  0.73529724  1
  O  O170  1  0.49184207  0.64996838  0.26610157  1
  O  O171  1  0.53954585  0.62481071  0.71495046  1
  O  O172  1  0.98275118  0.13765557  0.24490447  1
  O  O173  1  1.04859008  0.08360852  0.58103931  1
  O  O174  1  1.00663478  0.57592479  0.21387073  1
  O  O175  1  0.98295868  0.62544848  0.75363740  1
  O  O176  1  0.39222747  0.27488705  -0.00388975  1
  O  O177  1  0.38672227  0.24464511  0.51665287  1
  O  O178  1  0.38107645  0.74715769  0.02724025  1
  O  O179  1  0.41334286  0.70268506  0.53000809  1
  O  O180  1  0.86665934  0.25834151  0.01930665  1
  O  O181  1  0.84986470  0.23253659  0.52731440  1
  O  O182  1  0.87415177  0.75698295  0.02370894  1
  O  O183  1  0.84944617  0.76900538  0.50565053  1
  O  O184  1  0.13448518  0.26180882  0.48786728  1
  O  O185  1  0.09048987  0.22098699  0.97032676  1
  O  O186  1  0.10103659  0.72967755  0.48131273  1
  O  O187  1  0.14562890  0.76132420  0.99937536  1
  O  O188  1  0.62713664  0.24257267  0.50599773  1
  O  O189  1  0.63984949  0.25906908  1.00953273  1
  O  O190  1  0.63952984  0.76496741  0.47371872  1
  O  O191  1  0.62512919  0.73165604  1.01636227  1
  O  O192  1  0.50166758  0.24485015  0.11705173  1
  O  O193  1  0.49152562  0.23415655  0.64724972  1
  O  O194  1  0.50021084  0.76090187  0.13992143  1
  O  O195  1  0.59021529  0.65303596  0.59542420  1
  O  O196  1  0.98179249  0.24917772  0.13470420  1
  O  O197  1  1.00125303  0.24745421  0.60795295  1
  O  O198  1  0.99675780  0.71729123  0.11506590  1
  O  O199  1  0.99591282  0.72386516  0.64743251  1
  O  O200  1  0.01396970  0.25970400  0.36485692  1
  O  O201  1  0.04364864  0.22139748  0.90618444  1
  O  O202  1  -0.01165181  0.73014853  0.36788865  1
  O  O203  1  -0.01321659  0.74474968  0.87009896  1
  O  O204  1  0.47856194  0.32545152  0.42784887  1
  O  O205  1  0.48300277  0.21041848  0.84845731  1
  O  O206  1  0.51022630  0.77626552  0.36824865  1
  O  O207  1  0.50909180  0.75680454  0.89204339  1
  O  O208  1  0.26295023  0.16503585  0.47473024  1
  O  O209  1  0.22807313  0.11545481  1.01291676  1
  O  O210  1  0.23737721  0.64118614  0.47908008  1
  O  O211  1  0.26357255  0.61890273  0.98028557  1
  O  O212  1  0.73289857  0.13090301  0.48721775  1
  O  O213  1  0.75451002  0.14623734  1.00816294  1
  O  O214  1  0.74756405  0.64697688  0.49110570  1
  O  O215  1  0.73479368  0.61265972  1.00221238  1
  O  O216  1  0.27313413  0.39220184  -0.00769329  1
  O  O217  1  0.26650424  0.35351557  0.47959679  1
  O  O218  1  0.20118435  0.80761809  -0.00466668  1
  O  O219  1  0.24007028  0.85275677  0.51032061  1
  O  O220  1  0.74721785  0.37505524  0.02196105  1
  O  O221  1  0.74513642  0.35825566  0.50743055  1
  O  O222  1  0.75490335  0.87644250  0.01811774  1
  O  O223  1  0.75275803  0.87285687  0.49858144  1
  O  O224  1  0.15347972  0.47175595  0.25588477  1
  O  O225  1  0.14951898  0.51600806  0.73718764  1
  O  O226  1  0.12590093  1.01884277  0.22273781  1
  O  O227  1  0.16909029  1.04625044  0.69294582  1
  O  O228  1  0.63268606  0.50132276  0.24050805  1
  O  O229  1  0.64516529  0.49058427  0.76287224  1
  O  O230  1  0.63894625  1.00960898  0.24560969  1
  O  O231  1  0.66852300  1.00239241  0.84761042  1
  O  O232  1  0.37611866  0.03535460  0.24813007  1
  O  O233  1  0.36108232  -0.07083076  0.74052688  1
  O  O234  1  0.40076236  0.52669359  0.25387285  1
  O  O235  1  0.42272393  0.51474765  0.75889876  1
  O  O236  1  0.86270544  0.01383017  0.25956921  1
  O  O237  1  0.84555204  0.02112167  0.74735972  1
  O  O238  1  0.86353921  0.49247376  0.25510274  1
  O  O239  1  0.86683292  0.49183647  0.76054541  1
  O  O240  1  0.04367395  0.43026436  0.42090405  1
  O  O241  1  0.20001167  0.36571630  0.81953056  1
  O  O242  1  0.11077883  0.83939359  0.36420450  1
  O  O243  1  0.08913963  0.87718327  0.87770774  1
  O  O244  1  0.63031006  0.37804834  0.36076392  1
  O  O245  1  0.61952538  0.37748646  0.86097580  1
  O  O246  1  0.63868568  0.87058841  0.35657593  1
  O  O247  1  0.61783462  0.85047592  0.90154816  1
  O  O248  1  0.38870965  0.14416730  0.12706956  1
  O  O249  1  0.38978427  0.13301690  0.63217520  1
  O  O250  1  0.37520692  0.63860251  0.14241184  1
  O  O251  1  0.44557629  0.57658841  0.60639274  1
  O  O252  1  0.87239219  0.14336465  0.13852003  1
  O  O253  1  0.88003259  0.13810262  0.64034295  1
  O  O254  1  0.87247906  0.62464213  0.12266354  1
  O  O255  1  0.87781259  0.61427051  0.64158186  1
  O  O256  1  0.27214551  0.24899168  0.09608294  1
  O  O257  1  0.26749486  0.25405189  0.61354521  1
  O  O258  1  0.26271351  0.75577758  0.14259797  1
  O  O259  1  0.25919559  0.74659157  0.61992992  1
  O  O260  1  0.75949304  0.26494173  0.12779471  1
  O  O261  1  0.73082239  0.25214654  0.62151468  1
  O  O262  1  0.75370779  0.76259757  0.13595799  1
  O  O263  1  0.71886890  0.76206730  0.61296139  1
  O  O264  1  0.21369785  0.27336152  0.35404733  1
  O  O265  1  0.30347261  0.15658036  0.86858840  1
  O  O266  1  0.23580704  0.73814527  0.34897475  1
  O  O267  1  0.26120561  0.74209782  0.86929778  1
  O  O268  1  0.74412959  0.24226284  0.38394409  1
  O  O269  1  0.75462792  0.26580361  0.89838481  1
  O  O270  1  0.74930430  0.74867433  0.36097665  1
  O  O271  1  0.73671681  0.74766773  0.88549289  1
  O  O272  1  -0.02858063  0.11523864  0.01441623  1
  O  O273  1  0.00540550  0.14836336  0.47500029  1
  O  O274  1  0.00051974  0.60195972  0.00509725  1
  O  O275  1  0.00847768  0.61115025  0.52245442  1
  O  O276  1  0.49825143  0.11272177  0.02362203  1
  O  O277  1  0.50588572  0.13756980  0.49175335  1
  O  O278  1  0.51473533  0.60977530  0.01119556  1
  O  O279  1  0.40661250  0.50520488  0.45564897  1
  O  O280  1  0.50326899  0.37024873  0.48760790  1
  O  O281  1  0.50152306  0.39696495  1.00280578  1
  O  O282  1  0.48165537  0.89073696  0.47704592  1
  O  O283  1  0.50840723  0.89129638  1.00495603  1
  O  O284  1  1.00950888  0.41136533  0.48923266  1
  O  O285  1  1.01384940  0.37707618  0.98151903  1
  O  O286  1  0.97704145  0.86199319  0.51073913  1
  O  O287  1  0.97776910  0.86848515  0.98843992  1
  O  O288  1  0.54697933  0.50721415  0.40366529  1
  O  O289  1  0.50257674  0.50973304  0.88899469  1
  O  O290  1  0.50209644  0.98703595  0.36841547  1
  O  O291  1  0.49634419  1.00622742  0.90957286  1
  O  O292  1  1.00446686  0.49251710  0.37972480  1
  O  O293  1  0.99205939  0.49795119  0.87885240  1
  O  O294  1  0.97822089  1.00590247  0.36613184  1
  O  O295  1  0.96976250  0.97692244  0.86287063  1
  O  O296  1  -0.01828982  0.02121566  0.13682991  1
  O  O297  1  -0.00486626  0.09140856  0.52931406  1
  O  O298  1  0.01260718  0.49133414  0.09282270  1
  O  O299  1  0.00538101  0.51553129  0.65069391  1
  O  O300  1  0.51851228  0.00333320  0.12524656  1
  O  O301  1  0.49002734  0.00827243  0.59640347  1
  O  O302  1  0.51548929  0.50025651  0.12371587  1
  O  O303  1  0.48479595  0.51463098  0.59468188  1
  O  O304  1  0.30719839  0.40072964  0.27162214  1
  O  O305  1  0.29686580  0.43787786  0.71278823  1
  O  O306  1  0.20309794  0.88365636  0.24537010  1
  O  O307  1  0.23289193  0.83801107  0.72073885  1
  O  O308  1  0.74129534  0.39141261  0.24699211  1
  O  O309  1  0.73378068  0.37073979  0.74618201  1
  O  O310  1  0.75818784  0.89793469  0.23463090  1
  O  O311  1  0.72573258  0.87171334  0.74177000  1
  O  O312  1  0.25928573  0.14665567  0.22224939  1
  O  O313  1  0.26791699  0.12120758  0.80699871  1
  O  O314  1  0.26488022  0.61362816  0.25494032  1
  O  O315  1  0.26467974  0.63217404  0.76257465  1
  O  O316  1  0.75336468  0.12670766  0.26104571  1
  O  O317  1  0.76002228  0.16188333  0.76271874  1
  O  O318  1  0.75348237  0.61296373  0.25038185  1
  O  O319  1  0.76203355  0.59931049  0.75644068  1
  O  O320  1  0.36667990  0.17657363  0.34310355  1
  O  O321  1  0.35622358  0.11042085  0.90409118  1
  O  O322  1  0.36238486  0.64619860  0.36471867  1
  O  O323  1  0.38617417  0.61909405  0.87808254  1
  O  O324  1  0.85937500  0.13252787  0.36978856  1
  O  O325  1  0.91888498  0.14237920  0.82265318  1
  O  O326  1  0.85695926  0.64143763  0.37413299  1
  O  O327  1  0.87514691  0.60458168  0.87063176  1
  O  O328  1  0.14280724  0.31719517  0.13062423  1
  O  O329  1  0.13464203  0.36987502  0.64632771  1
  O  O330  1  0.11196855  0.86244580  0.13827298  1
  O  O331  1  0.13934794  0.84429349  0.60550343  1
  O  O332  1  0.63840932  0.39126965  0.13320570  1
  O  O333  1  0.57836950  0.39177676  0.66294177  1
  O  O334  1  0.64436896  0.89231252  0.12578611  1
  O  O335  1  0.53448471  0.82664312  0.64306762  1
  O  O336  1  0.10108258  0.23773495  0.25600168  1
  O  O337  1  0.14646413  0.23983800  0.73970589  1
  O  O338  1  0.10581277  0.73632847  0.25147143  1
  O  O339  1  0.10286652  0.73981533  0.76131520  1
  O  O340  1  0.62986724  0.26835085  0.24486090  1
  O  O341  1  0.60241573  0.25970623  0.74993171  1
  O  O342  1  0.61145345  0.74982187  0.25372158  1
  O  O343  1  0.62357355  0.74119055  0.77634581  1
  O  O344  1  0.37473181  0.25965765  0.21948665  1
  O  O345  1  0.36615450  0.25890025  0.73864654  1
  O  O346  1  0.38741418  0.74977676  0.24329210  1
  O  O347  1  0.38176437  0.78027079  0.74570380  1
  O  O348  1  0.88224394  0.25157369  0.25336534  1
  O  O349  1  0.88406570  0.26408373  0.72552295  1
  O  O350  1  0.88307219  0.75342495  0.22461862  1
  O  O351  1  0.86428825  0.72538164  0.76302819  1
  O  O352  1  0.35131131  0.50074278  0.50265525  1
  O  O353  1  0.39328797  0.50005814  1.00384069  1
  O  O354  1  0.39506315  1.03146932  0.47304445  1
  O  O355  1  0.38535552  0.99824298  1.02154755  1
  O  O356  1  0.86104293  0.51166785  0.49761819  1
  O  O357  1  0.87861662  0.48666981  0.98320333  1
  O  O358  1  0.86641962  0.98863820  0.48405910  1
  O  O359  1  0.86288945  0.98361505  1.00013957  1
  O  O360  1  0.13565172  -0.00556710  0.05817464  1
  O  O361  1  0.14989691  -0.00403320  0.49735110  1
  O  O362  1  0.12427417  0.48982261  -0.03118163  1
  O  O363  1  0.14607997  0.51648358  0.50329836  1
  O  O364  1  0.63346832  0.00858163  0.01871277  1
  O  O365  1  0.60120319  0.02187385  0.48649824  1
  O  O366  1  0.62061180  0.50313009  0.01179420  1
  O  O367  1  0.57440743  0.52451228  0.46913202  1
  O  O368  1  0.38284593  0.37121116  0.10825427  1
  O  O369  1  0.40415024  0.36168593  0.61795669  1
  O  O370  1  0.37520543  0.86733447  0.13855157  1
  O  O371  1  0.34809698  0.86827785  0.60677748  1
  O  O372  1  0.86371707  0.37092434  0.13661795  1
  O  O373  1  0.89766035  0.36519950  0.60841991  1
  O  O374  1  0.86285508  0.87638348  0.11786457  1
  O  O375  1  0.86714895  0.88951474  0.61878628  1
  O  O376  1  0.12805186  0.12939972  0.36947414  1
  O  O377  1  0.10169303  0.06556303  0.91763155  1
  O  O378  1  0.12440308  0.62828689  0.37125964  1
  O  O379  1  0.14659665  0.62292663  0.87073668  1
  O  O380  1  0.63049976  0.12984241  0.37736579  1
  O  O381  1  0.62422419  0.12985653  0.86277163  1
  O  O382  1  0.64585464  0.64645442  0.36637215  1
  O  O383  1  0.61897849  0.63531942  0.89619317  1
