# generated using pymatgen
data_VZnO4
_symmetry_space_group_name_H-M   'P 1'
_cell_length_a   16.87110477
_cell_length_b   16.89425023
_cell_length_c   16.83657420
_cell_angle_alpha   89.68374474
_cell_angle_beta   89.89386029
_cell_angle_gamma   89.98934895
_symmetry_Int_Tables_number   1
_chemical_formula_structural   VZnO4
_chemical_formula_sum   'V64 Zn64 O256'
_cell_volume   4798.75752226
_cell_formula_units_Z   64
loop_
 _symmetry_equiv_pos_site_id
 _symmetry_equiv_pos_as_xyz
  1  'x, y, z'
loop_
 _atom_site_type_symbol
 _atom_site_label
 _atom_site_symmetry_multiplicity
 _atom_site_fract_x
 _atom_site_fract_y
 _atom_site_fract_z
 _atom_site_occupancy
  V  V0  1  0.61505890  0.25840094  0.37349271  1
  V  V1  1  0.63077854  0.47510137  0.12559718  1
  V  V2  1  0.26405739  0.23912690  0.50302891  1
  V  V3  1  0.87444352  0.13290681  0.76091343  1
  V  V4  1  0.61779838  0.76132061  0.87596872  1
  V  V5  1  0.50585972  0.76277339  0.26151572  1
  V  V6  1  0.24053668  0.50038846  0.24110525  1
  V  V7  1  0.62704684  0.62390860  0.47193010  1
  V  V8  1  -0.01254107  0.76033017  0.71746782  1
  V  V9  1  0.37461846  0.25532583  0.13384648  1
  V  V10  1  0.49134413  0.11191079  0.12920806  1
  V  V11  1  0.74978496  0.47641250  0.25195206  1
  V  V12  1  0.48598632  0.37474958  0.87823155  1
  V  V13  1  0.49502417  0.49112823  0.49870248  1
  V  V14  1  0.53089297  0.62495587  0.63347726  1
  V  V15  1  0.26385785  0.61891855  0.38302751  1
  V  V16  1  0.23941025  -0.01282718  0.24837079  1
  V  V17  1  0.22875010  0.12156732  0.36887653  1
  V  V18  1  0.49176314  0.50286646  -0.00443324  1
  V  V19  1  0.63911492  -0.00850282  0.13027109  1
  V  V20  1  0.75637249  0.10758885  0.36717125  1
  V  V21  1  0.76931279  0.87276353  0.14364848  1
  V  V22  1  -0.00778997  0.11014362  0.61039795  1
  V  V23  1  0.36727333  0.73966526  0.61901850  1
  V  V24  1  0.74781276  0.37147620  0.62528829  1
  V  V25  1  0.63524752  0.13862091  -0.00090530  1
  V  V26  1  0.24821764  0.88837375  0.61437665  1
  V  V27  1  0.39064567  0.87832911  0.49364188  1
  V  V28  1  0.74462590  0.75701606  0.50394694  1
  V  V29  1  0.49473569  0.75636534  0.75414410  1
  V  V30  1  0.12408883  0.74910151  0.37633365  1
  V  V31  1  0.62094126  0.11967570  0.51050110  1
  V  V32  1  0.37951966  0.11238840  0.77121109  1
  V  V33  1  0.62649582  0.62280763  0.01171399  1
  V  V34  1  0.03223329  0.25758455  0.24092925  1
  V  V35  1  0.12079539  0.49659744  0.62803364  1
  V  V36  1  0.73950266  0.50810720  0.74302178  1
  V  V37  1  0.88178979  -0.01847249  0.88427163  1
  V  V38  1  0.24689090  0.00062293  0.77359869  1
  V  V39  1  0.88277955  0.49398632  0.87060332  1
  V  V40  1  0.76068767  0.75935103  0.00742044  1
  V  V41  1  0.25328304  0.51957426  0.76368240  1
  V  V42  1  0.39125619  0.00944954  0.36985322  1
  V  V43  1  0.00422998  0.75738492  0.24634629  1
  V  V44  1  0.87990513  0.61678591  0.23941591  1
  V  V45  1  0.76124369  0.24946755  0.50590714  1
  V  V46  1  0.12672076  0.87089402  0.76120733  1
  V  V47  1  -0.01530756  0.35703388  0.38483665  1
  V  V48  1  0.75546250  0.62603534  0.87186681  1
  V  V49  1  0.00452438  0.50031658  0.01441426  1
  V  V50  1  0.24877446  0.24698849  -0.01380660  1
  V  V51  1  0.74423182  -0.02060851  0.75115301  1
  V  V52  1  0.09910620  0.62141443  0.50407509  1
  V  V53  1  0.00459700  0.35178237  0.87416185  1
  V  V54  1  0.63811869  0.35982759  0.76949561  1
  V  V55  1  0.12184268  0.12096673  -0.00996361  1
  V  V56  1  0.23940992  0.38220515  0.10795575  1
  V  V57  1  0.12888436  0.36454109  0.75176086  1
  V  V58  1  0.38614672  0.62128340  0.23925727  1
  V  V59  1  0.38331457  0.75997152  0.11069851  1
  V  V60  1  -0.00491971  0.11826317  0.12282978  1
  V  V61  1  0.49618614  0.10030393  0.62634658  1
  V  V62  1  0.24417808  0.87194813  0.11422361  1
  V  V63  1  0.45434709  0.28808839  0.72784867  1
  Zn  Zn64  1  0.18987985  0.17749814  0.17300140  1
  Zn  Zn65  1  0.20000031  0.18258696  0.69285299  1
  Zn  Zn66  1  0.20387598  0.70053137  0.20085384  1
  Zn  Zn67  1  0.18569274  0.68983183  0.68245336  1
  Zn  Zn68  1  0.67752028  0.17849351  0.19497024  1
  Zn  Zn69  1  0.69046307  0.18523287  0.69265545  1
  Zn  Zn70  1  0.69617109  0.67976483  0.20035376  1
  Zn  Zn71  1  0.69464188  0.79488815  0.68471291  1
  Zn  Zn72  1  0.25347035  0.29166252  0.28492516  1
  Zn  Zn73  1  0.30776018  0.32426658  0.80476536  1
  Zn  Zn74  1  0.31836345  0.80438666  0.31460099  1
  Zn  Zn75  1  0.30776278  0.80547565  0.80292207  1
  Zn  Zn76  1  0.80608787  0.30602623  0.32279583  1
  Zn  Zn77  1  0.89814559  0.33717640  0.74048152  1
  Zn  Zn78  1  0.83236663  0.80561071  0.32731427  1
  Zn  Zn79  1  0.81842561  0.81158877  0.82254917  1
  Zn  Zn80  1  0.18039686  0.44940651  0.43263485  1
  Zn  Zn81  1  0.18126996  0.44406542  0.93225295  1
  Zn  Zn82  1  0.20233212  0.92757989  0.42551609  1
  Zn  Zn83  1  0.12767063  0.91188711  0.96528286  1
  Zn  Zn84  1  0.67697821  0.43707342  0.44321750  1
  Zn  Zn85  1  0.69340978  0.43490145  0.93810649  1
  Zn  Zn86  1  0.68390406  0.93231760  0.56523012  1
  Zn  Zn87  1  0.68740194  0.94891166  0.94422253  1
  Zn  Zn88  1  0.30821454  0.06454498  0.06255883  1
  Zn  Zn89  1  0.31731957  0.06298784  0.55486480  1
  Zn  Zn90  1  0.31093916  0.57409209  0.05743563  1
  Zn  Zn91  1  0.31041519  0.54742585  0.57212275  1
  Zn  Zn92  1  0.81238487  0.06716683  0.06663156  1
  Zn  Zn93  1  0.79526093  0.07932395  0.60163393  1
  Zn  Zn94  1  0.81341682  0.55137907  0.06002661  1
  Zn  Zn95  1  0.77765183  0.59708608  0.38265823  1
  Zn  Zn96  1  0.42521542  0.44558574  0.16320157  1
  Zn  Zn97  1  0.44234152  0.46140447  0.69464692  1
  Zn  Zn98  1  0.43365773  0.93657280  0.19232125  1
  Zn  Zn99  1  0.43140610  0.93092616  0.69341627  1
  Zn  Zn100  1  0.96502275  0.46011594  0.21870020  1
  Zn  Zn101  1  0.90931491  0.48515988  0.65710037  1
  Zn  Zn102  1  0.94848373  0.93922553  0.05310066  1
  Zn  Zn103  1  0.95810862  0.96257119  0.71609098  1
  Zn  Zn104  1  0.05791816  0.06086164  0.29343015  1
  Zn  Zn105  1  0.06090783  0.06664344  0.81507036  1
  Zn  Zn106  1  0.06912417  0.57412243  0.30997339  1
  Zn  Zn107  1  0.03547190  0.55949835  0.76739704  1
  Zn  Zn108  1  0.57230066  0.07465002  0.30911382  1
  Zn  Zn109  1  0.58016836  0.08321273  0.80416472  1
  Zn  Zn110  1  0.55776103  0.54490627  0.30853771  1
  Zn  Zn111  1  0.56586402  0.56949224  0.82000053  1
  Zn  Zn112  1  0.43575090  0.18526867  0.43919100  1
  Zn  Zn113  1  0.44162641  0.19394907  0.94603618  1
  Zn  Zn114  1  0.44083488  0.68482447  0.44006657  1
  Zn  Zn115  1  0.42965926  0.82515273  0.93082563  1
  Zn  Zn116  1  0.94177967  0.18043706  0.42824783  1
  Zn  Zn117  1  0.92667081  0.17582053  0.94016893  1
  Zn  Zn118  1  0.92862612  0.68462023  0.42285141  1
  Zn  Zn119  1  0.93153537  0.67296017  0.95740637  1
  Zn  Zn120  1  0.06319355  0.31538711  0.05462300  1
  Zn  Zn121  1  0.07320610  0.30908170  0.56065473  1
  Zn  Zn122  1  0.05286473  0.81316651  0.09693083  1
  Zn  Zn123  1  0.07763216  0.80966823  0.56182557  1
  Zn  Zn124  1  0.55614522  0.30727764  0.05903024  1
  Zn  Zn125  1  0.57180744  0.30925882  0.57061860  1
  Zn  Zn126  1  0.59425064  0.78371261  0.10732894  1
  Zn  Zn127  1  0.55866337  0.80030873  0.55589731  1
  O  O128  1  0.11130996  0.12945648  0.10996472  1
  O  O129  1  0.09828490  0.15306553  0.62959508  1
  O  O130  1  0.15104175  0.63146803  0.09944126  1
  O  O131  1  0.12628772  0.62438880  0.60684529  1
  O  O132  1  0.61965854  0.11395753  0.11908901  1
  O  O133  1  0.61069235  0.13181923  0.62350897  1
  O  O134  1  0.63421665  0.62222766  0.11319915  1
  O  O135  1  0.62707280  0.63344693  0.62447619  1
  O  O136  1  0.43738932  0.36132398  0.32605552  1
  O  O137  1  0.38842737  0.38954115  0.86235398  1
  O  O138  1  0.36976130  0.87625240  0.38965664  1
  O  O139  1  0.37848739  0.87750190  0.84906550  1
  O  O140  1  0.88488500  0.37066281  0.37464206  1
  O  O141  1  0.89461576  0.38876142  0.85704141  1
  O  O142  1  0.90356509  0.89505491  0.37139688  1
  O  O143  1  0.88117516  0.88019188  0.88671360  1
  O  O144  1  0.25513629  0.00770605  0.36716785  1
  O  O145  1  0.25178926  -0.00372767  0.86913344  1
  O  O146  1  0.24730121  0.50987226  0.35782525  1
  O  O147  1  0.24854689  0.50457566  0.86522071  1
  O  O148  1  0.75636350  0.01376053  0.39433628  1
  O  O149  1  0.76177957  -0.01287688  0.86427042  1
  O  O150  1  0.73539318  0.49035861  0.35721333  1
  O  O151  1  0.75934089  0.51136260  0.87585232  1
  O  O152  1  0.25817958  0.49271010  0.12422616  1
  O  O153  1  0.22810990  0.50436552  0.63617584  1
  O  O154  1  0.25949401  0.98627669  0.13918963  1
  O  O155  1  0.25826639  0.99015995  0.62525227  1
  O  O156  1  0.73809855  0.49351073  0.13069929  1
  O  O157  1  0.74549354  0.49295247  0.64256189  1
  O  O158  1  0.74933672  0.98674514  0.13161516  1
  O  O159  1  0.75943733  0.97940888  0.63895496  1
  O  O160  1  -0.00514438  0.35602585  0.25708565  1
  O  O161  1  0.01100457  0.36750486  0.76075826  1
  O  O162  1  0.00414865  0.85385382  0.23870380  1
  O  O163  1  0.01823477  0.87004454  0.74440177  1
  O  O164  1  0.48165713  0.37466362  0.26922152  1
  O  O165  1  0.52010198  0.37937949  0.76204920  1
  O  O166  1  0.49636645  0.86267957  0.25545258  1
  O  O167  1  0.50457467  0.85463780  0.74080393  1
  O  O168  1  0.51010676  0.13308118  0.22736570  1
  O  O169  1  0.48898889  0.11410550  0.74274091  1
  O  O170  1  0.48774143  0.62127880  0.24914703  1
  O  O171  1  0.51227714  0.63567149  0.74181993  1
  O  O172  1  1.00780160  0.14591069  0.23491140  1
  O  O173  1  0.98008025  0.11303698  0.74486069  1
  O  O174  1  0.98248236  0.58031097  0.23924681  1
  O  O175  1  1.00837783  0.66711251  0.75383542  1
  O  O176  1  0.35758891  0.24333974  0.01280266  1
  O  O177  1  0.36288653  0.25614788  0.49123087  1
  O  O178  1  0.38839654  0.75575537  0.01006588  1
  O  O179  1  0.38094992  0.75991816  0.51157204  1
  O  O180  1  0.85712500  0.26375134  -0.00660801  1
  O  O181  1  0.85914865  0.24715076  0.50106026  1
  O  O182  1  0.86012255  0.74825971  0.00055519  1
  O  O183  1  0.82896834  0.74897002  0.42982863  1
  O  O184  1  0.15878278  0.28928099  0.48014533  1
  O  O185  1  0.14137502  0.24908730  0.99767117  1
  O  O186  1  0.12307752  0.73185807  0.48866789  1
  O  O187  1  0.12070172  0.67462072  1.04777367  1
  O  O188  1  0.63160711  0.24071717  0.50068145  1
  O  O189  1  0.63327793  0.24057409  1.01241804  1
  O  O190  1  0.63284424  0.73664486  0.49190537  1
  O  O191  1  0.62998131  0.73644927  0.99960108  1
  O  O192  1  0.47771772  0.26138113  0.12961728  1
  O  O193  1  0.50535442  0.24895590  0.65027878  1
  O  O194  1  0.48561521  0.75743822  0.13512436  1
  O  O195  1  0.49220324  0.73553597  0.63282879  1
  O  O196  1  1.00914388  0.25745528  0.13880916  1
  O  O197  1  1.04185219  0.21823648  0.63017556  1
  O  O198  1  1.00884978  0.72532042  0.14857417  1
  O  O199  1  0.98902078  0.76362673  0.61506859  1
  O  O200  1  0.00169143  0.25092434  0.35693115  1
  O  O201  1  -0.00654854  0.25454480  0.87951412  1
  O  O202  1  0.01500754  0.74318381  0.36821065  1
  O  O203  1  0.03358744  0.73616409  0.90879085  1
  O  O204  1  0.51582194  0.23485215  0.37953020  1
  O  O205  1  0.48539548  0.26973391  0.85874078  1
  O  O206  1  0.50181603  0.74367524  0.36115247  1
  O  O207  1  0.50675769  0.75021339  0.86758908  1
  O  O208  1  0.25036236  0.12875053  0.48534888  1
  O  O209  1  0.23746908  0.13683776  1.00495115  1
  O  O210  1  0.25963201  0.61145184  0.48318311  1
  O  O211  1  0.25198386  0.63915962  0.97378114  1
  O  O212  1  0.74093964  0.13922392  0.51655704  1
  O  O213  1  0.73672580  0.12510358  1.00518172  1
  O  O214  1  0.73384172  0.63390586  0.48154651  1
  O  O215  1  0.74460627  0.63039825  0.99437249  1
  O  O216  1  0.24575738  0.37142490  0.00283200  1
  O  O217  1  0.22174570  0.34972313  0.48466437  1
  O  O218  1  0.23311333  0.88025496  0.01524676  1
  O  O219  1  0.25787748  0.87535331  0.51072449  1
  O  O220  1  0.77155478  0.36256587  -0.00416528  1
  O  O221  1  0.74237533  0.36945657  0.51859399  1
  O  O222  1  0.74813772  0.86006274  0.00231756  1
  O  O223  1  0.73267809  0.85628283  0.48954873  1
  O  O224  1  0.14328837  0.52005667  0.23444219  1
  O  O225  1  0.13133679  0.49800492  0.74442508  1
  O  O226  1  0.13861738  0.98955901  0.25434943  1
  O  O227  1  0.13764354  0.99193668  0.75665599  1
  O  O228  1  0.63040269  0.49869836  0.23186866  1
  O  O229  1  0.63781603  0.49393899  0.76455636  1
  O  O230  1  0.61702848  1.00192318  0.22944923  1
  O  O231  1  0.64560048  1.00477128  0.75745362  1
  O  O232  1  0.36592243  -0.00509278  0.26706138  1
  O  O233  1  0.36512923  0.00628312  0.75209486  1
  O  O234  1  0.36983936  0.51541036  0.23658358  1
  O  O235  1  0.35264868  0.51234112  0.73937589  1
  O  O236  1  0.92329978  -0.04270667  0.32791286  1
  O  O237  1  0.86265310  -0.00252772  0.76356362  1
  O  O238  1  0.85323335  0.49694692  0.24022610  1
  O  O239  1  0.85556215  0.50883994  0.76074546  1
  O  O240  1  0.09200045  0.40900988  0.36374711  1
  O  O241  1  0.11240027  0.37696223  0.86229417  1
  O  O242  1  0.13784808  0.84726887  0.37661741  1
  O  O243  1  0.13651061  0.86592484  0.86022226  1
  O  O244  1  0.61872506  0.35882234  0.38717971  1
  O  O245  1  0.62346370  0.37282319  0.87275644  1
  O  O246  1  0.60607841  0.90018899  0.38670075  1
  O  O247  1  0.62399846  0.85827650  0.89342595  1
  O  O248  1  0.38417435  0.13225645  0.12118530  1
  O  O249  1  0.39351986  0.11781707  0.62493452  1
  O  O250  1  0.36963272  0.64256742  0.13256324  1
  O  O251  1  0.36596339  0.64036444  0.61670372  1
  O  O252  1  0.89367599  0.13551068  0.10995751  1
  O  O253  1  0.88968140  0.13135415  0.63435997  1
  O  O254  1  0.86345473  0.61917564  0.13872308  1
  O  O255  1  0.87075240  0.54352424  0.54822379  1
  O  O256  1  0.25204871  0.26409826  0.11569082  1
  O  O257  1  0.25046381  0.23283171  0.60311275  1
  O  O258  1  0.26838040  0.76114256  0.12966130  1
  O  O259  1  0.26501394  0.76441437  0.63426355  1
  O  O260  1  0.75695725  0.24794659  0.12726958  1
  O  O261  1  0.75025472  0.26254080  0.62230978  1
  O  O262  1  0.74345388  0.76054609  0.11689358  1
  O  O263  1  0.76534852  0.74761505  0.60202637  1
  O  O264  1  0.25061432  0.22547446  0.37560143  1
  O  O265  1  0.26105288  0.25756384  0.88699154  1
  O  O266  1  0.23828783  0.72601718  0.36292119  1
  O  O267  1  0.25340934  0.73493560  0.88384191  1
  O  O268  1  0.73957429  0.24717996  0.39718597  1
  O  O269  1  0.79543076  0.29647194  0.95855068  1
  O  O270  1  0.64700553  0.86050287  0.34292631  1
  O  O271  1  0.74164936  0.74235164  0.88626359  1
  O  O272  1  0.01023528  0.14087867  0.01025281  1
  O  O273  1  -0.01034202  0.11849803  0.50928545  1
  O  O274  1  -0.01114526  0.60160752  0.01895350  1
  O  O275  1  0.00043972  0.62559904  0.49805374  1
  O  O276  1  0.51098477  0.14137831  0.02297324  1
  O  O277  1  0.51035077  0.12630322  0.51598481  1
  O  O278  1  0.52196440  0.60779544  -0.00398833  1
  O  O279  1  0.51430188  0.62634630  0.51206403  1
  O  O280  1  0.51565141  0.39533675  0.52348841  1
  O  O281  1  0.50123497  0.38344267  0.98576652  1
  O  O282  1  0.48988584  0.87323158  0.49877681  1
  O  O283  1  0.48590496  0.93101136  0.96306248  1
  O  O284  1  0.99754253  0.34865415  0.48574756  1
  O  O285  1  1.00235670  0.38194335  0.97595357  1
  O  O286  1  1.04386176  0.91597893  0.49279576  1
  O  O287  1  1.02827018  0.87291154  1.00843102  1
  O  O288  1  0.49993337  0.49887716  0.39611731  1
  O  O289  1  0.50909420  0.49256322  0.88737862  1
  O  O290  1  0.49103615  1.01103339  0.36572759  1
  O  O291  1  0.43843549  0.99270051  0.96981253  1
  O  O292  1  1.02680139  0.46491746  0.36598244  1
  O  O293  1  0.98355504  0.51807957  0.86471553  1
  O  O294  1  0.98006825  1.00057488  0.36259117  1
  O  O295  1  0.98284500  0.99575607  0.86543791  1
  O  O296  1  -0.00487622  0.01795056  0.12959414  1
  O  O297  1  0.00590384  0.00956225  0.62409820  1
  O  O298  1  -0.01114279  0.46627408  0.10759069  1
  O  O299  1  0.01596462  0.51939657  0.65121653  1
  O  O300  1  0.49632534  0.00808956  0.12458531  1
  O  O301  1  0.50302884  0.00165882  0.62930199  1
  O  O302  1  0.51644460  0.48845121  0.10697520  1
  O  O303  1  0.50767776  0.52218893  0.62524645  1
  O  O304  1  0.24904277  0.39550001  0.24122067  1
  O  O305  1  0.23193922  0.39316409  0.75411202  1
  O  O306  1  0.25620862  0.88455897  0.25688186  1
  O  O307  1  0.24399912  0.88570322  0.74071246  1
  O  O308  1  0.74841926  0.37798136  0.25024301  1
  O  O309  1  0.74286971  0.38810694  0.75589017  1
  O  O310  1  0.77105239  0.85409487  0.24323077  1
  O  O311  1  0.74659992  0.87310148  0.75443991  1
  O  O312  1  0.24149199  0.10995153  0.25873729  1
  O  O313  1  0.26324484  0.10951286  0.75254449  1
  O  O314  1  0.26427673  0.61600725  0.25366975  1
  O  O315  1  0.23427840  0.62003899  0.75566549  1
  O  O316  1  0.73672577  0.10936863  0.26679722  1
  O  O317  1  0.76749568  0.10757912  0.72932548  1
  O  O318  1  0.76611396  0.62085387  0.26405480  1
  O  O319  1  0.74031660  0.61791251  0.76796115  1
  O  O320  1  0.36931947  0.10936943  0.38102955  1
  O  O321  1  0.39112434  0.11611822  0.86959662  1
  O  O322  1  0.36777086  0.62855905  0.36370547  1
  O  O323  1  0.28908622  0.66829440  0.90965157  1
  O  O324  1  0.85537028  0.13652061  0.37299663  1
  O  O325  1  0.86906268  0.11175506  0.86551631  1
  O  O326  1  0.88830277  0.59990159  0.35792231  1
  O  O327  1  0.86001543  0.62594829  0.87748956  1
  O  O328  1  0.14065984  0.37787444  0.12061151  1
  O  O329  1  0.11264324  0.38864012  0.63663234  1
  O  O330  1  0.14923290  0.85544411  0.14400052  1
  O  O331  1  0.14454207  0.87712666  0.62531110  1
  O  O332  1  0.62820974  0.37671318  0.12157202  1
  O  O333  1  0.64165776  0.37133436  0.64905087  1
  O  O334  1  0.64342402  0.88519012  0.12368588  1
  O  O335  1  0.62323342  0.85892914  0.62489082  1
  O  O336  1  0.13439681  0.25753978  0.24773448  1
  O  O337  1  0.14353139  0.26656359  0.74760278  1
  O  O338  1  0.11328288  0.72166148  0.26595136  1
  O  O339  1  0.12176781  0.76928950  0.73596643  1
  O  O340  1  0.63620665  0.24877707  0.27369540  1
  O  O341  1  0.63937322  0.25909715  0.76415449  1
  O  O342  1  0.60552055  0.74450669  0.22755702  1
  O  O343  1  0.62131052  0.75062084  0.77088922  1
  O  O344  1  0.35048943  0.24726063  0.23234218  1
  O  O345  1  0.37021991  0.22506842  0.75528176  1
  O  O346  1  0.38774870  0.73918504  0.24742874  1
  O  O347  1  0.38850407  0.74633853  0.73698881  1
  O  O348  1  0.84150772  0.23804750  0.23025003  1
  O  O349  1  0.86518614  0.23261423  0.76337213  1
  O  O350  1  0.89742296  0.72619049  0.26215193  1
  O  O351  1  0.89080720  0.77255098  0.74394575  1
  O  O352  1  0.39442527  0.49974103  0.51616943  1
  O  O353  1  0.39342440  0.51280725  1.00374203  1
  O  O354  1  0.37631651  0.98702334  0.48632822  1
  O  O355  1  0.36620422  0.97690697  0.99863377  1
  O  O356  1  0.86411621  0.49731107  0.49117736  1
  O  O357  1  0.88003360  0.49645964  0.97857795  1
  O  O358  1  0.88086968  0.96271638  0.51141715  1
  O  O359  1  0.87372103  1.00281999  0.98955160  1
  O  O360  1  0.12645033  0.02105684  -0.00485128  1
  O  O361  1  0.09423230  -0.02971768  0.48193134  1
  O  O362  1  0.10451874  0.49970158  -0.00565501  1
  O  O363  1  0.12003914  0.50795284  0.51548824  1
  O  O364  1  0.62798231  0.00957302  0.02054710  1
  O  O365  1  0.63511741  0.02117680  0.51038007  1
  O  O366  1  0.63380745  0.50515863  0.01106075  1
  O  O367  1  0.61952437  0.52026041  0.49975728  1
  O  O368  1  0.35892352  0.36476282  0.12216314  1
  O  O369  1  0.39231139  0.35598569  0.68665748  1
  O  O370  1  0.36690938  0.86585845  0.12686488  1
  O  O371  1  0.36959680  0.87013747  0.61375510  1
  O  O372  1  0.82125395  0.27390371  0.16052676  1
  O  O373  1  0.85607971  0.38292205  0.64327962  1
  O  O374  1  0.86513846  0.88060007  0.11772091  1
  O  O375  1  0.89081823  0.89802521  0.54264799  1
  O  O376  1  0.12947699  0.11237080  0.37571860  1
  O  O377  1  0.11441261  0.13454709  0.88794168  1
  O  O378  1  0.13226678  0.61943093  0.39392681  1
  O  O379  1  0.09819866  0.70190745  0.89886089  1
  O  O380  1  0.63598885  0.13049109  0.39469942  1
  O  O381  1  0.61000329  0.12307949  0.90009264  1
  O  O382  1  0.61754614  0.62314369  0.37248416  1
  O  O383  1  0.63697890  0.63247599  0.88990511  1
