# generated using pymatgen
data_VZnO4
_symmetry_space_group_name_H-M   'P 1'
_cell_length_a   17.00534435
_cell_length_b   17.05779675
_cell_length_c   16.93494007
_cell_angle_alpha   89.58132085
_cell_angle_beta   90.45390337
_cell_angle_gamma   89.80461158
_symmetry_Int_Tables_number   1
_chemical_formula_structural   VZnO4
_chemical_formula_sum   'V64 Zn64 O256'
_cell_volume   4912.06601036
_cell_formula_units_Z   64
loop_
 _symmetry_equiv_pos_site_id
 _symmetry_equiv_pos_as_xyz
  1  'x, y, z'
loop_
 _atom_site_type_symbol
 _atom_site_label
 _atom_site_symmetry_multiplicity
 _atom_site_fract_x
 _atom_site_fract_y
 _atom_site_fract_z
 _atom_site_occupancy
  V  V0  1  -0.04544466  0.05499320  0.05841028  1
  V  V1  1  0.36578084  0.75397369  0.64121871  1
  V  V2  1  0.24148149  0.37377304  0.62125405  1
  V  V3  1  0.50784358  -0.00440202  0.01324391  1
  V  V4  1  0.25332554  0.73086555  0.49534299  1
  V  V5  1  0.86834299  0.73637700  0.11846722  1
  V  V6  1  0.63960870  0.63456232  0.00157510  1
  V  V7  1  0.13428768  0.86532361  0.26401614  1
  V  V8  1  0.51129396  0.64454572  0.63526530  1
  V  V9  1  0.91139993  0.37720111  0.49556551  1
  V  V10  1  0.00953206  0.74914980  0.25063257  1
  V  V11  1  0.86887412  0.61878890  0.25651477  1
  V  V12  1  0.35850589  0.35959899  0.00522769  1
  V  V13  1  0.51125477  0.87473498  0.86011720  1
  V  V14  1  0.48696013  0.37601022  0.37634096  1
  V  V15  1  0.60672307  0.14843496  0.49142309  1
  V  V16  1  0.60841749  0.35914879  0.24181592  1
  V  V17  1  0.22162442  0.72386707  -0.00898718  1
  V  V18  1  0.12922701  -0.02098539  0.10983590  1
  V  V19  1  0.25899653  -0.01100114  0.23962521  1
  V  V20  1  0.35668120  0.39194461  0.49563375  1
  V  V21  1  0.25394620  0.49364299  0.23549268  1
  V  V22  1  0.73660863  0.88136237  0.11796519  1
  V  V23  1  0.87916943  0.13456286  0.72408507  1
  V  V24  1  0.62618345  0.12578159  0.00712448  1
  V  V25  1  0.52220632  0.35709633  0.88501064  1
  V  V26  1  0.60918943  0.00285664  0.62620424  1
  V  V27  1  0.37337332  0.13607820  0.24394936  1
  V  V28  1  0.77657330  0.14155587  0.38666062  1
  V  V29  1  0.49038803  -0.01025696  0.49632692  1
  V  V30  1  0.37176123  0.64727926  0.26571587  1
  V  V31  1  0.51440917  0.75086880  0.27811962  1
  V  V32  1  0.13966862  0.38017260  0.76250837  1
  V  V33  1  0.73915088  -0.00483792  0.74421598  1
  V  V34  1  0.12536888  0.53059050  0.61816877  1
  V  V35  1  0.60161135  0.47804839  0.58315413  1
  V  V36  1  0.12360193  0.23303064  0.87034249  1
  V  V37  1  0.88524671  0.75423157  0.62286798  1
  V  V38  1  0.75673718  0.38562427  0.13241393  1
  V  V39  1  0.87852607  0.86661483  0.00505785  1
  V  V40  1  0.74381741  0.14103390  0.86606840  1
  V  V41  1  0.35878316  0.61887030  0.76686928  1
  V  V42  1  0.13823697  0.12877793  0.01915958  1
  V  V43  1  0.74125834  0.49766022  0.73763444  1
  V  V44  1  0.70065266  0.62728071  0.40773761  1
  V  V45  1  0.37130570  0.87347011  0.01471404  1
  V  V46  1  0.88513502  0.36579336  -0.00440252  1
  V  V47  1  0.01953243  0.61980683  0.10982747  1
  V  V48  1  0.26908613  0.89844686  0.60430785  1
  V  V49  1  0.74779780  0.25162773  0.01174741  1
  V  V50  1  0.88695446  0.50971305  0.86358385  1
  V  V51  1  0.62604107  0.89291485  0.26962284  1
  V  V52  1  0.49656656  0.63311560  0.12028502  1
  V  V53  1  0.87606088  0.00757906  0.87485830  1
  V  V54  1  -0.00219667  0.36677003  0.86605797  1
  V  V55  1  0.00142330  0.86821239  0.86936682  1
  V  V56  1  -0.00453709  -0.03574250  0.49641839  1
  V  V57  1  0.25951413  0.12538037  0.87490278  1
  V  V58  1  0.37762729  0.00678568  0.87164351  1
  V  V59  1  0.37655351  0.24632908  0.62477146  1
  V  V60  1  0.50353772  0.13981114  0.13045539  1
  V  V61  1  0.74357168  0.27826628  0.50262976  1
  V  V62  1  0.15053074  0.88903501  0.75424866  1
  V  V63  1  0.38183368  -0.00906122  0.36884909  1
  Zn  Zn64  1  0.18624500  0.18277768  0.22577714  1
  Zn  Zn65  1  0.23663539  0.21517838  0.71849344  1
  Zn  Zn66  1  0.19732452  0.70399193  0.17044061  1
  Zn  Zn67  1  0.15384464  0.68132453  0.75262032  1
  Zn  Zn68  1  0.69918060  0.17953872  0.19975119  1
  Zn  Zn69  1  0.68623036  0.18399348  0.67011096  1
  Zn  Zn70  1  0.68506710  0.68854177  0.18810822  1
  Zn  Zn71  1  0.71176441  0.63459597  0.61921130  1
  Zn  Zn72  1  0.32042282  0.31868941  0.30850418  1
  Zn  Zn73  1  0.35598526  0.34058436  0.79486392  1
  Zn  Zn74  1  0.31588232  0.80898349  0.31477280  1
  Zn  Zn75  1  0.32338882  0.81240413  0.83069774  1
  Zn  Zn76  1  0.82567753  0.31898006  0.32506835  1
  Zn  Zn77  1  0.82920680  0.31613065  0.66709241  1
  Zn  Zn78  1  0.77850215  0.79943150  0.31635057  1
  Zn  Zn79  1  0.82098819  0.82402633  0.81062122  1
  Zn  Zn80  1  0.19351068  0.55104539  0.43884045  1
  Zn  Zn81  1  0.19522609  0.40418350  0.94948187  1
  Zn  Zn82  1  0.19749532  0.96993239  0.43862868  1
  Zn  Zn83  1  0.19087784  0.93600294  0.93175068  1
  Zn  Zn84  1  0.66676611  0.44939842  0.39423932  1
  Zn  Zn85  1  0.70099328  0.43490956  0.91566224  1
  Zn  Zn86  1  0.67820627  0.98676460  0.41938315  1
  Zn  Zn87  1  0.69100724  0.94074554  0.93598221  1
  Zn  Zn88  1  0.31786749  0.05766657  0.06485163  1
  Zn  Zn89  1  0.29864272  0.07678484  0.54784520  1
  Zn  Zn90  1  0.31589724  0.56756040  0.07353978  1
  Zn  Zn91  1  0.30422078  0.56597258  0.58911256  1
  Zn  Zn92  1  0.79340554  0.05824084  0.06570812  1
  Zn  Zn93  1  0.78043426  0.06875405  0.55239725  1
  Zn  Zn94  1  0.81612011  0.55993704  0.03804052  1
  Zn  Zn95  1  0.77410135  0.48780104  0.51657159  1
  Zn  Zn96  1  0.44094867  0.46353341  0.20550231  1
  Zn  Zn97  1  0.42315781  0.46206843  0.66261405  1
  Zn  Zn98  1  0.45140108  0.93233006  0.19156257  1
  Zn  Zn99  1  0.42696936  0.95367281  0.68639332  1
  Zn  Zn100  1  0.90897252  0.46513368  0.15417312  1
  Zn  Zn101  1  0.91828630  0.46227764  0.65585035  1
  Zn  Zn102  1  0.90743159  0.89611749  0.22775263  1
  Zn  Zn103  1  0.92283883  0.94287014  0.69233393  1
  Zn  Zn104  1  0.04862618  0.01769096  0.29805433  1
  Zn  Zn105  1  0.05964764  0.06332115  0.80663591  1
  Zn  Zn106  1  0.03012805  0.52931871  0.26243479  1
  Zn  Zn107  1  0.03028332  0.54121982  0.77178838  1
  Zn  Zn108  1  0.56102251  0.07351644  0.31444931  1
  Zn  Zn109  1  0.56691450  0.05897917  0.82432016  1
  Zn  Zn110  1  0.56529536  0.54432586  0.27757750  1
  Zn  Zn111  1  0.54864620  0.54651854  0.79244851  1
  Zn  Zn112  1  0.41171602  0.20485126  0.43039956  1
  Zn  Zn113  1  0.43695190  0.19599434  0.94833543  1
  Zn  Zn114  1  0.43855358  0.68911754  0.45167874  1
  Zn  Zn115  1  0.44434481  0.69255761  0.93608553  1
  Zn  Zn116  1  0.91656585  0.17606358  0.52098469  1
  Zn  Zn117  1  0.93190239  0.19035694  0.92735999  1
  Zn  Zn118  1  0.92802427  0.70379405  0.42593575  1
  Zn  Zn119  1  1.04094156  0.66864382  0.91400358  1
  Zn  Zn120  1  0.04658206  0.28531585  0.06827316  1
  Zn  Zn121  1  0.03839608  0.32624972  0.59871819  1
  Zn  Zn122  1  0.05586365  0.80130112  0.04774151  1
  Zn  Zn123  1  0.10361520  0.80026055  0.60425553  1
  Zn  Zn124  1  0.56776992  0.32250051  0.06486191  1
  Zn  Zn125  1  0.54152151  0.31076395  0.55103009  1
  Zn  Zn126  1  0.55936913  0.79875975  0.05046608  1
  Zn  Zn127  1  0.54283735  0.82659979  0.58482881  1
  O  O128  1  0.13325211  0.12240698  0.11978491  1
  O  O129  1  0.13736201  0.15874645  0.60714707  1
  O  O130  1  0.11555858  0.63524569  0.12747991  1
  O  O131  1  0.13891701  0.62519409  0.64395885  1
  O  O132  1  0.62093860  0.12689356  0.11944933  1
  O  O133  1  0.62277330  0.11999417  0.59826181  1
  O  O134  1  0.62737769  0.63006618  0.10713205  1
  O  O135  1  0.60762330  0.66313801  0.65216545  1
  O  O136  1  0.33410898  0.40386756  0.39925418  1
  O  O137  1  0.35860611  0.37033428  0.90289375  1
  O  O138  1  0.37967800  0.89347411  0.37184460  1
  O  O139  1  0.38954525  0.89721626  0.88611690  1
  O  O140  1  0.87984388  0.38547780  0.39912441  1
  O  O141  1  0.89492976  0.36007206  0.87647088  1
  O  O142  1  0.86144418  0.86826985  0.32512143  1
  O  O143  1  0.87505244  0.88654453  0.88867004  1
  O  O144  1  0.26679248  -0.00288779  0.34863238  1
  O  O145  1  0.26848886  0.01365615  0.88972147  1
  O  O146  1  0.19992496  0.54665838  0.32496456  1
  O  O147  1  0.25990065  0.49348705  0.88673815  1
  O  O148  1  0.77486893  0.03814034  0.43822812  1
  O  O149  1  0.75540496  0.01187622  0.86402992  1
  O  O150  1  0.75053387  0.53284766  0.41252218  1
  O  O151  1  0.77818361  0.48466454  0.84415313  1
  O  O152  1  0.23389820  0.52012941  0.14107209  1
  O  O153  1  0.22617110  0.48849376  0.63749429  1
  O  O154  1  0.23830641  0.99382759  0.12788256  1
  O  O155  1  0.29259773  0.99321159  0.62782760  1
  O  O156  1  0.77227746  0.48405956  0.11961063  1
  O  O157  1  0.69999454  0.51361946  0.60318014  1
  O  O158  1  0.74915311  0.98046583  0.13068307  1
  O  O159  1  0.73124307  1.00749033  0.63565604  1
  O  O160  1  -0.03943389  0.28957044  0.21497189  1
  O  O161  1  0.02187104  0.36422991  0.76740431  1
  O  O162  1  0.01938015  0.86103727  0.23614418  1
  O  O163  1  -0.01829263  0.88672254  0.76995447  1
  O  O164  1  0.51294515  0.36565045  0.21205463  1
  O  O165  1  0.47092822  0.39313523  0.77786614  1
  O  O166  1  0.52183746  0.86488374  0.25129611  1
  O  O167  1  0.49723062  0.89634383  0.76216235  1
  O  O168  1  0.49500242  0.12656147  0.23717991  1
  O  O169  1  0.53027672  0.15921244  0.75226143  1
  O  O170  1  0.49097148  0.64708686  0.25543966  1
  O  O171  1  0.48235332  0.62370044  0.74094556  1
  O  O172  1  0.94283471  0.06319868  0.27032208  1
  O  O173  1  0.97654502  0.11881299  0.74438763  1
  O  O174  1  0.99488083  0.64044496  0.23454468  1
  O  O175  1  1.07165283  0.63370668  0.81393530  1
  O  O176  1  0.38209110  0.26295582  0.02184650  1
  O  O177  1  0.36314726  0.27837550  0.50964596  1
  O  O178  1  0.38937975  0.77609092  -0.00305794  1
  O  O179  1  0.36263045  0.74424796  0.52009843  1
  O  O180  1  0.85991217  0.25791558  -0.00980058  1
  O  O181  1  0.85356861  0.27942726  0.51314728  1
  O  O182  1  0.87626050  0.76507581  0.00741142  1
  O  O183  1  0.88745978  0.75611291  0.51798065  1
  O  O184  1  0.17339688  0.24095916  0.44966511  1
  O  O185  1  0.12005468  0.23081137  0.99953283  1
  O  O186  1  0.15531476  0.74980774  0.51958742  1
  O  O187  1  0.11557251  0.73055856  0.98142183  1
  O  O188  1  0.62246716  0.25228708  0.49510606  1
  O  O189  1  0.64046141  0.24057738  1.00497440  1
  O  O190  1  0.63332814  0.78595649  0.50577812  1
  O  O191  1  0.61813845  0.73052559  0.97906034  1
  O  O192  1  0.50862934  0.23639544  0.11885090  1
  O  O193  1  0.47576238  0.25979455  0.62569550  1
  O  O194  1  0.51362449  0.73571617  0.13424825  1
  O  O195  1  0.47967350  0.75243678  0.63420440  1
  O  O196  1  0.98917807  0.23760701  0.15925025  1
  O  O197  1  1.06416741  0.14941886  0.60419824  1
  O  O198  1  0.99080394  0.73847585  0.12114995  1
  O  O199  1  0.98853481  0.77347345  0.62392699  1
  O  O200  1  0.02019406  0.21378861  0.56309341  1
  O  O201  1  0.01568962  0.25041286  0.88030289  1
  O  O202  1  -0.00265324  0.75056638  0.34891728  1
  O  O203  1  -0.01062777  0.77107073  0.87620953  1
  O  O204  1  0.43016686  0.29326329  0.34983137  1
  O  O205  1  0.49389585  0.25999854  0.87384280  1
  O  O206  1  0.50854064  0.75114735  0.37779675  1
  O  O207  1  0.49586664  0.77715958  0.87205351  1
  O  O208  1  0.21544977  0.07535295  0.47646287  1
  O  O209  1  0.24005003  0.12098754  1.00195892  1
  O  O210  1  0.25746394  0.62409453  0.49656991  1
  O  O211  1  0.26083066  0.63050001  0.99817102  1
  O  O212  1  0.73448151  0.16335347  0.49778027  1
  O  O213  1  0.74592266  0.13358841  0.99431420  1
  O  O214  1  0.69136529  0.64615178  0.50608652  1
  O  O215  1  0.73972673  0.62809195  0.99287272  1
  O  O216  1  0.25934108  0.36713819  0.02950530  1
  O  O217  1  0.24364187  0.38764540  0.52053976  1
  O  O218  1  0.27358826  0.89327397  -0.00226042  1
  O  O219  1  0.25715636  0.89556140  0.50452096  1
  O  O220  1  0.75146832  0.36135269  0.00483966  1
  O  O221  1  0.72683277  0.37706579  0.48035927  1
  O  O222  1  0.76814942  0.88608700  0.00595463  1
  O  O223  1  0.69565879  0.82326381  0.50274551  1
  O  O224  1  0.14804438  0.49118015  0.28259718  1
  O  O225  1  0.13483643  0.47668427  0.77315068  1
  O  O226  1  0.13336332  0.97906835  0.23282408  1
  O  O227  1  0.11494732  0.98519463  0.75053825  1
  O  O228  1  0.64689927  0.45122978  0.27857632  1
  O  O229  1  0.64149442  0.49059137  0.75452570  1
  O  O230  1  0.61695561  0.99045910  0.25158206  1
  O  O231  1  0.62782238  1.01844797  0.73647491  1
  O  O232  1  0.37805684  -0.00055911  0.25304650  1
  O  O233  1  0.38435002  0.01542887  0.77368657  1
  O  O234  1  0.35281137  0.53361093  0.24891499  1
  O  O235  1  0.36039980  0.52043151  0.73774311  1
  O  O236  1  0.88699983  0.01588142  0.25198166  1
  O  O237  1  0.85440815  0.01457107  0.74986127  1
  O  O238  1  0.89863992  0.51809801  0.25307276  1
  O  O239  1  0.91422612  0.51466990  0.76212278  1
  O  O240  1  0.16625575  0.27113562  0.38290476  1
  O  O241  1  0.12412903  0.35295541  0.87743282  1
  O  O242  1  0.13739966  0.88142725  0.36009030  1
  O  O243  1  0.10826130  0.88458174  0.86955991  1
  O  O244  1  0.58291339  0.34778191  0.36240618  1
  O  O245  1  0.62168878  0.36409302  0.87582030  1
  O  O246  1  0.64769853  0.89159717  0.36850946  1
  O  O247  1  0.61094057  0.89034142  0.87639455  1
  O  O248  1  0.39615795  0.11620834  0.12973163  1
  O  O249  1  0.36067015  0.15020655  0.60209978  1
  O  O250  1  0.39285988  0.62927925  0.13634054  1
  O  O251  1  0.37014101  0.64309427  0.64332005  1
  O  O252  1  0.88983668  0.10526179  0.11360193  1
  O  O253  1  0.86450510  0.12242029  0.61912222  1
  O  O254  1  0.87914934  0.63128300  0.11370819  1
  O  O255  1  0.91138625  0.65612381  0.63220176  1
  O  O256  1  0.18864726  0.28512028  0.15809585  1
  O  O257  1  0.24621120  0.26941357  0.61850980  1
  O  O258  1  0.23798116  0.76396142  0.08334313  1
  O  O259  1  0.26468621  0.77338996  0.61662672  1
  O  O260  1  0.75660230  0.24816909  0.11324487  1
  O  O261  1  0.73562282  0.26874203  0.61242567  1
  O  O262  1  0.76661509  0.75822408  0.12462394  1
  O  O263  1  0.78502966  0.73082097  0.61499305  1
  O  O264  1  0.22860899  0.24473221  0.32517503  1
  O  O265  1  0.23273305  0.22889774  0.88813232  1
  O  O266  1  0.25803289  0.75815618  0.39876484  1
  O  O267  1  0.25349653  0.76423375  0.90315211  1
  O  O268  1  0.75446677  0.25364972  0.39025263  1
  O  O269  1  0.74772864  0.23725866  0.88231173  1
  O  O270  1  0.73902753  0.71505111  0.37110233  1
  O  O271  1  0.75312455  0.73368131  0.85105474  1
  O  O272  1  0.00566757  0.12388274  0.00248727  1
  O  O273  1  -0.03866710  0.06119725  0.49844507  1
  O  O274  1  0.00469017  0.61635582  0.01112568  1
  O  O275  1  0.00225148  0.62434540  0.47285166  1
  O  O276  1  0.50937082  0.11967324  0.01158681  1
  O  O277  1  0.50600233  0.14921560  0.47939155  1
  O  O278  1  0.50027483  0.62538483  0.01726943  1
  O  O279  1  0.49827186  0.63643274  0.53346965  1
  O  O280  1  0.47205891  0.37893691  0.48150272  1
  O  O281  1  0.50362110  0.37403488  0.98597943  1
  O  O282  1  0.49113289  0.89240042  0.50202486  1
  O  O283  1  0.50167797  0.89093950  0.99658559  1
  O  O284  1  1.00966569  0.36329116  0.48868184  1
  O  O285  1  0.98910677  0.35768078  0.99835170  1
  O  O286  1  1.03832257  0.87061715  0.51543521  1
  O  O287  1  0.98472022  0.87989681  0.99019151  1
  O  O288  1  0.47558292  0.46491049  0.32762931  1
  O  O289  1  0.48119903  0.45383691  0.83743658  1
  O  O290  1  0.49266932  1.00478614  0.38367231  1
  O  O291  1  0.49232177  1.00730442  0.88983382  1
  O  O292  1  1.01371707  0.52752768  0.38224839  1
  O  O293  1  0.99602582  0.47079218  0.88311794  1
  O  O294  1  1.00132148  0.96649539  0.39209481  1
  O  O295  1  0.97811914  1.00367987  0.87100232  1
  O  O296  1  0.01980053  0.00420169  0.12270636  1
  O  O297  1  -0.01420500  -0.02748050  0.60113769  1
  O  O298  1  0.01120357  0.51594354  0.14310620  1
  O  O299  1  0.03154376  0.50604485  0.65609462  1
  O  O300  1  0.50897394  0.00490516  0.11460556  1
  O  O301  1  0.49853687  0.01119545  0.61085293  1
  O  O302  1  0.52302546  0.53659673  0.16681518  1
  O  O303  1  0.51772139  0.52133122  0.63340859  1
  O  O304  1  0.27791712  0.39730053  0.23763879  1
  O  O305  1  0.24203003  0.36358404  0.75380918  1
  O  O306  1  0.24143559  0.87266314  0.24491001  1
  O  O307  1  0.24707085  0.88715728  0.77931197  1
  O  O308  1  0.78021563  0.36342874  0.22787793  1
  O  O309  1  0.79719591  0.42425188  0.69012992  1
  O  O310  1  0.72340126  0.86342456  0.22930315  1
  O  O311  1  0.74703545  0.89710470  0.75679734  1
  O  O312  1  0.26885499  0.10403491  0.22961009  1
  O  O313  1  0.24747471  0.11817390  0.77612884  1
  O  O314  1  0.27477695  0.67133598  0.24552291  1
  O  O315  1  0.25939130  0.63989934  0.76786964  1
  O  O316  1  0.76060509  0.13257025  0.28545823  1
  O  O317  1  0.74815991  0.12612995  0.75595331  1
  O  O318  1  0.77095525  0.62355325  0.23368898  1
  O  O319  1  0.76615081  0.59164821  0.71600035  1
  O  O320  1  0.38165671  0.12313281  0.34958901  1
  O  O321  1  0.36611909  0.12207419  0.89215890  1
  O  O322  1  0.37881006  0.63764224  0.36533913  1
  O  O323  1  0.39005404  0.62556751  0.86402070  1
  O  O324  1  0.87427031  0.15600189  0.40825472  1
  O  O325  1  0.85911565  0.12202366  0.86958982  1
  O  O326  1  0.87545132  0.63678172  0.35417530  1
  O  O327  1  0.89019335  0.60089854  0.89131343  1
  O  O328  1  0.12712972  0.32973096  0.15395414  1
  O  O329  1  0.13017751  0.36834929  0.65083066  1
  O  O330  1  0.12141788  0.88116088  0.10451498  1
  O  O331  1  0.16751766  0.89514713  0.63915787  1
  O  O332  1  0.64895626  0.37466507  0.13240358  1
  O  O333  1  0.60007741  0.38371130  0.61402400  1
  O  O334  1  0.64025690  0.86802573  0.09764392  1
  O  O335  1  0.61403732  0.90377925  0.62596914  1
  O  O336  1  0.08081740  0.16828614  0.28298383  1
  O  O337  1  0.13019800  0.24379079  0.76868774  1
  O  O338  1  0.12083367  0.75789520  0.24514904  1
  O  O339  1  0.11746723  0.79016232  0.72743491  1
  O  O340  1  0.63965502  0.26356926  0.24647864  1
  O  O341  1  0.58341597  0.21038373  0.74243923  1
  O  O342  1  0.61764984  0.75244851  0.25686840  1
  O  O343  1  0.69138024  0.72238196  0.81197183  1
  O  O344  1  0.35443281  0.23092513  0.23211284  1
  O  O345  1  0.35426208  0.24702496  0.73032220  1
  O  O346  1  0.40064334  0.75732541  0.25741624  1
  O  O347  1  0.36587454  0.74728052  0.74683535  1
  O  O348  1  0.91936383  0.25362257  0.27032727  1
  O  O349  1  0.86490514  0.23184191  0.73735647  1
  O  O350  1  0.88798338  0.74019612  0.22738365  1
  O  O351  1  0.87626353  0.75984479  0.72766876  1
  O  O352  1  0.37085618  0.48590085  0.53557178  1
  O  O353  1  0.38528455  0.47421383  1.03829827  1
  O  O354  1  0.38508780  1.01737673  0.47878270  1
  O  O355  1  0.39477891  0.99909702  0.99920265  1
  O  O356  1  0.88298416  0.47095052  0.53845357  1
  O  O357  1  0.86458253  0.47055797  0.97706282  1
  O  O358  1  0.90539400  0.92143409  0.48041640  1
  O  O359  1  0.88116200  1.00183516  0.99678815  1
  O  O360  1  0.12886301  0.01059442  0.00864720  1
  O  O361  1  0.09553990  -0.00304662  0.49160327  1
  O  O362  1  0.14653976  0.51834803  -0.05606970  1
  O  O363  1  0.12223377  0.51904119  0.51723388  1
  O  O364  1  0.61631531  0.01352594  -0.00441216  1
  O  O365  1  0.60087692  0.01109247  0.50690532  1
  O  O366  1  0.62452186  0.52130065  -0.04055555  1
  O  O367  1  0.59486486  0.48059284  0.48342973  1
  O  O368  1  0.39474181  0.41908841  0.10129916  1
  O  O369  1  0.35336737  0.37215372  0.63138858  1
  O  O370  1  0.38495911  0.88503892  0.11428482  1
  O  O371  1  0.37277937  0.86648119  0.63656051  1
  O  O372  1  0.87271377  0.37153885  0.10241315  1
  O  O373  1  0.92968331  0.35177411  0.62205003  1
  O  O374  1  0.87235691  0.86738957  0.11779820  1
  O  O375  1  0.86489900  0.85884388  0.62855756  1
  O  O376  1  0.08773560  0.11972862  0.34378807  1
  O  O377  1  0.12747016  0.12399994  0.88483894  1
  O  O378  1  0.04213960  0.59599588  0.40977472  1
  O  O379  1  0.20285681  0.54441377  0.89544943  1
  O  O380  1  0.63608534  0.11152048  0.39344215  1
  O  O381  1  0.63976067  0.12329489  0.88741884  1
  O  O382  1  0.61417525  0.60417274  0.35984897  1
  O  O383  1  0.60808448  0.58129971  0.90126447  1
