# generated using pymatgen
data_VZnO4
_symmetry_space_group_name_H-M   'P 1'
_cell_length_a   16.95502521
_cell_length_b   16.87729943
_cell_length_c   16.93300190
_cell_angle_alpha   90.19014921
_cell_angle_beta   89.79579876
_cell_angle_gamma   89.64852955
_symmetry_Int_Tables_number   1
_chemical_formula_structural   VZnO4
_chemical_formula_sum   'V64 Zn64 O256'
_cell_volume   4845.31481224
_cell_formula_units_Z   64
loop_
 _symmetry_equiv_pos_site_id
 _symmetry_equiv_pos_as_xyz
  1  'x, y, z'
loop_
 _atom_site_type_symbol
 _atom_site_label
 _atom_site_symmetry_multiplicity
 _atom_site_fract_x
 _atom_site_fract_y
 _atom_site_fract_z
 _atom_site_occupancy
  V  V0  1  0.62951230  0.49453122  0.12494911  1
  V  V1  1  0.50622375  0.48549604  0.48419501  1
  V  V2  1  0.49399836  0.48989783  -0.00906913  1
  V  V3  1  0.62629908  0.37148871  0.25165401  1
  V  V4  1  0.38449967  0.60837005  0.24592130  1
  V  V5  1  -0.01044427  0.61182422  0.64628410  1
  V  V6  1  0.76829867  0.25046957  0.49940518  1
  V  V7  1  0.25168081  0.36812459  0.61427954  1
  V  V8  1  0.11053036  0.00864794  0.63443799  1
  V  V9  1  -0.01178068  0.88401994  0.89117572  1
  V  V10  1  0.87523688  0.14014618  0.24074184  1
  V  V11  1  0.77682764  0.74770324  -0.01095452  1
  V  V12  1  0.75788312  -0.01085710  0.25236922  1
  V  V13  1  0.60349486  0.75407254  0.88590257  1
  V  V14  1  0.74474315  0.11910134  0.88989911  1
  V  V15  1  0.00326140  -0.02064377  0.47983808  1
  V  V16  1  0.37421511  0.11548219  0.22833452  1
  V  V17  1  0.76766262  0.00340917  0.75672685  1
  V  V18  1  0.49368805  0.24837950  0.22837635  1
  V  V19  1  0.25461011  0.86398615  0.62986082  1
  V  V20  1  0.36920268  0.62829203  0.74737710  1
  V  V21  1  0.26688517  0.38062197  0.12155413  1
  V  V22  1  0.76191380  0.36827656  0.62804522  1
  V  V23  1  0.13131313  0.63498590  0.53678668  1
  V  V24  1  0.75784959  0.25647166  0.00425657  1
  V  V25  1  0.61272383  -0.00238339  0.12271234  1
  V  V26  1  0.26487569  0.26413644  -0.00473192  1
  V  V27  1  0.75812811  0.12437506  0.36891191  1
  V  V28  1  0.49593372  0.74193372  0.73678252  1
  V  V29  1  -0.01490108  0.75165027  0.76199751  1
  V  V30  1  0.12282710  0.15069065  0.46565534  1
  V  V31  1  0.25793768  0.00873309  0.74937355  1
  V  V32  1  0.35378544  0.76477666  0.14188181  1
  V  V33  1  0.87250845  0.75220283  0.62118194  1
  V  V34  1  -0.01088908  0.49429116  0.00216220  1
  V  V35  1  0.60207234  0.35379778  0.73743730  1
  V  V36  1  0.13291722  0.51273043  0.10876029  1
  V  V37  1  0.76374209  0.87197255  0.10998730  1
  V  V38  1  -0.00241645  0.15371696  0.11862422  1
  V  V39  1  0.61762028  0.50234228  0.62831569  1
  V  V40  1  0.13197410  -0.00304218  0.13073044  1
  V  V41  1  0.24264707  0.49736037  0.74816564  1
  V  V42  1  -0.00476997  0.01458726  0.00346491  1
  V  V43  1  0.35387934  -0.00402645  0.37252779  1
  V  V44  1  -0.00812034  0.51409617  0.47888889  1
  V  V45  1  0.74835803  0.87859304  0.62126785  1
  V  V46  1  0.76151699  0.50211731  0.26296417  1
  V  V47  1  0.39250466  0.13918684  0.73340499  1
  V  V48  1  0.12512300  0.87706627  0.76242117  1
  V  V49  1  0.11310571  0.25326220  0.88085039  1
  V  V50  1  0.10751934  0.37586413  0.75012005  1
  V  V51  1  0.62931118  0.11824421  0.52357175  1
  V  V52  1  0.50472975  0.63770508  0.11460482  1
  V  V53  1  0.23751115  0.63426732  0.34619318  1
  V  V54  1  0.37329083  0.48787243  0.87252749  1
  V  V55  1  0.61287424  0.88894034  0.75114518  1
  V  V56  1  0.38399382  0.87212395  -0.01023153  1
  V  V57  1  0.67766195  0.58054572  -0.05331244  1
  V  V58  1  0.25367044  0.12731243  0.87882964  1
  V  V59  1  0.61797496  0.24204547  0.37401946  1
  V  V60  1  0.12490733  0.37478749  0.24535017  1
  V  V61  1  0.13714223  0.74509232  0.88992733  1
  V  V62  1  0.62964607  0.85591298  0.25907093  1
  V  V63  1  0.60744685  0.24475140  0.87532689  1
  Zn  Zn64  1  0.19271042  0.18074232  0.17134623  1
  Zn  Zn65  1  0.18473281  0.19550536  0.68681158  1
  Zn  Zn66  1  0.18881612  0.67936789  0.18477935  1
  Zn  Zn67  1  0.18255993  0.68638119  0.70741321  1
  Zn  Zn68  1  0.67974204  0.18034999  0.18158791  1
  Zn  Zn69  1  0.81711650  0.17928000  0.68581625  1
  Zn  Zn70  1  0.69615186  0.67945033  0.16083142  1
  Zn  Zn71  1  0.66985851  0.70424824  0.66894894  1
  Zn  Zn72  1  0.27868355  0.27537723  0.28422770  1
  Zn  Zn73  1  0.31673186  0.31112721  0.80441943  1
  Zn  Zn74  1  0.35977642  0.78898224  0.35970477  1
  Zn  Zn75  1  0.31207567  0.81429976  0.81952674  1
  Zn  Zn76  1  0.80733043  0.31556249  0.17992391  1
  Zn  Zn77  1  0.79512624  0.30208700  0.80578003  1
  Zn  Zn78  1  0.72433367  0.69083247  0.32421605  1
  Zn  Zn79  1  0.80451233  0.82304968  0.82196720  1
  Zn  Zn80  1  0.19289142  0.46141824  0.43593597  1
  Zn  Zn81  1  0.18627137  0.43770033  0.93168531  1
  Zn  Zn82  1  0.21718412  0.98287998  0.46766027  1
  Zn  Zn83  1  0.19208978  0.94842058  0.94924307  1
  Zn  Zn84  1  0.68871614  0.43236544  0.44018681  1
  Zn  Zn85  1  0.67637581  0.41620310  0.92498006  1
  Zn  Zn86  1  0.68062432  0.94143844  0.43657905  1
  Zn  Zn87  1  0.67906065  0.93301416  0.93576111  1
  Zn  Zn88  1  0.31389253  0.04135185  0.05785718  1
  Zn  Zn89  1  0.31179338  0.08586662  0.55130895  1
  Zn  Zn90  1  0.31602155  0.56968539  0.05561651  1
  Zn  Zn91  1  0.31509473  0.55569583  0.56927855  1
  Zn  Zn92  1  0.81073383  0.06461510  0.06171110  1
  Zn  Zn93  1  0.81883021  0.04465774  0.55463654  1
  Zn  Zn94  1  0.81462844  0.43990786  0.05367999  1
  Zn  Zn95  1  0.81852300  0.54762412  0.58297296  1
  Zn  Zn96  1  0.44810660  0.43173184  0.18031432  1
  Zn  Zn97  1  0.43231347  0.43583802  0.67706351  1
  Zn  Zn98  1  0.43741441  0.91957890  0.22413731  1
  Zn  Zn99  1  0.43121890  0.93336187  0.69839069  1
  Zn  Zn100  1  0.94767078  0.44312511  0.18621684  1
  Zn  Zn101  1  0.99670731  0.22976049  0.71311992  1
  Zn  Zn102  1  0.93043452  0.95156026  0.17237809  1
  Zn  Zn103  1  0.93588220  0.93320075  0.69316943  1
  Zn  Zn104  1  0.05934533  0.07001457  0.30429637  1
  Zn  Zn105  1  0.06821756  0.06611463  0.82120039  1
  Zn  Zn106  1  0.08601564  0.53245777  0.31834196  1
  Zn  Zn107  1  0.06607442  0.56846888  0.83057371  1
  Zn  Zn108  1  0.56257382  0.05337971  0.29669019  1
  Zn  Zn109  1  0.60732566  0.12333899  0.73906527  1
  Zn  Zn110  1  0.55683859  0.56207354  0.30575132  1
  Zn  Zn111  1  0.56023844  0.55588890  0.80066793  1
  Zn  Zn112  1  0.46323553  0.13597928  0.40730531  1
  Zn  Zn113  1  0.42671581  0.18207233  0.92574140  1
  Zn  Zn114  1  0.41773896  0.64230452  0.45662945  1
  Zn  Zn115  1  0.41148073  0.68009284  0.94720509  1
  Zn  Zn116  1  0.95281233  0.17327912  0.54999610  1
  Zn  Zn117  1  0.92865997  0.17954976  0.84841578  1
  Zn  Zn118  1  0.99109604  0.75461325  0.47256026  1
  Zn  Zn119  1  0.98300537  0.68533401  0.95741538  1
  Zn  Zn120  1  0.06774739  0.32804583  0.05120661  1
  Zn  Zn121  1  0.06796116  0.33306990  0.55685497  1
  Zn  Zn122  1  0.09024010  0.82758421  0.05607991  1
  Zn  Zn123  1  0.11855732  0.84414861  0.53291589  1
  Zn  Zn124  1  0.56577320  0.31006412  0.05626766  1
  Zn  Zn125  1  0.55859966  0.30681186  0.55130573  1
  Zn  Zn126  1  0.56280364  0.83290679  0.06925465  1
  Zn  Zn127  1  0.41830068  0.80008066  0.55813905  1
  O  O128  1  0.09697612  0.13305135  0.13386222  1
  O  O129  1  0.12454858  0.10792872  0.63754801  1
  O  O130  1  0.14084134  0.61343987  0.10705208  1
  O  O131  1  0.10526293  0.63082010  0.64195926  1
  O  O132  1  0.62341592  0.09850076  0.13150742  1
  O  O133  1  0.63399105  0.12016635  0.62166900  1
  O  O134  1  0.61234321  0.61098106  0.12150276  1
  O  O135  1  0.63641851  0.60100222  0.64202907  1
  O  O136  1  0.33933811  0.39215719  0.38560650  1
  O  O137  1  0.38475291  0.38910910  0.85867469  1
  O  O138  1  0.38977149  0.89849296  0.34146564  1
  O  O139  1  0.38544068  0.86371128  0.88956432  1
  O  O140  1  0.90980251  0.36081643  0.37487913  1
  O  O141  1  0.86678269  0.39820062  0.86605405  1
  O  O142  1  0.93008904  0.86281434  0.32137318  1
  O  O143  1  0.89004595  0.87854652  0.87965294  1
  O  O144  1  0.25321906  -0.01552805  0.35933709  1
  O  O145  1  0.23744739  0.01794980  0.86149004  1
  O  O146  1  0.25724135  0.55310948  0.40439517  1
  O  O147  1  0.26620554  0.49360517  0.86694740  1
  O  O148  1  0.74508682  0.00959561  0.36018456  1
  O  O149  1  0.73256786  0.00939677  0.86646783  1
  O  O150  1  0.74268945  0.49773014  0.36195311  1
  O  O151  1  0.73329990  0.51545064  0.89561185  1
  O  O152  1  0.24538698  0.49007650  0.10069476  1
  O  O153  1  0.24366672  0.49969943  0.64537840  1
  O  O154  1  0.22085885  1.04738109  0.12592356  1
  O  O155  1  0.23740166  0.99058020  0.64348631  1
  O  O156  1  0.73046531  0.50235534  0.11592323  1
  O  O157  1  0.73457380  0.47557913  0.61563853  1
  O  O158  1  0.74685388  0.98764003  0.12808417  1
  O  O159  1  0.75818171  0.98625578  0.64324602  1
  O  O160  1  0.02427881  0.37491594  0.23870947  1
  O  O161  1  0.01192163  0.38135338  0.75157969  1
  O  O162  1  -0.02331780  0.87717573  0.26661537  1
  O  O163  1  0.00598232  0.87063646  0.76719847  1
  O  O164  1  0.51613119  0.36259729  0.24438718  1
  O  O165  1  0.50274619  0.36199742  0.73300904  1
  O  O166  1  0.53100917  0.85272403  0.25053433  1
  O  O167  1  0.50728864  0.86409429  0.74692316  1
  O  O168  1  0.48629763  0.13962066  0.24733437  1
  O  O169  1  0.49005365  0.11862503  0.74432910  1
  O  O170  1  0.49444609  0.61864702  0.22582884  1
  O  O171  1  0.49284218  0.63611983  0.74910995  1
  O  O172  1  0.98106869  0.13200971  0.23826604  1
  O  O173  1  0.99524158  0.13056618  0.76877458  1
  O  O174  1  0.89719223  0.68430947  0.35130040  1
  O  O175  1  1.00325719  0.64496192  0.75909337  1
  O  O176  1  0.36392423  0.25260189  -0.01016540  1
  O  O177  1  0.34461385  0.32971439  0.42747804  1
  O  O178  1  0.37392235  0.76933205  0.02163671  1
  O  O179  1  0.40499572  0.75360665  0.46098993  1
  O  O180  1  0.85282568  0.24418163  -0.00352037  1
  O  O181  1  0.86485614  0.23656383  0.48778622  1
  O  O182  1  0.87457312  0.73046509  -0.01705602  1
  O  O183  1  0.88547131  0.75272337  0.52327154  1
  O  O184  1  0.11926160  0.24808339  0.48875497  1
  O  O185  1  0.14007777  0.25914456  0.98321219  1
  O  O186  1  0.10383702  0.73123914  0.49894394  1
  O  O187  1  0.09485991  0.73680792  0.98934213  1
  O  O188  1  0.63537111  0.23457980  0.48640354  1
  O  O189  1  0.63071025  0.25665119  0.97954155  1
  O  O190  1  0.58689343  0.75151742  0.44049736  1
  O  O191  1  0.61515774  0.76343678  0.98468961  1
  O  O192  1  0.50506030  0.24808311  0.12919243  1
  O  O193  1  0.49331568  0.20763815  0.56382990  1
  O  O194  1  0.51104736  0.73742550  0.11573582  1
  O  O195  1  0.49034589  0.75237007  0.63816376  1
  O  O196  1  0.99800982  0.25173033  0.10780588  1
  O  O197  1  1.00112161  0.25760064  0.60701955  1
  O  O198  1  1.03946871  0.77964853  0.16824131  1
  O  O199  1  0.98143886  0.75483173  0.65215255  1
  O  O200  1  -0.03763997  0.31126023  0.37586935  1
  O  O201  1  0.01477026  0.24664567  0.89011175  1
  O  O202  1  -0.02872664  0.71551604  0.36233142  1
  O  O203  1  0.00797169  0.76559820  0.87216731  1
  O  O204  1  0.51644103  0.23820637  0.37594588  1
  O  O205  1  0.50867682  0.24314513  0.87837244  1
  O  O206  1  0.56214790  0.70432639  0.38971839  1
  O  O207  1  0.50399397  0.74390814  0.87409952  1
  O  O208  1  0.21399945  0.10441559  0.49725562  1
  O  O209  1  0.26104522  0.13212381  0.98032396  1
  O  O210  1  0.23069679  0.63506424  0.54492941  1
  O  O211  1  0.30275625  0.64381887  0.97274746  1
  O  O212  1  0.74331712  0.12208161  0.48852384  1
  O  O213  1  0.73768262  0.12799021  0.99434698  1
  O  O214  1  0.74085668  0.62475815  0.52983250  1
  O  O215  1  0.73735099  0.64405258  1.00122421  1
  O  O216  1  0.25538238  0.36805053  -0.00401662  1
  O  O217  1  0.22425651  0.39290911  0.51925807  1
  O  O218  1  0.29389985  0.93474079  0.00791769  1
  O  O219  1  0.23318757  0.87415807  0.52804867  1
  O  O220  1  0.75022102  0.36448627  -0.00709848  1
  O  O221  1  0.75107609  0.35543005  0.50306067  1
  O  O222  1  0.75803034  0.86522251  0.00246869  1
  O  O223  1  0.74073110  0.88943408  0.52270146  1
  O  O224  1  0.12418373  0.49820565  0.21450147  1
  O  O225  1  0.13609706  0.49260639  0.77329481  1
  O  O226  1  0.10720157  0.99910323  0.22987804  1
  O  O227  1  0.12858586  0.99411749  0.74977425  1
  O  O228  1  0.62407852  0.49244204  0.23586158  1
  O  O229  1  0.61653326  0.47524960  0.73738356  1
  O  O230  1  0.64097912  0.98437742  0.24330801  1
  O  O231  1  0.61188174  0.98793057  0.74876889  1
  O  O232  1  0.36759833  0.01388428  0.24613103  1
  O  O233  1  0.36060772  0.00448017  0.75193015  1
  O  O234  1  0.38338501  0.50841811  0.23619316  1
  O  O235  1  0.36777021  0.50587679  0.75467538  1
  O  O236  1  0.86074380  0.01278533  0.24160517  1
  O  O237  1  0.86544304  -0.00232026  0.76180419  1
  O  O238  1  0.85977326  0.49413302  0.24858810  1
  O  O239  1  0.89133894  0.45484622  0.82710504  1
  O  O240  1  0.14126121  0.41965329  0.34093373  1
  O  O241  1  0.13280521  0.36153572  0.86180276  1
  O  O242  1  0.11731972  0.83169812  0.33575197  1
  O  O243  1  0.11957469  0.87678397  0.87533641  1
  O  O244  1  0.63590360  0.35164311  0.36440936  1
  O  O245  1  0.62226247  0.35588112  0.85013745  1
  O  O246  1  0.64509771  0.87020695  0.35884739  1
  O  O247  1  0.62239086  0.86190955  0.86031772  1
  O  O248  1  0.37684648  0.11123887  0.12786657  1
  O  O249  1  0.37316671  0.11622485  0.63504218  1
  O  O250  1  0.38469136  0.63958828  0.12884133  1
  O  O251  1  0.37435213  0.62133742  0.64748115  1
  O  O252  1  0.88046225  0.12829723  0.13217423  1
  O  O253  1  0.87759512  0.11816347  0.61379652  1
  O  O254  1  0.91373153  0.67124274  0.18622655  1
  O  O255  1  0.87977310  0.63976929  0.63933253  1
  O  O256  1  0.24779444  0.26363170  0.10201238  1
  O  O257  1  0.24549592  0.26649275  0.62340564  1
  O  O258  1  0.25333672  0.75974710  0.13753926  1
  O  O259  1  0.24262502  0.76636355  0.64805353  1
  O  O260  1  0.73783530  0.24924984  0.11068806  1
  O  O261  1  0.75583758  0.25007646  0.60658013  1
  O  O262  1  0.75401479  0.75884236  0.10062243  1
  O  O263  1  0.76213280  0.76052938  0.63733237  1
  O  O264  1  0.30275058  0.26572330  0.40134733  1
  O  O265  1  0.24958842  0.24545128  0.87760988  1
  O  O266  1  0.26153980  0.72809976  0.37751025  1
  O  O267  1  0.23304492  0.77353134  0.89381284  1
  O  O268  1  0.74332640  0.23147313  0.38373070  1
  O  O269  1  0.74174668  0.23712842  0.88461697  1
  O  O270  1  0.74267051  0.71982373  0.43802448  1
  O  O271  1  0.74102679  0.75468438  0.89009961  1
  O  O272  1  -0.00536803  0.11978988  0.01309658  1
  O  O273  1  0.03036768  0.10399944  0.49576520  1
  O  O274  1  -0.05007467  0.65988635  0.12413628  1
  O  O275  1  0.00152968  0.61723270  0.53803965  1
  O  O276  1  0.49599133  0.11791793  -0.00302594  1
  O  O277  1  0.51535691  0.14269744  0.51798441  1
  O  O278  1  0.49106127  0.61514356  0.01041996  1
  O  O279  1  0.50867734  0.59849901  0.50820963  1
  O  O280  1  0.49136215  0.38628453  0.50509693  1
  O  O281  1  0.50721267  0.39129086  0.99771582  1
  O  O282  1  0.49711546  0.92080346  0.54063595  1
  O  O283  1  0.48082608  0.88712703  1.01380119  1
  O  O284  1  1.02792675  0.42102239  0.49825507  1
  O  O285  1  0.99950822  0.39589670  0.98164353  1
  O  O286  1  1.01367998  0.87093799  0.48877691  1
  O  O287  1  1.00243013  0.87912438  0.99352694  1
  O  O288  1  0.51788528  0.48939063  0.38373580  1
  O  O289  1  0.49860400  0.50384534  0.88506794  1
  O  O290  1  0.48722109  1.02610031  0.37627907  1
  O  O291  1  0.48419408  1.04155151  0.98542471  1
  O  O292  1  0.99052159  0.52814197  0.37780618  1
  O  O293  1  1.00296931  0.57489745  0.92685555  1
  O  O294  1  1.01827797  0.99259554  0.38236460  1
  O  O295  1  1.00668852  0.99340121  0.89122957  1
  O  O296  1  0.01033386  0.00170071  0.11418563  1
  O  O297  1  0.01012110  -0.00591494  0.63431594  1
  O  O298  1  0.01372045  0.50647156  0.10736059  1
  O  O299  1  -0.01574707  0.51780260  0.66166193  1
  O  O300  1  0.51717693  -0.02009513  0.15006169  1
  O  O301  1  0.49146736  -0.02633968  0.59313069  1
  O  O302  1  0.50933436  0.50416323  0.10731604  1
  O  O303  1  0.51417753  0.49531100  0.62191239  1
  O  O304  1  0.25556377  0.37790876  0.22389314  1
  O  O305  1  0.25037957  0.38789801  0.74345584  1
  O  O306  1  0.16703208  0.85229799  0.28773824  1
  O  O307  1  0.24553468  0.88777763  0.75410853  1
  O  O308  1  0.73430435  0.38989542  0.23952707  1
  O  O309  1  0.73446276  0.36034968  0.73108177  1
  O  O310  1  0.75890045  0.88716453  0.24082780  1
  O  O311  1  0.73851874  0.89235006  0.75778575  1
  O  O312  1  0.27881544  0.16264235  0.24437709  1
  O  O313  1  0.25136197  0.11609232  0.74849807  1
  O  O314  1  0.27027800  0.62067135  0.24347440  1
  O  O315  1  0.25951992  0.61320705  0.75450996  1
  O  O316  1  0.75404831  0.11813939  0.25263787  1
  O  O317  1  0.74322223  0.10774273  0.75062750  1
  O  O318  1  0.74324017  0.60683647  0.24351149  1
  O  O319  1  0.77368589  0.59006337  0.75551532  1
  O  O320  1  0.36556603  0.10918795  0.35757379  1
  O  O321  1  0.35812642  0.12903051  0.85047296  1
  O  O322  1  0.39061055  0.62559051  0.34533605  1
  O  O323  1  0.38508717  0.60546564  0.85778675  1
  O  O324  1  0.85877420  0.12306636  0.35776623  1
  O  O325  1  0.84417339  0.11578813  0.88152646  1
  O  O326  1  0.77632829  0.65322991  0.46544738  1
  O  O327  1  0.82939089  0.60118351  0.80025268  1
  O  O328  1  0.13958638  0.38276973  0.12543152  1
  O  O329  1  0.13314233  0.37914855  0.64716487  1
  O  O330  1  0.15122104  0.89603280  0.11717767  1
  O  O331  1  0.13148178  0.88113042  0.65010062  1
  O  O332  1  0.61936024  0.38862394  0.12742385  1
  O  O333  1  0.62389309  0.36504053  0.62945042  1
  O  O334  1  0.64653808  0.87437001  0.13907892  1
  O  O335  1  0.64420497  0.86379141  0.64875736  1
  O  O336  1  0.15320987  0.27493295  0.25272184  1
  O  O337  1  0.11629673  0.26129170  0.75802624  1
  O  O338  1  0.07487232  0.73200285  0.21414950  1
  O  O339  1  0.11784761  0.76359360  0.76908661  1
  O  O340  1  0.61791927  0.25205802  0.25405024  1
  O  O341  1  0.61565222  0.24875685  0.75377752  1
  O  O342  1  0.66447649  0.75568193  0.24737900  1
  O  O343  1  0.60681265  0.74948489  0.75705869  1
  O  O344  1  0.39619639  0.26270947  0.24728163  1
  O  O345  1  0.37856580  0.23927968  0.74049382  1
  O  O346  1  0.37810286  0.74372393  0.24086022  1
  O  O347  1  0.38336545  0.73905334  0.76258446  1
  O  O348  1  0.85801504  0.23827367  0.24767139  1
  O  O349  1  0.87957106  0.24252941  0.75972193  1
  O  O350  1  0.84792980  0.73268565  0.31658811  1
  O  O351  1  0.88399690  0.75592026  0.76752947  1
  O  O352  1  0.39913320  0.52964781  0.49679496  1
  O  O353  1  0.38594288  0.49607688  0.98461059  1
  O  O354  1  0.35098029  1.00190823  0.47819074  1
  O  O355  1  0.40817464  1.02158825  0.97262027  1
  O  O356  1  0.89399520  0.51256771  0.50619044  1
  O  O357  1  0.88906346  0.51132542  1.00865290  1
  O  O358  1  0.90468879  0.99125444  0.49796242  1
  O  O359  1  0.89447344  1.00135368  1.01108628  1
  O  O360  1  0.11062221  0.00374708  0.01151300  1
  O  O361  1  0.11468502  -0.02111040  0.52653649  1
  O  O362  1  0.11732717  0.49384388  0.00275467  1
  O  O363  1  0.11438070  0.54691335  0.48260913  1
  O  O364  1  0.62252574  -0.02336962  0.02206060  1
  O  O365  1  0.62147004  0.02282047  0.49313733  1
  O  O366  1  0.61793635  0.50611959  0.00036763  1
  O  O367  1  0.61622866  0.48582953  0.51347582  1
  O  O368  1  0.36632642  0.38268307  0.11508764  1
  O  O369  1  0.35135271  0.38826860  0.61584877  1
  O  O370  1  0.37631186  0.86444262  0.14042327  1
  O  O371  1  0.36068516  0.87201786  0.62901313  1
  O  O372  1  0.87784849  0.37991137  0.12447146  1
  O  O373  1  0.85675576  0.37664873  0.63246217  1
  O  O374  1  0.86238005  0.87179660  0.12612847  1
  O  O375  1  0.86114246  0.86336309  0.63932356  1
  O  O376  1  0.12198530  0.14188173  0.36491944  1
  O  O377  1  0.14286192  0.14510245  0.86577834  1
  O  O378  1  0.13708922  0.63625648  0.32672352  1
  O  O379  1  0.14176251  0.64851022  0.86451893  1
  O  O380  1  0.63555121  0.13410343  0.36032178  1
  O  O381  1  0.63299602  0.13942360  0.85972790  1
  O  O382  1  0.61987742  0.64012180  0.36601916  1
  O  O383  1  0.62435482  0.63511152  0.87496207  1
