# generated using pymatgen
data_VZnO4
_symmetry_space_group_name_H-M   'P 1'
_cell_length_a   16.96794357
_cell_length_b   16.97053457
_cell_length_c   17.06278469
_cell_angle_alpha   89.82561151
_cell_angle_beta   90.14832563
_cell_angle_gamma   89.49975726
_symmetry_Int_Tables_number   1
_chemical_formula_structural   VZnO4
_chemical_formula_sum   'V64 Zn64 O256'
_cell_volume   4913.08858471
_cell_formula_units_Z   64
loop_
 _symmetry_equiv_pos_site_id
 _symmetry_equiv_pos_as_xyz
  1  'x, y, z'
loop_
 _atom_site_type_symbol
 _atom_site_label
 _atom_site_symmetry_multiplicity
 _atom_site_fract_x
 _atom_site_fract_y
 _atom_site_fract_z
 _atom_site_occupancy
  V  V0  1  0.24593406  0.50645308  0.74004479  1
  V  V1  1  0.89301240  -0.00413751  0.90637428  1
  V  V2  1  0.24364194  0.75558526  0.00025628  1
  V  V3  1  0.01888377  0.61583905  0.63064940  1
  V  V4  1  0.24756429  0.62898949  0.86508734  1
  V  V5  1  0.37342146  0.50829276  0.36623140  1
  V  V6  1  0.23198167  0.49687717  0.24247254  1
  V  V7  1  0.12071924  0.24935827  0.36466239  1
  V  V8  1  0.50667745  0.38766664  0.36678982  1
  V  V9  1  0.87527170  0.50220189  0.34031843  1
  V  V10  1  0.88056875  0.38344986  0.50358571  1
  V  V11  1  0.54977956  0.80204274  0.80798525  1
  V  V12  1  0.59796046  0.12538598  0.00608990  1
  V  V13  1  0.74731455  0.86908598  0.12154792  1
  V  V14  1  0.74659000  -0.00749225  0.26131636  1
  V  V15  1  0.00220108  0.24285159  0.73928979  1
  V  V16  1  0.12704706  0.11069267  0.00085577  1
  V  V17  1  0.11525536  0.61919098  -0.00378858  1
  V  V18  1  0.76074047  0.61073403  0.87831411  1
  V  V19  1  0.36043777  0.12394372  0.26021325  1
  V  V20  1  0.12689897  0.75561764  0.39339432  1
  V  V21  1  0.86394162  0.74619582  0.15501558  1
  V  V22  1  0.25573779  0.86947629  0.59773747  1
  V  V23  1  0.00225248  0.37258401  0.36393947  1
  V  V24  1  0.88596860  0.23999861  0.61916739  1
  V  V25  1  0.24530216  0.38652889  0.61471139  1
  V  V26  1  0.11960055  0.76622759  0.85661623  1
  V  V27  1  0.25410580  0.13138547  0.86306875  1
  V  V28  1  0.62040105  0.24088917  0.36276429  1
  V  V29  1  0.37376221  0.49335617  0.88275780  1
  V  V30  1  0.51204681  0.36668406  0.87128761  1
  V  V31  1  0.58648218  0.01618125  0.60385234  1
  V  V32  1  0.25140332  0.63613048  0.37995926  1
  V  V33  1  0.00533471  0.90334909  0.37618937  1
  V  V34  1  0.86815463  0.88544252  0.49772526  1
  V  V35  1  0.60664213  -0.00654921  0.12377449  1
  V  V36  1  0.76150035  0.12469708  0.37090542  1
  V  V37  1  0.10890186  0.12454406  0.50180077  1
  V  V38  1  0.01118114  0.72569676  0.25524083  1
  V  V39  1  0.39380110  0.62791829  0.73748667  1
  V  V40  1  0.11426140  0.00145575  0.62036414  1
  V  V41  1  0.23546925  0.38082417  0.10539878  1
  V  V42  1  0.51880940  0.50269981  0.01050162  1
  V  V43  1  0.12384677  0.38191999  0.73662036  1
  V  V44  1  0.88487046  0.13512184  0.23663081  1
  V  V45  1  0.24948096  0.24257070  0.49296383  1
  V  V46  1  0.24378086  -0.01210012  0.74678668  1
  V  V47  1  0.38278862  0.88004503  -0.01586327  1
  V  V48  1  0.37718901  0.62562459  0.22899053  1
  V  V49  1  0.72617804  0.35515884  0.13543369  1
  V  V50  1  0.22779683  -0.01054418  0.23636045  1
  V  V51  1  0.38512744  -0.00089265  0.86396090  1
  V  V52  1  -0.00905508  0.76465952  0.73670379  1
  V  V53  1  0.48897636  0.25104567  0.23861444  1
  V  V54  1  0.76838869  0.03208350  0.74171126  1
  V  V55  1  0.36434937  0.25867213  0.10811687  1
  V  V56  1  0.74222184  0.47537987  0.76015450  1
  V  V57  1  0.74525020  0.25193271  0.50247589  1
  V  V58  1  0.38333899  0.75423404  0.11549530  1
  V  V59  1  0.12368291  0.25618732  0.87640083  1
  V  V60  1  -0.01952950  0.39215860  0.86533707  1
  V  V61  1  0.76793609  0.24320206  -0.00134443  1
  V  V62  1  0.37477385  0.38688459  0.49220125  1
  V  V63  1  0.38006211  0.24516028  0.62982777  1
  Zn  Zn64  1  0.18916790  0.19438525  0.18328066  1
  Zn  Zn65  1  0.19137170  0.18883070  0.68068661  1
  Zn  Zn66  1  0.18275531  0.67960157  0.18296461  1
  Zn  Zn67  1  0.18423071  0.69197572  0.67189427  1
  Zn  Zn68  1  0.68316358  0.17898366  0.18116819  1
  Zn  Zn69  1  0.70014271  0.15891139  0.66196805  1
  Zn  Zn70  1  0.71929803  0.67682058  0.22981525  1
  Zn  Zn71  1  0.67535434  0.64995659  0.72747041  1
  Zn  Zn72  1  0.30686714  0.31871683  0.31014929  1
  Zn  Zn73  1  0.31030331  0.31582176  0.80740940  1
  Zn  Zn74  1  0.28406668  0.80753134  0.28270704  1
  Zn  Zn75  1  0.31575975  0.80818865  0.80354687  1
  Zn  Zn76  1  0.81561660  0.31167401  0.31117530  1
  Zn  Zn77  1  0.80621245  0.29714763  0.80695599  1
  Zn  Zn78  1  0.83117245  0.81703709  0.34000320  1
  Zn  Zn79  1  0.86158888  0.79856916  0.85202650  1
  Zn  Zn80  1  0.18270969  0.44361570  0.43288276  1
  Zn  Zn81  1  0.18001981  0.44217171  0.92611427  1
  Zn  Zn82  1  0.19047453  0.94716290  0.42579067  1
  Zn  Zn83  1  0.19151907  0.93880135  0.93514826  1
  Zn  Zn84  1  0.70385149  0.42439608  0.40836357  1
  Zn  Zn85  1  0.69089016  0.42567552  0.94131294  1
  Zn  Zn86  1  0.66002532  0.90039746  0.51918499  1
  Zn  Zn87  1  0.73270639  1.13010144  0.87638566  1
  Zn  Zn88  1  0.28445291  0.09298302  0.07499928  1
  Zn  Zn89  1  0.31123717  0.06323448  0.57063979  1
  Zn  Zn90  1  0.29903171  0.56349580  0.05844115  1
  Zn  Zn91  1  0.31944784  0.56944520  0.55896950  1
  Zn  Zn92  1  0.79343164  0.05521675  0.06904158  1
  Zn  Zn93  1  0.82014298  0.06111359  0.55058779  1
  Zn  Zn94  1  0.78432051  0.57521313  0.10710341  1
  Zn  Zn95  1  0.83022976  0.55542146  0.59908122  1
  Zn  Zn96  1  0.43145617  0.43536399  0.18042470  1
  Zn  Zn97  1  0.42511332  0.42657824  0.69557906  1
  Zn  Zn98  1  0.39455712  0.96638595  0.15494392  1
  Zn  Zn99  1  0.43110516  0.92989616  0.68559247  1
  Zn  Zn100  1  0.92911802  0.39200567  0.17945692  1
  Zn  Zn101  1  0.92910128  0.43536878  0.68591371  1
  Zn  Zn102  1  0.91418157  0.92125866  0.23222356  1
  Zn  Zn103  1  0.93145258  0.92837008  0.67155993  1
  Zn  Zn104  1  0.07580875  0.07288727  0.30221591  1
  Zn  Zn105  1  0.06593944  0.06248399  0.80882052  1
  Zn  Zn106  1  0.06674287  0.55667016  0.34343100  1
  Zn  Zn107  1  0.05888778  0.57184217  0.80859511  1
  Zn  Zn108  1  0.56250779  0.07163477  0.29534189  1
  Zn  Zn109  1  0.60235629  -0.00834266  0.86384847  1
  Zn  Zn110  1  0.54598961  0.60550168  0.33332760  1
  Zn  Zn111  1  0.56944967  0.55553462  0.82496829  1
  Zn  Zn112  1  0.42943950  0.19853309  0.42982625  1
  Zn  Zn113  1  0.43413971  0.18490597  0.93438144  1
  Zn  Zn114  1  0.56624171  0.72128808  0.49094219  1
  Zn  Zn115  1  0.43536036  0.67654639  0.93532714  1
  Zn  Zn116  1  0.93642076  0.18875907  0.43289672  1
  Zn  Zn117  1  0.92721551  0.14586703  1.03942014  1
  Zn  Zn118  1  0.92797078  0.68895106  0.42584721  1
  Zn  Zn119  1  0.90569131  0.66527035  0.96442338  1
  Zn  Zn120  1  0.04989691  0.32877219  0.05218405  1
  Zn  Zn121  1  0.06268923  0.31756267  0.55428060  1
  Zn  Zn122  1  0.03557212  0.75882507  0.05199450  1
  Zn  Zn123  1  0.05787521  0.81929047  0.56093087  1
  Zn  Zn124  1  0.55540847  0.32126185  0.05109345  1
  Zn  Zn125  1  0.55398796  0.30676808  0.54573748  1
  Zn  Zn126  1  0.55358702  0.82698238  0.07446813  1
  Zn  Zn127  1  0.59450090  0.82314019  0.65590160  1
  O  O128  1  0.16515831  0.12883079  0.09504839  1
  O  O129  1  0.13184861  0.11892406  0.60959240  1
  O  O130  1  0.12880928  0.62943833  0.09516478  1
  O  O131  1  0.11891867  0.61739901  0.61562703  1
  O  O132  1  0.61971936  0.10698675  0.11831481  1
  O  O133  1  0.60335074  0.11410852  0.63223058  1
  O  O134  1  0.66172927  0.60184513  0.13813994  1
  O  O135  1  0.60461369  0.64615417  0.61189219  1
  O  O136  1  0.37656584  0.38896824  0.37526361  1
  O  O137  1  0.36175466  0.39320038  0.87083479  1
  O  O138  1  0.39768321  0.86503264  0.32179901  1
  O  O139  1  0.37279173  0.88305896  0.87435381  1
  O  O140  1  0.88544541  0.37450988  0.38052355  1
  O  O141  1  0.88421987  0.36939775  0.85563490  1
  O  O142  1  0.89829123  0.91058931  0.37230105  1
  O  O143  1  0.88862675  0.89393001  0.90214527  1
  O  O144  1  0.24111888  -0.00422266  0.33859760  1
  O  O145  1  0.24632763  0.00910595  0.85717580  1
  O  O146  1  0.25748578  0.51114031  0.35950717  1
  O  O147  1  0.25250389  0.51073279  0.86056752  1
  O  O148  1  0.73791617  0.02430582  0.36699706  1
  O  O149  1  0.72882371  -0.10217614  0.88962694  1
  O  O150  1  0.77453838  0.48764632  0.35648187  1
  O  O151  1  0.75390723  0.48882664  0.86322097  1
  O  O152  1  0.24795454  0.49188108  0.13303774  1
  O  O153  1  0.25517066  0.49549597  0.62689195  1
  O  O154  1  0.28611605  1.00207699  0.14035008  1
  O  O155  1  0.24793444  0.99501139  0.63467219  1
  O  O156  1  0.77033799  0.46070663  0.11920513  1
  O  O157  1  0.69107639  0.46837033  0.57023873  1
  O  O158  1  0.74108194  0.98192741  0.13950934  1
  O  O159  1  0.75127532  1.04836540  0.63798997  1
  O  O160  1  0.00285214  0.36457221  0.26675419  1
  O  O161  1  0.00976665  0.37199498  0.74565838  1
  O  O162  1  0.00770141  0.87316686  0.27329677  1
  O  O163  1  0.00816061  0.86380252  0.73133614  1
  O  O164  1  0.48847167  0.36372543  0.26333796  1
  O  O165  1  0.49395635  0.38545062  0.77162958  1
  O  O166  1  0.45803946  0.82230665  0.32077215  1
  O  O167  1  0.58298282  0.87859456  0.86284908  1
  O  O168  1  0.48742847  0.14654645  0.25172980  1
  O  O169  1  0.55079408  0.21086551  0.75523407  1
  O  O170  1  0.47533795  0.62979123  0.24602967  1
  O  O171  1  0.49158562  0.61324826  0.75774481  1
  O  O172  1  0.98188008  0.11459872  0.25085420  1
  O  O173  1  1.01154893  0.14591896  0.74549973  1
  O  O174  1  1.01247141  0.62693579  0.26190397  1
  O  O175  1  1.00769834  0.64192781  0.73475202  1
  O  O176  1  0.37143977  0.24745771  0.01094953  1
  O  O177  1  0.36020490  0.26558418  0.49652440  1
  O  O178  1  0.36372920  0.74782264  0.00088774  1
  O  O179  1  0.42217374  0.80766796  0.48176043  1
  O  O180  1  0.86705195  0.23893617  0.00459532  1
  O  O181  1  0.87106228  0.25495974  0.50493998  1
  O  O182  1  0.86934280  0.72410582  0.05765077  1
  O  O183  1  0.86538576  0.78004974  0.44400332  1
  O  O184  1  0.13580248  0.24115984  0.50148070  1
  O  O185  1  0.12341657  0.26516764  0.97375556  1
  O  O186  1  0.12403690  0.74650893  0.48986591  1
  O  O187  1  0.13664484  0.74799170  0.98130064  1
  O  O188  1  0.63892414  0.25943355  0.48800646  1
  O  O189  1  0.60647574  0.22668605  1.00842003  1
  O  O190  1  0.59723868  0.80748629  0.54384444  1
  O  O191  1  0.62105295  0.73520561  1.01265042  1
  O  O192  1  0.48328301  0.26580542  0.13669500  1
  O  O193  1  0.47840782  0.25478842  0.60659390  1
  O  O194  1  0.48232538  0.74752121  0.11818710  1
  O  O195  1  0.49722485  0.84531171  0.72877031  1
  O  O196  1  0.96519379  0.30654867  0.11774662  1
  O  O197  1  0.99553216  0.25492248  0.62762534  1
  O  O198  1  0.98061780  0.74294306  0.15144038  1
  O  O199  1  1.01871345  0.74284309  0.63452453  1
  O  O200  1  0.01273814  0.25616827  0.38083759  1
  O  O201  1  0.01756893  0.26563472  0.85005881  1
  O  O202  1  0.02142927  0.73951329  0.36940703  1
  O  O203  1  0.01612569  0.75356327  0.84979124  1
  O  O204  1  0.50915265  0.25888011  0.37158772  1
  O  O205  1  0.48390230  0.26906533  0.88142230  1
  O  O206  1  0.54841647  0.63427212  0.43655952  1
  O  O207  1  0.49811032  0.74272768  0.86893960  1
  O  O208  1  0.25456550  0.14280467  0.49745799  1
  O  O209  1  0.24240703  0.12120580  0.96998755  1
  O  O210  1  0.26393499  0.62689114  0.47741661  1
  O  O211  1  0.23925006  0.63310484  0.98254222  1
  O  O212  1  0.75926792  0.14282673  0.48063589  1
  O  O213  1  0.73838350  0.13756171  1.00727450  1
  O  O214  1  0.66856858  0.62819026  0.57082293  1
  O  O215  1  0.77711839  0.57221185  0.99199412  1
  O  O216  1  0.24341719  0.39079779  0.00702908  1
  O  O217  1  0.25377397  0.37984065  0.50053647  1
  O  O218  1  0.26041614  0.85871735  -0.01305564  1
  O  O219  1  0.25856222  0.89090360  0.49948175  1
  O  O220  1  0.73498727  0.34560695  0.00944499  1
  O  O221  1  0.76656208  0.35478899  0.48143686  1
  O  O222  1  0.75751154  0.85773066  0.02839354  1
  O  O223  1  0.76599485  0.89039082  0.48913572  1
  O  O224  1  0.13524716  0.50781792  0.25552261  1
  O  O225  1  0.13659645  0.49202549  0.75241676  1
  O  O226  1  0.13229310  1.01881256  0.22013434  1
  O  O227  1  0.13462893  1.00808557  0.73256038  1
  O  O228  1  0.63098591  0.55214756  0.19274305  1
  O  O229  1  0.65010813  0.52407985  0.74023432  1
  O  O230  1  0.63905716  1.01019433  0.23976100  1
  O  O231  1  0.68194381  0.99426041  0.77681756  1
  O  O232  1  0.38950376  0.02643688  0.25498738  1
  O  O233  1  0.35898810  -0.00636669  0.75932072  1
  O  O234  1  0.36863254  0.51091449  0.24831858  1
  O  O235  1  0.36152504  0.50770834  0.75529666  1
  O  O236  1  0.85077919  0.01660202  0.24632122  1
  O  O237  1  0.84973830  -0.03099695  0.73467027  1
  O  O238  1  0.88765804  0.48259738  0.24273786  1
  O  O239  1  0.82616676  0.49144336  0.69545071  1
  O  O240  1  0.11175043  0.36130686  0.38491560  1
  O  O241  1  0.13577455  0.36544128  0.85060494  1
  O  O242  1  0.12331264  0.86026040  0.38094791  1
  O  O243  1  0.13087968  0.86357691  0.87460378  1
  O  O244  1  0.61014005  0.37136704  0.37235394  1
  O  O245  1  0.61212863  0.37095003  0.87503880  1
  O  O246  1  0.55233939  0.91503790  0.36291115  1
  O  O247  1  0.66206382  0.75838520  0.95684192  1
  O  O248  1  0.36392104  0.15469496  0.13826313  1
  O  O249  1  0.36345823  0.14663513  0.62449873  1
  O  O250  1  0.36775409  0.63057636  0.12388109  1
  O  O251  1  0.38454375  0.61216355  0.63772147  1
  O  O252  1  0.86821089  0.12471160  0.13517207  1
  O  O253  1  0.88382429  0.14241098  0.61201653  1
  O  O254  1  0.82304737  0.64462790  0.18473856  1
  O  O255  1  0.90787704  0.64370065  0.58643774  1
  O  O256  1  0.25560320  0.27039312  0.12566910  1
  O  O257  1  0.25578593  0.26517760  0.60758067  1
  O  O258  1  0.24791699  0.74359148  0.10059631  1
  O  O259  1  0.23492941  0.77177214  0.61155750  1
  O  O260  1  0.74393098  0.24960060  0.11630209  1
  O  O261  1  0.75860102  0.24495914  0.60603412  1
  O  O262  1  0.74597715  0.76952946  0.16319357  1
  O  O263  1  0.73642428  0.63105597  0.61948785  1
  O  O264  1  0.23568864  0.26509115  0.38844570  1
  O  O265  1  0.23958588  0.23942459  0.85669270  1
  O  O266  1  0.24412321  0.74551002  0.36794558  1
  O  O267  1  0.24773515  0.74190877  0.87602060  1
  O  O268  1  0.73410003  0.24347237  0.37294408  1
  O  O269  1  0.75476032  0.24336195  0.89240086  1
  O  O270  1  0.71205434  0.76981079  0.37421780  1
  O  O271  1  0.81659280  0.70233932  0.89873220  1
  O  O272  1  0.03236793  0.14310050  0.00951368  1
  O  O273  1  0.01086232  0.13032953  0.50129349  1
  O  O274  1  0.01518940  0.65813226  -0.01075743  1
  O  O275  1  -0.03396467  0.63029171  0.52631412  1
  O  O276  1  0.49830334  0.11501593  -0.00014678  1
  O  O277  1  0.45430536  0.08663325  0.48286418  1
  O  O278  1  0.49629981  0.60189730  -0.00748577  1
  O  O279  1  0.71506604  0.62143885  0.41971000  1
  O  O280  1  0.48524332  0.37289914  0.47578998  1
  O  O281  1  0.49681231  0.39264078  0.98326839  1
  O  O282  1  0.42604558  0.87947708  0.47632111  1
  O  O283  1  0.48144481  0.86679979  0.99425390  1
  O  O284  1  0.98547428  0.37197348  0.49089807  1
  O  O285  1  1.00975718  0.38499570  0.96054791  1
  O  O286  1  0.99799203  0.86937687  0.47741843  1
  O  O287  1  0.99614688  0.87250920  1.03131260  1
  O  O288  1  0.49185330  0.49082969  0.35912329  1
  O  O289  1  0.48482735  0.49371434  0.88170993  1
  O  O290  1  0.51091553  0.97627238  0.36019917  1
  O  O291  1  0.48165186  1.00637383  0.85757733  1
  O  O292  1  0.98505105  0.47854558  0.37165367  1
  O  O293  1  0.98882081  0.49196689  0.84495740  1
  O  O294  1  1.03369974  0.99854640  0.37779857  1
  O  O295  1  0.97979093  1.02709939  0.86730281  1
  O  O296  1  0.04318050  -0.08833357  0.08255868  1
  O  O297  1  0.01658472  -0.00067512  0.62712915  1
  O  O298  1  0.00083284  0.48941128  0.11457837  1
  O  O299  1  -0.00533290  0.51751291  0.64034257  1
  O  O300  1  0.50837708  -0.02026879  0.14154477  1
  O  O301  1  0.48745891  0.00120267  0.62269174  1
  O  O302  1  0.49639934  0.48999747  0.10849389  1
  O  O303  1  0.52735737  0.45738395  0.61999118  1
  O  O304  1  0.24815069  0.39430255  0.24820177  1
  O  O305  1  0.24368583  0.38514199  0.73190702  1
  O  O306  1  0.23396497  0.88722562  0.22760087  1
  O  O307  1  0.24541654  0.88758690  0.74907122  1
  O  O308  1  0.74372529  0.35431841  0.23499000  1
  O  O309  1  0.73501220  0.37588474  0.75427048  1
  O  O310  1  0.75498903  0.89441912  0.27788848  1
  O  O311  1  0.73884414  0.84586034  0.84008658  1
  O  O312  1  0.25754942  0.12095981  0.24487335  1
  O  O313  1  0.24421486  0.11694394  0.75747281  1
  O  O314  1  0.25586074  0.61439178  0.24637482  1
  O  O315  1  0.24648786  0.61840088  0.74870801  1
  O  O316  1  0.75293310  0.12797949  0.26056919  1
  O  O317  1  0.75809433  0.13991113  0.76022372  1
  O  O318  1  0.64606044  0.58390767  0.26889355  1
  O  O319  1  0.77779060  0.61165115  0.77820327  1
  O  O320  1  0.36452917  0.14237222  0.35880489  1
  O  O321  1  0.36152863  0.11239882  0.87429152  1
  O  O322  1  0.36211365  0.61973118  0.35162400  1
  O  O323  1  0.36216331  0.61399105  0.86125675  1
  O  O324  1  0.86416672  0.12844511  0.36581114  1
  O  O325  1  0.80985463  0.04035243  0.86104269  1
  O  O326  1  0.88667840  0.59970458  0.36645539  1
  O  O327  1  0.85067054  0.56071897  0.94993036  1
  O  O328  1  0.13680961  0.37031029  0.11759868  1
  O  O329  1  0.13434268  0.37611699  0.62449266  1
  O  O330  1  0.10142935  0.86972332  0.10963111  1
  O  O331  1  0.13681878  0.89858848  0.60610852  1
  O  O332  1  0.62687078  0.36864289  0.12734409  1
  O  O333  1  0.57735881  0.40060784  0.62493126  1
  O  O334  1  0.63330031  0.88122106  0.13099076  1
  O  O335  1  0.63691800  0.93001290  0.64035766  1
  O  O336  1  0.13000395  0.24252780  0.26705128  1
  O  O337  1  0.11863191  0.26218279  0.73878034  1
  O  O338  1  0.11303753  0.74701221  0.24428942  1
  O  O339  1  0.13805229  0.75396439  0.75832124  1
  O  O340  1  0.60728633  0.24522774  0.25759095  1
  O  O341  1  0.60757468  0.25116241  0.73744103  1
  O  O342  1  0.66899231  0.73111480  0.32496763  1
  O  O343  1  0.62635982  0.75290792  0.74877252  1
  O  O344  1  0.38065110  0.25110271  0.25148084  1
  O  O345  1  0.37202841  0.26661526  0.72728723  1
  O  O346  1  0.35565423  0.73835660  0.22134522  1
  O  O347  1  0.37071124  0.72613481  0.74894224  1
  O  O348  1  0.87629743  0.23461907  0.25303106  1
  O  O349  1  0.88980982  0.25621709  0.72974043  1
  O  O350  1  0.89506372  0.75305059  0.26518280  1
  O  O351  1  0.89090717  0.76176238  0.74809411  1
  O  O352  1  0.37045713  0.49624598  0.48076195  1
  O  O353  1  0.36207142  0.50728908  0.98061293  1
  O  O354  1  0.39701208  1.03771365  0.48518821  1
  O  O355  1  0.36869233  0.98324689  0.97937699  1
  O  O356  1  0.85932815  0.48230107  0.51080195  1
  O  O357  1  0.95466582  0.53434912  1.07967703  1
  O  O358  1  0.88727422  0.98872043  0.50348411  1
  O  O359  1  0.88713070  1.03477634  1.00347443  1
  O  O360  1  0.12380416  0.01099511  -0.01004452  1
  O  O361  1  0.13502442  0.02004283  0.50535553  1
  O  O362  1  0.11488450  0.52078494  -0.02129402  1
  O  O363  1  0.10713119  0.52313967  0.44776738  1
  O  O364  1  0.61576265  -0.00177764  0.02358309  1
  O  O365  1  0.60710426  0.00425167  0.50506889  1
  O  O366  1  0.61896255  0.49699131  -0.00195734  1
  O  O367  1  0.65649360  0.48634578  0.50704348  1
  O  O368  1  0.35981786  0.36607317  0.12518122  1
  O  O369  1  0.36503385  0.37712138  0.60807179  1
  O  O370  1  0.37220301  0.85947634  0.10353979  1
  O  O371  1  0.35210244  0.87591851  0.62646960  1
  O  O372  1  0.83220909  0.40585686  0.10506403  1
  O  O373  1  0.87869971  0.36039838  0.60690023  1
  O  O374  1  0.85752782  0.86026892  0.15134227  1
  O  O375  1  0.89004951  0.85751956  0.59213940  1
  O  O376  1  0.12339016  0.14194473  0.39002208  1
  O  O377  1  0.13099928  0.14015933  0.87707295  1
  O  O378  1  0.14638751  0.64108819  0.36760911  1
  O  O379  1  0.13280931  0.63720365  0.87369853  1
  O  O380  1  0.62275317  0.13989370  0.37332053  1
  O  O381  1  0.62566262  0.09608392  0.90538466  1
  O  O382  1  0.75277545  0.67759613  0.44448881  1
  O  O383  1  0.65892045  0.62056893  0.87726352  1
