# generated using pymatgen
data_VZnO4
_symmetry_space_group_name_H-M   'P 1'
_cell_length_a   16.90473428
_cell_length_b   16.96197046
_cell_length_c   16.91753938
_cell_angle_alpha   90.01593797
_cell_angle_beta   89.76546120
_cell_angle_gamma   89.74828942
_symmetry_Int_Tables_number   1
_chemical_formula_structural   VZnO4
_chemical_formula_sum   'V64 Zn64 O256'
_cell_volume   4850.80703489
_cell_formula_units_Z   64
loop_
 _symmetry_equiv_pos_site_id
 _symmetry_equiv_pos_as_xyz
  1  'x, y, z'
loop_
 _atom_site_type_symbol
 _atom_site_label
 _atom_site_symmetry_multiplicity
 _atom_site_fract_x
 _atom_site_fract_y
 _atom_site_fract_z
 _atom_site_occupancy
  V  V0  1  -0.01166600  0.61021001  0.10532718  1
  V  V1  1  0.00306693  -0.00698313  0.49655459  1
  V  V2  1  0.04500791  0.74005767  0.26025297  1
  V  V3  1  0.62335189  0.01820197  0.62538051  1
  V  V4  1  -0.01932394  0.61550138  0.61544440  1
  V  V5  1  0.74212749  0.24042196  0.49225454  1
  V  V6  1  0.24651623  0.62450447  0.89367274  1
  V  V7  1  0.49590819  0.64612932  0.62415906  1
  V  V8  1  0.12130047  0.75029342  0.89100934  1
  V  V9  1  0.11483855  0.01869674  0.14166971  1
  V  V10  1  0.38398728  0.86628690  0.48700904  1
  V  V11  1  0.86781461  0.36702360  -0.00271498  1
  V  V12  1  0.86709649  -0.00845236  0.89134152  1
  V  V13  1  -0.01260569  0.24337825  0.24236711  1
  V  V14  1  0.63304924  0.63511507  0.49138790  1
  V  V15  1  0.13503678  0.49897553  0.62842030  1
  V  V16  1  0.60764104  0.13329941  0.48241685  1
  V  V17  1  0.87896180  0.77988224  0.10612758  1
  V  V18  1  0.74591523  0.50597160  0.76459068  1
  V  V19  1  0.36022299  0.23938655  0.62527044  1
  V  V20  1  0.37399786  0.73181339  0.12920216  1
  V  V21  1  0.86830736  0.38542019  0.49021700  1
  V  V22  1  0.25885042  0.25120015  0.01293789  1
  V  V23  1  0.48805430  0.22171427  0.74198170  1
  V  V24  1  0.48022340  0.86707700  0.85537141  1
  V  V25  1  0.34314524  0.75496185  0.61862425  1
  V  V26  1  0.77151987  0.76288243  0.52205366  1
  V  V27  1  0.12653457  0.62568314  0.48593531  1
  V  V28  1  0.50187667  0.25667429  0.23570327  1
  V  V29  1  0.37291378  0.61087343  0.26546499  1
  V  V30  1  0.74048159  0.11538759  0.85640023  1
  V  V31  1  0.63994343  0.37948059  0.24996660  1
  V  V32  1  0.35373806  0.62249110  0.74601353  1
  V  V33  1  0.49422083  0.50024088  0.49447502  1
  V  V34  1  0.60360401  0.37872517  0.75175247  1
  V  V35  1  0.62323002  0.11652254  -0.00558503  1
  V  V36  1  0.48939686  -0.01369632  -0.01877814  1
  V  V37  1  0.60950299  0.25004556  0.87361370  1
  V  V38  1  0.87382972  0.23674776  0.63800370  1
  V  V39  1  0.76192250  0.52855783  0.28818518  1
  V  V40  1  0.62337914  0.74593051  0.86810794  1
  V  V41  1  0.26975244  0.10811023  0.88240372  1
  V  V42  1  0.13298720  0.87415477  0.74522928  1
  V  V43  1  0.64525071  0.87706678  0.73958551  1
  V  V44  1  0.50312899  0.10635563  0.12676095  1
  V  V45  1  0.78701479  0.07780001  0.29005802  1
  V  V46  1  0.40445347  -0.00607886  0.36379054  1
  V  V47  1  0.74786746  0.37667428  0.62659158  1
  V  V48  1  0.87146456  0.62173816  0.77366123  1
  V  V49  1  0.11395749  0.21525966  0.89279349  1
  V  V50  1  0.13471271  0.50506758  0.11651482  1
  V  V51  1  0.24675338  0.49869214  0.27335714  1
  V  V52  1  0.25373716  0.12811983  0.38450404  1
  V  V53  1  0.39787574  0.36964295  -0.00959410  1
  V  V54  1  0.36930345  0.13428193  0.24134133  1
  V  V55  1  0.25195202  -0.01875349  0.24671553  1
  V  V56  1  -0.01162777  0.75494347  0.75156049  1
  V  V57  1  0.12673154  0.36851593  0.24901836  1
  V  V58  1  0.69844862  0.86635570  0.12138601  1
  V  V59  1  -0.00354818  0.37983495  0.37537185  1
  V  V60  1  0.61892157  0.50190650  0.62259850  1
  V  V61  1  0.35282572  0.37774797  0.50899574  1
  V  V62  1  0.74817688  0.74517853  -0.01268085  1
  V  V63  1  0.49674926  0.36179750  0.38137134  1
  Zn  Zn64  1  0.18109339  0.19060618  0.18401406  1
  Zn  Zn65  1  0.20081325  0.19476618  0.72850758  1
  Zn  Zn66  1  0.19608790  0.67034720  0.18195485  1
  Zn  Zn67  1  0.16815570  0.68522641  0.68063061  1
  Zn  Zn68  1  0.68062931  0.20616724  0.16431506  1
  Zn  Zn69  1  0.68165501  0.19693543  0.68591266  1
  Zn  Zn70  1  0.75959835  0.72983306  0.22833026  1
  Zn  Zn71  1  0.69050405  0.69167053  0.68657723  1
  Zn  Zn72  1  0.31242805  0.31611646  0.32188676  1
  Zn  Zn73  1  0.32520174  0.29321566  0.83532915  1
  Zn  Zn74  1  0.35743923  0.82583105  0.27618551  1
  Zn  Zn75  1  0.30152184  0.80253890  0.80588647  1
  Zn  Zn76  1  0.79417501  0.25831878  0.29432000  1
  Zn  Zn77  1  0.79449245  0.30610577  0.81151093  1
  Zn  Zn78  1  0.78607583  0.90959498  0.29582317  1
  Zn  Zn79  1  0.81637638  0.82094278  0.81335159  1
  Zn  Zn80  1  0.16775168  0.44389699  0.44517432  1
  Zn  Zn81  1  0.24248769  0.45853426  0.95934501  1
  Zn  Zn82  1  0.22026292  0.98683401  0.47146949  1
  Zn  Zn83  1  0.18279657  0.92766996  0.93150283  1
  Zn  Zn84  1  0.68456477  0.43505731  0.43355868  1
  Zn  Zn85  1  0.67193224  0.43329126  0.93935834  1
  Zn  Zn86  1  0.73411386  0.97555363  0.48682188  1
  Zn  Zn87  1  0.67953915  0.93265165  0.93317358  1
  Zn  Zn88  1  0.29223269  0.03847859  0.04146022  1
  Zn  Zn89  1  0.44626604  0.06462046  0.56001113  1
  Zn  Zn90  1  0.32674261  0.55224121  0.07730133  1
  Zn  Zn91  1  0.30436434  0.56985096  0.54733658  1
  Zn  Zn92  1  0.83183716  -0.00984629  0.10486881  1
  Zn  Zn93  1  0.80461994  0.04472526  0.68597243  1
  Zn  Zn94  1  0.82057947  0.56688955  0.02559430  1
  Zn  Zn95  1  0.80835591  0.56856932  0.56371994  1
  Zn  Zn96  1  0.43512788  0.43764217  0.18548638  1
  Zn  Zn97  1  0.42187185  0.44229328  0.68008794  1
  Zn  Zn98  1  0.41350741  0.94405559  0.14686144  1
  Zn  Zn99  1  0.48734744  0.88523680  0.63877662  1
  Zn  Zn100  1  0.93388614  0.43940650  0.19485598  1
  Zn  Zn101  1  0.92458547  0.44645600  0.68386879  1
  Zn  Zn102  1  0.96023851  0.90913132  0.21589180  1
  Zn  Zn103  1  0.97319238  0.97271553  0.71877828  1
  Zn  Zn104  1  0.07233473  0.07468727  0.31579485  1
  Zn  Zn105  1  0.06762647  0.03631420  0.85182539  1
  Zn  Zn106  1  0.04714309  0.56007396  0.30048163  1
  Zn  Zn107  1  0.07112691  0.57246040  0.81005857  1
  Zn  Zn108  1  0.58426742  0.06434220  0.29948421  1
  Zn  Zn109  1  0.55437372  0.04978255  0.80638070  1
  Zn  Zn110  1  0.57719961  0.55060009  0.31974271  1
  Zn  Zn111  1  0.56214609  0.58127329  0.78639008  1
  Zn  Zn112  1  0.41379896  0.19599572  0.43238464  1
  Zn  Zn113  1  0.43580592  0.18379343  0.94336797  1
  Zn  Zn114  1  0.44487348  0.69313624  0.43706736  1
  Zn  Zn115  1  0.43599697  0.68528370  0.93074880  1
  Zn  Zn116  1  0.91752608  0.19239260  0.42445509  1
  Zn  Zn117  1  0.93394224  0.14987558  0.93362059  1
  Zn  Zn118  1  0.96730269  0.72437079  0.45055816  1
  Zn  Zn119  1  0.94513033  0.69119569  0.94622858  1
  Zn  Zn120  1  0.07002656  0.31322787  0.06302244  1
  Zn  Zn121  1  0.04113001  0.33132171  0.57828544  1
  Zn  Zn122  1  0.06281179  0.81300803  0.07956514  1
  Zn  Zn123  1  0.06505170  0.80064922  0.57638082  1
  Zn  Zn124  1  0.57498344  0.32162169  0.06869259  1
  Zn  Zn125  1  0.55519542  0.30964382  0.56767847  1
  Zn  Zn126  1  0.53736681  0.78929662  0.04388405  1
  Zn  Zn127  1  0.60250826  0.84630015  0.51742453  1
  O  O128  1  0.11663003  0.11648077  0.12517856  1
  O  O129  1  0.14417431  0.19207633  0.54320903  1
  O  O130  1  0.11890611  0.61104916  0.11763402  1
  O  O131  1  0.10319571  0.62012972  0.61058245  1
  O  O132  1  0.60887325  0.13142278  0.10458397  1
  O  O133  1  0.61988490  0.11914397  0.62820436  1
  O  O134  1  0.67662349  0.54768065  0.11886215  1
  O  O135  1  0.61065432  0.62038591  0.62743229  1
  O  O136  1  0.38594693  0.37210422  0.39740672  1
  O  O137  1  0.38558040  0.37174380  0.88708924  1
  O  O138  1  0.38567486  0.88169100  0.37314684  1
  O  O139  1  0.38224866  0.85363295  0.86942497  1
  O  O140  1  0.86773233  0.37511140  0.39061756  1
  O  O141  1  0.86569027  0.35243125  0.89356981  1
  O  O142  1  0.89685290  0.88761413  0.30388546  1
  O  O143  1  0.87558072  0.89258411  0.87937109  1
  O  O144  1  0.26754938  0.01041584  0.35399189  1
  O  O145  1  0.25653073  0.00868774  0.92705097  1
  O  O146  1  0.24310691  0.49885213  0.37222365  1
  O  O147  1  0.24256594  0.52625605  0.86902472  1
  O  O148  1  0.77529090  -0.00933240  0.37932431  1
  O  O149  1  0.74909577  0.00887816  0.87204145  1
  O  O150  1  0.75792939  0.51116525  0.38811945  1
  O  O151  1  0.72922339  0.49889066  0.86249878  1
  O  O152  1  0.23685751  0.50857053  0.14319860  1
  O  O153  1  0.23546099  0.50847837  0.61400019  1
  O  O154  1  0.23673041  1.00045298  0.13760163  1
  O  O155  1  0.30652071  1.00136723  0.67614378  1
  O  O156  1  0.72755949  0.50479708  0.08626643  1
  O  O157  1  0.73380135  0.49571226  0.63170480  1
  O  O158  1  0.71814518  0.96445425  0.12425070  1
  O  O159  1  0.72994066  0.99708965  0.60863635  1
  O  O160  1  0.00858647  0.36717228  0.25544890  1
  O  O161  1  -0.00421639  0.40847603  0.78835420  1
  O  O162  1  0.04107652  0.82348432  0.19417611  1
  O  O163  1  -0.02092905  0.85287353  0.74089065  1
  O  O164  1  0.48055875  0.36398532  0.26665079  1
  O  O165  1  0.50497461  0.39297965  0.74783934  1
  O  O166  1  0.56820095  0.84296022  0.29115550  1
  O  O167  1  0.49223063  0.87777982  0.75589069  1
  O  O168  1  0.50710833  0.13798600  0.23661172  1
  O  O169  1  0.49347519  0.12326807  0.73990563  1
  O  O170  1  0.49014879  0.57991537  0.24576533  1
  O  O171  1  0.47904412  0.62768951  0.72901733  1
  O  O172  1  1.00297375  0.14479213  0.26499926  1
  O  O173  1  1.07247271  0.13086415  0.67660985  1
  O  O174  1  1.00810558  0.64581173  0.22629707  1
  O  O175  1  0.97983175  0.62191173  0.75486444  1
  O  O176  1  0.37467508  0.25919994  0.00418432  1
  O  O177  1  0.37333288  0.26649862  0.51699567  1
  O  O178  1  0.43275365  0.73522387  0.03750705  1
  O  O179  1  0.36980779  0.76020903  0.49653647  1
  O  O180  1  0.85794936  0.26495554  0.01355127  1
  O  O181  1  0.85531631  0.25705741  0.50994028  1
  O  O182  1  0.85610034  0.75629195  -0.01097709  1
  O  O183  1  0.87061451  0.77128231  0.50988681  1
  O  O184  1  0.11301050  0.24512268  0.50342935  1
  O  O185  1  0.14130649  0.26278733  0.98804222  1
  O  O186  1  0.08128621  0.72660679  0.49580483  1
  O  O187  1  0.11270447  0.75520896  0.98984947  1
  O  O188  1  0.62967719  0.24065371  0.51405941  1
  O  O189  1  0.59544839  0.22892189  0.97499973  1
  O  O190  1  0.61590863  0.73172012  0.50825129  1
  O  O191  1  0.62651455  0.74810584  0.97580861  1
  O  O192  1  0.49787220  0.25336784  0.13559028  1
  O  O193  1  0.48688751  0.25395944  0.64030404  1
  O  O194  1  0.57033856  0.67621398  0.13029901  1
  O  O195  1  0.49875992  0.74243583  0.62005110  1
  O  O196  1  1.01943782  0.25227352  0.14400145  1
  O  O197  1  0.97405692  0.25416466  0.62168009  1
  O  O198  1  0.97405059  0.73388205  0.07996497  1
  O  O199  1  0.99650896  0.72838788  0.64646845  1
  O  O200  1  -0.01683282  0.26829802  0.36226731  1
  O  O201  1  0.01324518  0.22061209  0.90441455  1
  O  O202  1  0.00368339  0.76216315  0.34980419  1
  O  O203  1  0.01031979  0.73950125  0.86346320  1
  O  O204  1  0.49639543  0.26079949  0.37362937  1
  O  O205  1  0.50027345  0.23565989  0.85327272  1
  O  O206  1  0.52994515  0.76108238  0.38823779  1
  O  O207  1  0.50988994  0.76139874  0.87366062  1
  O  O208  1  0.26242308  0.09564945  0.48011372  1
  O  O209  1  0.26519244  0.14146970  1.00043081  1
  O  O210  1  0.22742375  0.63408394  0.48908597  1
  O  O211  1  0.26803907  0.62231287  0.99046310  1
  O  O212  1  0.73491672  0.14043536  0.49509981  1
  O  O213  1  0.72078734  0.12013268  0.98683000  1
  O  O214  1  0.74113331  0.64657631  0.50926471  1
  O  O215  1  0.74557913  0.64434439  0.99443024  1
  O  O216  1  0.26423886  0.35189216  -0.01578517  1
  O  O217  1  0.25558480  0.38113619  0.49365433  1
  O  O218  1  0.24519236  0.86120801  0.02288494  1
  O  O219  1  0.29043999  0.90526125  0.50197825  1
  O  O220  1  0.76268875  0.37924313  -0.00480035  1
  O  O221  1  0.74726125  0.37224528  0.51212551  1
  O  O222  1  0.72413285  0.86112689  0.01066538  1
  O  O223  1  0.71974577  0.85315951  0.49056860  1
  O  O224  1  0.13508403  0.49362240  0.25115389  1
  O  O225  1  0.12852350  0.52103336  0.72885585  1
  O  O226  1  0.14484178  1.00691238  0.25060774  1
  O  O227  1  0.08371097  0.97016303  0.76259698  1
  O  O228  1  0.66034417  0.48993235  0.26510414  1
  O  O229  1  0.62624555  0.49796885  0.74259730  1
  O  O230  1  0.68932443  1.02757707  0.28365883  1
  O  O231  1  0.62342893  0.98958777  0.73543933  1
  O  O232  1  0.36545801  0.00329704  0.24132088  1
  O  O233  1  0.35633467  0.00004194  0.72822320  1
  O  O234  1  0.35620278  0.49778539  0.25283663  1
  O  O235  1  0.36689858  0.52343372  0.73568330  1
  O  O236  1  0.84279461  0.02469561  0.22087949  1
  O  O237  1  1.01509632  0.11425434  0.71953248  1
  O  O238  1  0.84093826  0.48561875  0.24185380  1
  O  O239  1  0.85350052  0.50346643  0.75775705  1
  O  O240  1  0.10471005  0.38001052  0.37097969  1
  O  O241  1  0.17527999  0.39365043  0.80016414  1
  O  O242  1  0.16054391  0.88053295  0.38733307  1
  O  O243  1  0.12251712  0.85826508  0.86838179  1
  O  O244  1  0.60580924  0.38143662  0.36227269  1
  O  O245  1  0.61962861  0.35697745  0.86761746  1
  O  O246  1  0.51607336  0.79433981  0.31355613  1
  O  O247  1  0.61508292  0.87468520  0.85143122  1
  O  O248  1  0.39368832  0.12045943  0.13809894  1
  O  O249  1  0.37597409  0.14144342  0.61080112  1
  O  O250  1  0.38528268  0.62224475  0.14430994  1
  O  O251  1  0.37762738  0.64102050  0.61530044  1
  O  O252  1  0.89807717  0.12435165  0.10427014  1
  O  O253  1  0.85781783  0.13752532  0.63198385  1
  O  O254  1  0.88608516  0.60300317  0.11199459  1
  O  O255  1  0.87727475  0.61543380  0.64520505  1
  O  O256  1  0.24487190  0.25223109  0.11243273  1
  O  O257  1  0.26011973  0.24283352  0.64633571  1
  O  O258  1  0.27505574  0.72837459  0.11706436  1
  O  O259  1  0.24421807  0.75152473  0.61425767  1
  O  O260  1  0.67982163  0.28443483  0.08659162  1
  O  O261  1  0.74968214  0.26320189  0.62106618  1
  O  O262  1  0.76144721  0.76280054  0.10319820  1
  O  O263  1  0.75638819  0.75772142  0.62116811  1
  O  O264  1  0.29085231  0.22498236  0.38711684  1
  O  O265  1  0.24896247  0.22373985  0.88571887  1
  O  O266  1  0.17537983  0.81607809  0.41741713  1
  O  O267  1  0.23135508  0.74137569  0.87452916  1
  O  O268  1  0.74127790  0.26553479  0.39567295  1
  O  O269  1  0.71565464  0.23314359  0.85979998  1
  O  O270  1  0.79377895  0.73524690  0.38213354  1
  O  O271  1  0.73658691  0.76321989  0.87894010  1
  O  O272  1  -0.04618310  0.13311412  0.05658374  1
  O  O273  1  -0.02069896  0.09649388  0.48721122  1
  O  O274  1  -0.00078991  0.60408706  0.00414600  1
  O  O275  1  -0.03345475  0.62431408  0.51648644  1
  O  O276  1  0.49451714  0.10610659  0.01091818  1
  O  O277  1  0.50308526  0.14181582  0.49427889  1
  O  O278  1  0.49316711  0.58826595  -0.01861465  1
  O  O279  1  0.50431256  0.61892688  0.51101809  1
  O  O280  1  0.50369629  0.38109300  0.49209071  1
  O  O281  1  0.49881143  0.36674837  0.99967893  1
  O  O282  1  0.48944054  0.87309532  0.51022454  1
  O  O283  1  0.50689836  0.88458573  0.97748060  1
  O  O284  1  0.98024751  0.37240889  0.48720400  1
  O  O285  1  0.97244492  0.35997597  0.99971071  1
  O  O286  1  1.02164180  0.88991689  0.50239101  1
  O  O287  1  1.05285949  0.91582319  1.02254473  1
  O  O288  1  0.50167080  0.49325674  0.39091916  1
  O  O289  1  0.53622416  0.53324865  0.94307761  1
  O  O290  1  0.49909936  0.99425045  0.33245598  1
  O  O291  1  0.48014055  0.98850914  0.87679791  1
  O  O292  1  0.98114366  0.47820060  0.35257541  1
  O  O293  1  1.01413521  0.45899952  0.84030327  1
  O  O294  1  1.02380617  0.99563024  0.39178048  1
  O  O295  1  0.96404975  1.04075305  0.89602777  1
  O  O296  1  0.02025544  -0.00776516  0.16583928  1
  O  O297  1  -0.00884703  0.00127410  0.59965135  1
  O  O298  1  0.01262754  0.50810554  0.13723500  1
  O  O299  1  0.00008547  0.51241099  0.63205803  1
  O  O300  1  0.51360968  0.00819730  0.13964139  1
  O  O301  1  0.51620780  -0.00148366  0.61897071  1
  O  O302  1  0.50605696  0.53201565  0.18167236  1
  O  O303  1  0.50810977  0.50144939  0.61517687  1
  O  O304  1  0.23754269  0.38277809  0.26538204  1
  O  O305  1  0.23753488  0.37719968  0.76560833  1
  O  O306  1  0.25610836  0.88284907  0.25317717  1
  O  O307  1  0.23237150  0.88117912  0.75600269  1
  O  O308  1  0.73410324  0.35022213  0.24393713  1
  O  O309  1  0.73336497  0.38718457  0.74470701  1
  O  O310  1  0.72711538  0.84021182  0.22777340  1
  O  O311  1  0.74433185  0.87895865  0.74212321  1
  O  O312  1  0.26620452  0.13195797  0.24768622  1
  O  O313  1  0.24063867  0.10343913  0.78383547  1
  O  O314  1  0.26302568  0.60991720  0.26128849  1
  O  O315  1  0.25263368  0.63270580  0.74131856  1
  O  O316  1  0.74982228  0.16264525  0.23775692  1
  O  O317  1  0.73507988  0.11871268  0.75296479  1
  O  O318  1  0.75114062  0.62600691  0.26356799  1
  O  O319  1  0.75488438  0.61385368  0.74910681  1
  O  O320  1  0.38571906  0.10824401  0.35089022  1
  O  O321  1  0.37047715  0.11532693  0.87765460  1
  O  O322  1  0.39551109  0.62242433  0.36274917  1
  O  O323  1  0.35862222  0.64356331  0.85445325  1
  O  O324  1  0.84709372  0.13237292  0.35427946  1
  O  O325  1  0.83638576  0.13686764  0.87884131  1
  O  O326  1  0.85449760  0.69292403  0.37230235  1
  O  O327  1  0.87290972  0.61819416  0.87271685  1
  O  O328  1  0.11937689  0.38757716  0.14459667  1
  O  O329  1  0.11650724  0.39743242  0.62158558  1
  O  O330  1  0.20586845  0.84824287  0.08498424  1
  O  O331  1  0.11973572  0.86883765  0.64455972  1
  O  O332  1  0.59728186  0.39581934  0.15959384  1
  O  O333  1  0.62615335  0.38379553  0.63272306  1
  O  O334  1  0.59929046  0.84863739  0.12051451  1
  O  O335  1  0.61369631  0.87657088  0.63635423  1
  O  O336  1  0.12941962  0.26721269  0.25470709  1
  O  O337  1  0.12390327  0.24615803  0.79446144  1
  O  O338  1  0.14485934  0.72682073  0.26838553  1
  O  O339  1  0.10869880  0.75963132  0.75555425  1
  O  O340  1  0.60482815  0.26502156  0.25070572  1
  O  O341  1  0.60110595  0.25881045  0.74929817  1
  O  O342  1  0.60977768  0.68075142  0.19191476  1
  O  O343  1  0.63183338  0.76622793  0.75446106  1
  O  O344  1  0.38583644  0.23744853  0.25412676  1
  O  O345  1  0.38315372  0.24968412  0.74275726  1
  O  O346  1  0.38216031  0.71861590  0.24480956  1
  O  O347  1  0.36124375  0.74239962  0.72343739  1
  O  O348  1  0.88825122  0.26081590  0.23280729  1
  O  O349  1  0.86198294  0.25750515  0.73728958  1
  O  O350  1  0.87585677  0.74889853  0.20126818  1
  O  O351  1  0.87783675  0.73342415  0.76534024  1
  O  O352  1  0.38293097  0.48746632  0.51254633  1
  O  O353  1  0.35731129  0.47686241  0.99868020  1
  O  O354  1  0.40725664  1.00101171  0.46577794  1
  O  O355  1  0.39711791  0.98371738  1.03387645  1
  O  O356  1  0.86231448  0.48334740  0.50931334  1
  O  O357  1  0.87230051  0.47285896  0.98253794  1
  O  O358  1  0.90314081  0.96863860  0.47989704  1
  O  O359  1  0.84800189  1.00230731  0.99151093  1
  O  O360  1  0.11483296  -0.03190066  0.03904267  1
  O  O361  1  0.10896693  0.00808902  0.50778555  1
  O  O362  1  0.14229669  0.48178191  0.01945860  1
  O  O363  1  0.11304186  0.51731835  0.51228858  1
  O  O364  1  0.60121858  0.00867497  -0.01337812  1
  O  O365  1  0.62405695  0.02682003  0.50488660  1
  O  O366  1  0.59511662  0.50371771  -0.00877038  1
  O  O367  1  0.61988583  0.51277527  0.50852047  1
  O  O368  1  0.37761482  0.39360495  0.10139946  1
  O  O369  1  0.36815632  0.36769044  0.61563346  1
  O  O370  1  0.39854513  0.83451467  0.16102991  1
  O  O371  1  0.37623139  0.85429378  0.61286101  1
  O  O372  1  0.87038684  0.38330913  0.10126286  1
  O  O373  1  0.85950548  0.37337330  0.62193834  1
  O  O374  1  0.89104148  0.88149162  0.11381739  1
  O  O375  1  0.87572160  1.00451425  0.76416905  1
  O  O376  1  0.15465820  0.13311905  0.36902687  1
  O  O377  1  0.13345847  0.11306822  0.89971957  1
  O  O378  1  0.09786055  0.61050882  0.39023531  1
  O  O379  1  0.13338534  0.63664707  0.87926867  1
  O  O380  1  0.61461292  0.13782917  0.38466975  1
  O  O381  1  0.61943986  0.12212750  0.87435053  1
  O  O382  1  0.62268663  0.62588689  0.39246389  1
  O  O383  1  0.61895531  0.64626164  0.85504088  1
