# generated using pymatgen
data_VZnO4
_symmetry_space_group_name_H-M   'P 1'
_cell_length_a   16.96060240
_cell_length_b   16.98134496
_cell_length_c   16.98375359
_cell_angle_alpha   90.18766789
_cell_angle_beta   90.26199632
_cell_angle_gamma   89.86062085
_symmetry_Int_Tables_number   1
_chemical_formula_structural   VZnO4
_chemical_formula_sum   'V64 Zn64 O256'
_cell_volume   4891.46441521
_cell_formula_units_Z   64
loop_
 _symmetry_equiv_pos_site_id
 _symmetry_equiv_pos_as_xyz
  1  'x, y, z'
loop_
 _atom_site_type_symbol
 _atom_site_label
 _atom_site_symmetry_multiplicity
 _atom_site_fract_x
 _atom_site_fract_y
 _atom_site_fract_z
 _atom_site_occupancy
  V  V0  1  0.48665799  0.36863553  0.39686249  1
  V  V1  1  0.12773972  0.12803509  0.50744937  1
  V  V2  1  0.11879893  0.25208854  0.86751766  1
  V  V3  1  0.49847551  0.76102124  0.74973458  1
  V  V4  1  0.10758686  0.50696511  0.12624554  1
  V  V5  1  0.71172191  0.61546096  0.84524945  1
  V  V6  1  0.85760023  0.48398977  0.34771785  1
  V  V7  1  0.38602869  0.00533364  0.87757582  1
  V  V8  1  0.88610236  0.24212417  0.12498089  1
  V  V9  1  0.25395237  0.12267980  0.37259919  1
  V  V10  1  0.23584485  0.75002793  0.00672919  1
  V  V11  1  0.73575364  0.24049468  -0.00826166  1
  V  V12  1  0.60727331  0.74833662  0.88369126  1
  V  V13  1  0.53499363  0.87409121  0.33693506  1
  V  V14  1  0.37690134  0.14152140  0.72733759  1
  V  V15  1  0.87035461  0.00945519  0.86130483  1
  V  V16  1  0.88355363  0.12303704  0.23826075  1
  V  V17  1  0.26588322  0.88648418  0.11638643  1
  V  V18  1  0.12797361  0.37149399  0.24081156  1
  V  V19  1  0.11900484  0.25934485  0.37259211  1
  V  V20  1  0.74204044  -0.00687536  0.22334350  1
  V  V21  1  0.74929877  0.36332178  0.14576766  1
  V  V22  1  0.12330117  0.50196340  0.59929244  1
  V  V23  1  0.36385272  0.75862064  0.62315301  1
  V  V24  1  0.73460353  0.86734336  0.66968932  1
  V  V25  1  0.25998084  0.50719387  0.25135256  1
  V  V26  1  0.01845668  0.85917337  0.37134287  1
  V  V27  1  0.88761048  0.88055327  -0.00251817  1
  V  V28  1  0.38347001  0.12076879  0.24733431  1
  V  V29  1  0.87875389  0.85726618  0.49213603  1
  V  V30  1  0.50031807  0.62455309  0.60829735  1
  V  V31  1  0.12484500  0.86149662  0.23789091  1
  V  V32  1  0.26052876  0.37839652  0.62324348  1
  V  V33  1  -0.00514837  0.47816597  0.47210493  1
  V  V34  1  0.62261526  0.23899079  0.37513864  1
  V  V35  1  0.21982411  0.63086229  0.38725698  1
  V  V36  1  -0.01351760  0.25332457  0.74217892  1
  V  V37  1  0.24954989  0.25634338  0.00272093  1
  V  V38  1  0.26632278  0.25628185  0.50092080  1
  V  V39  1  0.25198931  0.12542917  0.86354611  1
  V  V40  1  0.37292494  0.89240738  0.49887685  1
  V  V41  1  0.73517175  0.36250313  0.62482918  1
  V  V42  1  0.36375027  0.61546639  0.75722818  1
  V  V43  1  -0.04076114  0.60873570  0.60714234  1
  V  V44  1  0.60144849  0.36293338  0.24934992  1
  V  V45  1  0.37406396  0.38702601  -0.01913459  1
  V  V46  1  0.62519720  0.38524154  0.77233676  1
  V  V47  1  0.00577997  0.00352783  0.49392568  1
  V  V48  1  0.38370569  0.52013777  0.39077200  1
  V  V49  1  0.49968791  0.26665107  0.75138600  1
  V  V50  1  0.22431167  0.75725800  0.50212044  1
  V  V51  1  0.50649368  0.12482614  0.10532066  1
  V  V52  1  0.87134539  0.00845107  0.37172627  1
  V  V53  1  0.61230051  0.49564831  0.12302816  1
  V  V54  1  0.37679135  0.26221104  0.13129285  1
  V  V55  1  0.11566691  0.87278437  0.75534773  1
  V  V56  1  0.60717235  0.12741404  0.51363568  1
  V  V57  1  0.12262131  0.38606696  0.74807929  1
  V  V58  1  -0.00497691  0.65471643  0.12270474  1
  V  V59  1  0.87884583  0.64068259  0.25615495  1
  V  V60  1  0.87995031  0.38123421  -0.00483230  1
  V  V61  1  -0.02574428  0.12862850  0.62292963  1
  V  V62  1  0.11762716  0.12409603  0.00735341  1
  V  V63  1  0.23433486  0.00939028  0.23832416  1
  Zn  Zn64  1  0.18830570  0.19128284  0.18445234  1
  Zn  Zn65  1  0.18791816  0.19837448  0.68584527  1
  Zn  Zn66  1  0.25104987  0.71612861  0.21761207  1
  Zn  Zn67  1  0.18584531  0.68010126  0.68178172  1
  Zn  Zn68  1  0.69479601  0.17744921  0.18761410  1
  Zn  Zn69  1  0.67503989  0.20837429  0.68075860  1
  Zn  Zn70  1  0.69074211  0.66261783  0.18608356  1
  Zn  Zn71  1  0.69520975  0.69027544  0.67158183  1
  Zn  Zn72  1  0.30905194  0.31429607  0.31204570  1
  Zn  Zn73  1  0.30718893  0.31624205  0.80947189  1
  Zn  Zn74  1  0.36714630  0.81223677  0.32230802  1
  Zn  Zn75  1  0.30861549  0.81394587  0.81568463  1
  Zn  Zn76  1  0.82968572  0.28722065  0.33782308  1
  Zn  Zn77  1  0.80484256  0.31920807  0.81800970  1
  Zn  Zn78  1  0.82341437  0.82633574  0.30753393  1
  Zn  Zn79  1  0.81265997  0.79732163  0.85759286  1
  Zn  Zn80  1  0.20061267  0.43664208  0.43177093  1
  Zn  Zn81  1  0.16599824  0.42458224  0.94613631  1
  Zn  Zn82  1  0.19563513  0.93865501  0.43086382  1
  Zn  Zn83  1  0.19467523  0.95008357  0.93820907  1
  Zn  Zn84  1  0.70843197  0.38619997  0.42312063  1
  Zn  Zn85  1  0.70396296  0.44019848  0.95309769  1
  Zn  Zn86  1  0.69254970  0.93014719  0.43044251  1
  Zn  Zn87  1  0.70464478  0.91589106  0.87197438  1
  Zn  Zn88  1  0.31540228  0.07106907  0.05662732  1
  Zn  Zn89  1  0.28997882  0.05929197  0.58044847  1
  Zn  Zn90  1  0.26408898  0.54417319  0.03933991  1
  Zn  Zn91  1  0.31048197  0.56893526  0.56399776  1
  Zn  Zn92  1  0.80923812  0.05496906  0.04498901  1
  Zn  Zn93  1  0.80490352  0.04076971  0.56395175  1
  Zn  Zn94  1  0.83434463  0.53202744  0.12253767  1
  Zn  Zn95  1  0.80598881  0.50935952  0.54070695  1
  Zn  Zn96  1  0.42993980  0.44319377  0.19049131  1
  Zn  Zn97  1  0.44715208  0.44342583  0.68623354  1
  Zn  Zn98  1  0.44516787  0.94710008  0.18836557  1
  Zn  Zn99  1  0.40006872  0.93283676  0.71635316  1
  Zn  Zn100  1  0.93733181  0.41757645  0.20721877  1
  Zn  Zn101  1  0.95106443  0.45284961  0.69300193  1
  Zn  Zn102  1  0.92536825  0.91744209  0.19665545  1
  Zn  Zn103  1  0.90564476  0.94761384  0.66535215  1
  Zn  Zn104  1  0.06331692  0.07261558  0.31418626  1
  Zn  Zn105  1  0.04543432  0.07530888  0.81898119  1
  Zn  Zn106  1  0.06112504  0.56516699  0.29957204  1
  Zn  Zn107  1  0.04643295  0.58693565  0.77952652  1
  Zn  Zn108  1  0.56565335  0.05486014  0.31237880  1
  Zn  Zn109  1  0.54239084  0.07392032  0.80087257  1
  Zn  Zn110  1  0.57816398  0.53148829  0.32657871  1
  Zn  Zn111  1  0.57193298  0.58058799  0.74779857  1
  Zn  Zn112  1  0.44181232  0.17914732  0.43506869  1
  Zn  Zn113  1  0.43800953  0.19796453  0.93389257  1
  Zn  Zn114  1  0.44306046  0.71053971  0.44107197  1
  Zn  Zn115  1  0.40053549  0.71161226  0.92403619  1
  Zn  Zn116  1  0.93952176  0.19114139  0.43483362  1
  Zn  Zn117  1  0.93200031  0.19225510  0.93704337  1
  Zn  Zn118  1  0.94712219  0.67002387  0.42839289  1
  Zn  Zn119  1  1.00340943  0.71658302  0.92864876  1
  Zn  Zn120  1  0.06093917  0.31164344  0.06414727  1
  Zn  Zn121  1  0.06231788  0.31108699  0.56302476  1
  Zn  Zn122  1  0.06070316  0.81919722  0.05983822  1
  Zn  Zn123  1  0.02554303  0.80102220  0.57164629  1
  Zn  Zn124  1  0.55839016  0.32113132  0.05024898  1
  Zn  Zn125  1  0.55496172  0.30627346  0.56772346  1
  Zn  Zn126  1  0.54784483  0.77185547  0.06986980  1
  Zn  Zn127  1  0.53382645  0.85675907  0.60749244  1
  O  O128  1  0.12789368  0.13824236  0.10707126  1
  O  O129  1  0.12607841  0.13594230  0.60744226  1
  O  O130  1  0.10121847  0.60835597  0.13302346  1
  O  O131  1  0.12256113  0.59815372  0.63398516  1
  O  O132  1  0.60137941  0.14328668  0.13343863  1
  O  O133  1  0.61325147  0.13862670  0.61267355  1
  O  O134  1  0.63443578  0.59456087  0.11992147  1
  O  O135  1  0.60141882  0.63474812  0.63957923  1
  O  O136  1  0.38511523  0.37230463  0.37659934  1
  O  O137  1  0.36119051  0.38471912  0.88127992  1
  O  O138  1  0.35740387  0.89063347  0.39767083  1
  O  O139  1  0.36515161  0.91093218  0.83717177  1
  O  O140  1  0.88653247  0.38850231  0.32698263  1
  O  O141  1  0.86376853  0.38184622  0.89488861  1
  O  O142  1  0.90040435  0.88641565  0.37705207  1
  O  O143  1  0.88691832  0.89114381  0.87406303  1
  O  O144  1  0.24425183  0.01589334  0.35819648  1
  O  O145  1  0.24751603  0.02365944  0.86674923  1
  O  O146  1  0.26182438  0.51803863  0.37803010  1
  O  O147  1  0.23246986  0.51381331  0.87287688  1
  O  O148  1  0.77259632  -0.00668066  0.37192326  1
  O  O149  1  0.76794886  0.00178040  0.87927258  1
  O  O150  1  0.75995144  0.47619017  0.36556812  1
  O  O151  1  0.74031934  0.53534393  0.89963239  1
  O  O152  1  0.25570151  0.52009832  0.15263150  1
  O  O153  1  0.23639032  0.48576570  0.60788926  1
  O  O154  1  0.25029142  1.00312396  0.13123079  1
  O  O155  1  0.21318395  1.01063186  0.63899565  1
  O  O156  1  0.73731435  0.46788065  0.13205767  1
  O  O157  1  0.79316413  0.46461703  0.65657915  1
  O  O158  1  0.75057174  0.99558086  0.12349509  1
  O  O159  1  0.78853196  0.95237787  0.63582737  1
  O  O160  1  0.03015106  0.37295528  0.25389945  1
  O  O161  1  0.01177843  0.36263398  0.73534557  1
  O  O162  1  0.01394193  0.87699905  0.25954854  1
  O  O163  1  0.01611346  0.85374655  0.77840380  1
  O  O164  1  0.50129597  0.36502792  0.25018710  1
  O  O165  1  0.50982289  0.37750014  0.75501489  1
  O  O166  1  0.51617432  0.87273747  0.23511972  1
  O  O167  1  0.49180743  0.86267486  0.73031114  1
  O  O168  1  0.48311721  0.12251753  0.25547630  1
  O  O169  1  0.48472445  0.14799692  0.73949309  1
  O  O170  1  0.54902351  0.64796728  0.28796910  1
  O  O171  1  0.47766389  0.64465678  0.73309729  1
  O  O172  1  0.98373072  0.11701137  0.24628258  1
  O  O173  1  1.00005203  0.13603773  0.72874004  1
  O  O174  1  0.99018117  0.62405647  0.23708370  1
  O  O175  1  0.95997673  0.56627501  0.71114241  1
  O  O176  1  0.36132730  0.26093851  0.00307669  1
  O  O177  1  0.36307448  0.24041010  0.49774882  1
  O  O178  1  0.42997940  0.74416216  0.03395187  1
  O  O179  1  0.36448941  0.76673282  0.51230486  1
  O  O180  1  0.87062616  0.25405024  0.01636761  1
  O  O181  1  0.86471947  0.26859668  0.44401047  1
  O  O182  1  0.97836570  0.82115410  -0.02068813  1
  O  O183  1  0.88803920  0.75962300  0.47288360  1
  O  O184  1  0.12967109  0.24251109  0.48851951  1
  O  O185  1  0.13346156  0.25304732  0.98881233  1
  O  O186  1  0.12697242  0.75932797  0.51977043  1
  O  O187  1  0.13700864  0.75767452  0.99093804  1
  O  O188  1  0.61292059  0.23509555  0.49148101  1
  O  O189  1  0.63659239  0.25914689  0.99862285  1
  O  O190  1  0.70578671  0.73175008  0.45111247  1
  O  O191  1  0.59443552  0.72179245  0.97919894  1
  O  O192  1  0.47836204  0.24560892  0.11754213  1
  O  O193  1  0.48681878  0.26845504  0.64654339  1
  O  O194  1  0.49105333  0.68529022  0.13599790  1
  O  O195  1  0.48015926  0.75025236  0.62983488  1
  O  O196  1  0.98420181  0.25307606  0.13032148  1
  O  O197  1  0.99747533  0.23966836  0.62823660  1
  O  O198  1  1.00630614  0.75157732  0.13768362  1
  O  O199  1  0.98664983  0.70447954  0.61928709  1
  O  O200  1  0.02213917  0.24253453  0.36785319  1
  O  O201  1  0.00896429  0.24112652  0.85291776  1
  O  O202  1  0.01553790  0.76203202  0.37998822  1
  O  O203  1  0.06528687  0.66941293  0.84757524  1
  O  O204  1  0.50666975  0.26120302  0.38126641  1
  O  O205  1  0.48767951  0.25511273  0.85469765  1
  O  O206  1  0.48029094  0.79120305  0.37174805  1
  O  O207  1  0.49264258  0.75246089  0.85823509  1
  O  O208  1  0.24052296  0.13470664  0.49399742  1
  O  O209  1  0.24238566  0.14089659  0.98474582  1
  O  O210  1  0.24380803  0.63520488  0.49287842  1
  O  O211  1  0.25940530  0.65350422  1.02079100  1
  O  O212  1  0.71622043  0.08183808  0.49972860  1
  O  O213  1  0.74788117  0.14084345  1.00927634  1
  O  O214  1  0.71101027  0.58353999  0.51666049  1
  O  O215  1  0.83193072  0.68426853  1.00409743  1
  O  O216  1  0.25154981  0.35994402  -0.00700744  1
  O  O217  1  0.25372183  0.36334706  0.50579499  1
  O  O218  1  0.24288109  0.88338354  0.01498050  1
  O  O219  1  0.24502169  0.86098201  0.49898783  1
  O  O220  1  0.76301067  0.35870908  0.01644796  1
  O  O221  1  0.74841930  0.40486751  0.52646965  1
  O  O222  1  0.79590383  0.84178989  -0.02888758  1
  O  O223  1  0.77970288  0.87495163  0.48854847  1
  O  O224  1  0.13309582  0.49106674  0.23841480  1
  O  O225  1  0.11023972  0.48595718  0.75082665  1
  O  O226  1  0.13356788  1.01205054  0.24377710  1
  O  O227  1  0.10378153  0.97521893  0.75569887  1
  O  O228  1  0.62412392  0.46999865  0.24330346  1
  O  O229  1  0.62256267  0.48216392  0.74433173  1
  O  O230  1  0.64499002  1.00558524  0.24709239  1
  O  O231  1  0.57397572  1.01365687  0.69217463  1
  O  O232  1  0.36230874  0.01882714  0.24433186  1
  O  O233  1  0.37769282  0.03616469  0.75629683  1
  O  O234  1  0.36413128  0.49981630  0.26725930  1
  O  O235  1  0.37788124  0.51752533  0.74029210  1
  O  O236  1  0.87585280  0.00299022  0.25688341  1
  O  O237  1  0.88706952  -0.00135735  0.76088334  1
  O  O238  1  0.87292354  0.50904683  0.24032844  1
  O  O239  1  0.92289020  0.53017302  0.88359023  1
  O  O240  1  0.13389374  0.36194480  0.37359914  1
  O  O241  1  0.12658284  0.36767095  0.85789609  1
  O  O242  1  0.12170088  0.88452410  0.35701384  1
  O  O243  1  0.13542962  0.87748509  0.85871877  1
  O  O244  1  0.60366858  0.37292022  0.36639282  1
  O  O245  1  0.63732876  0.38729184  0.87032410  1
  O  O246  1  0.63298654  0.86185613  0.36571671  1
  O  O247  1  0.62045339  0.84842326  0.88881977  1
  O  O248  1  0.37934507  0.13592329  0.13269633  1
  O  O249  1  0.36082931  0.13366804  0.62977275  1
  O  O250  1  0.42696081  0.68233319  0.09277346  1
  O  O251  1  0.37851698  0.64104434  0.62324398  1
  O  O252  1  0.87643685  0.13174088  0.12821613  1
  O  O253  1  0.87558036  0.12522754  0.61182475  1
  O  O254  1  0.88633725  0.63340157  0.13846712  1
  O  O255  1  0.86074116  0.60274260  0.58795579  1
  O  O256  1  0.25913283  0.24410624  0.10704814  1
  O  O257  1  0.24323973  0.26504145  0.60879405  1
  O  O258  1  0.25151865  0.77694507  0.11421332  1
  O  O259  1  0.25518387  0.74061947  0.61149665  1
  O  O260  1  0.75559696  0.25231872  0.12089410  1
  O  O261  1  0.75386555  0.26312607  0.61931222  1
  O  O262  1  0.70369690  0.76823408  0.13037565  1
  O  O263  1  0.76128997  0.77424688  0.63784098  1
  O  O264  1  0.24650520  0.24507515  0.38853907  1
  O  O265  1  0.23893698  0.24668080  0.88008506  1
  O  O266  1  0.23613721  0.73621477  0.39170602  1
  O  O267  1  0.29420010  0.76727950  0.91817034  1
  O  O268  1  0.72049484  0.27309094  0.38574494  1
  O  O269  1  0.75933615  0.24807075  0.89338471  1
  O  O270  1  0.73764969  0.72384145  0.38690755  1
  O  O271  1  0.71793677  0.72095126  0.87420638  1
  O  O272  1  0.01987955  0.14086656  -0.00962695  1
  O  O273  1  0.00890674  0.12742727  0.50576732  1
  O  O274  1  -0.00502165  0.64461096  0.02213534  1
  O  O275  1  -0.00672804  0.59492890  0.50152644  1
  O  O276  1  0.49719058  0.13359031  0.00541844  1
  O  O277  1  0.51041094  0.10795821  0.49042340  1
  O  O278  1  0.48428274  0.58119852  -0.00793196  1
  O  O279  1  0.50341037  0.64476069  0.50992479  1
  O  O280  1  0.49714268  0.37484860  0.49466506  1
  O  O281  1  0.47252033  0.37374040  0.99940928  1
  O  O282  1  0.47387142  0.88679255  0.51646718  1
  O  O283  1  0.53066707  0.89435654  1.02975076  1
  O  O284  1  1.00758488  0.37971592  0.49194436  1
  O  O285  1  0.98164053  0.36409994  1.00268010  1
  O  O286  1  1.01254252  0.88659408  0.48059480  1
  O  O287  1  1.01573767  0.97501468  1.06270570  1
  O  O288  1  0.48619213  0.48365288  0.37407663  1
  O  O289  1  0.50514110  0.53217428  0.94389695  1
  O  O290  1  0.51011991  0.96894324  0.36420772  1
  O  O291  1  0.48796186  1.01304293  0.87502282  1
  O  O292  1  1.01528523  0.49066962  0.37433704  1
  O  O293  1  0.99451064  0.51834720  0.89126127  1
  O  O294  1  0.99741172  1.00601599  0.38334064  1
  O  O295  1  0.99006655  0.99976304  0.87743485  1
  O  O296  1  -0.00185134  0.01012743  0.12402283  1
  O  O297  1  -0.00862332  0.02047567  0.60655835  1
  O  O298  1  0.01218423  0.48160222  0.12544594  1
  O  O299  1  0.01121690  0.49233139  0.59576004  1
  O  O300  1  0.49204515  0.02624811  0.12372173  1
  O  O301  1  0.51917925  -0.00133816  0.64408546  1
  O  O302  1  0.51117623  0.49577065  0.13587609  1
  O  O303  1  0.49034350  0.52452505  0.61744400  1
  O  O304  1  0.24182593  0.39904475  0.26680868  1
  O  O305  1  0.23276713  0.37013258  0.73253416  1
  O  O306  1  0.23685350  0.89758596  0.23498665  1
  O  O307  1  0.22036973  0.87510080  0.74349027  1
  O  O308  1  0.74227490  0.35360189  0.24449170  1
  O  O309  1  0.72887974  0.36025300  0.74372339  1
  O  O310  1  0.76460769  0.89301707  0.24499945  1
  O  O311  1  0.74698981  0.86014743  0.77319578  1
  O  O312  1  0.25260411  0.12086143  0.25248371  1
  O  O313  1  0.25765028  0.14347526  0.75861701  1
  O  O314  1  0.24052012  0.61577556  0.27637506  1
  O  O315  1  0.26311564  0.62989989  0.74361201  1
  O  O316  1  0.76839028  0.10363731  0.24137838  1
  O  O317  1  0.70468137  0.10928457  0.75265986  1
  O  O318  1  0.77574210  0.63018791  0.24621613  1
  O  O319  1  0.73888919  0.61447455  0.74854871  1
  O  O320  1  0.36297604  0.13766422  0.35792202  1
  O  O321  1  0.36024170  0.12620405  0.87441013  1
  O  O322  1  0.39172490  0.61914406  0.38294440  1
  O  O323  1  0.37627055  0.62441192  0.85806050  1
  O  O324  1  0.87966746  0.11195538  0.36351712  1
  O  O325  1  0.88505527  0.10997098  0.87734644  1
  O  O326  1  0.88722270  0.60022824  0.35687405  1
  O  O327  1  0.84407035  0.65406458  0.93797289  1
  O  O328  1  0.13315004  0.37156529  0.13717190  1
  O  O329  1  0.12828923  0.38720589  0.62939580  1
  O  O330  1  0.12275215  0.87994370  0.13596955  1
  O  O331  1  0.09539064  0.87270709  0.65375561  1
  O  O332  1  0.62724398  0.35824065  0.14258850  1
  O  O333  1  0.63283837  0.36913988  0.62767718  1
  O  O334  1  0.64123369  0.81283950  0.13436600  1
  O  O335  1  0.63971891  0.87846913  0.63719801  1
  O  O336  1  0.14756518  0.26352326  0.26209167  1
  O  O337  1  0.11678141  0.26101701  0.75161107  1
  O  O338  1  0.14499582  0.76592670  0.24431771  1
  O  O339  1  0.13064756  0.76759082  0.74961133  1
  O  O340  1  0.62263352  0.25407677  0.26593492  1
  O  O341  1  0.60754586  0.26307195  0.75436300  1
  O  O342  1  0.60677801  0.69503538  0.27529960  1
  O  O343  1  0.59997682  0.74888257  0.75484089  1
  O  O344  1  0.35943520  0.24139227  0.23510764  1
  O  O345  1  0.37364495  0.24716667  0.74927537  1
  O  O346  1  0.35404051  0.74653714  0.24122509  1
  O  O347  1  0.36966887  0.75056446  0.73872006  1
  O  O348  1  0.86660370  0.22884613  0.24274686  1
  O  O349  1  0.88969813  0.26305805  0.75334137  1
  O  O350  1  0.88421285  0.74000526  0.27603472  1
  O  O351  1  0.88877021  0.70648684  0.87970692  1
  O  O352  1  0.37084875  0.50382777  0.48794329  1
  O  O353  1  0.35221215  0.48222501  1.00930388  1
  O  O354  1  0.34869205  0.98783717  0.51956852  1
  O  O355  1  0.36307450  1.00438238  0.97614252  1
  O  O356  1  0.88721297  0.48237326  0.45979529  1
  O  O357  1  0.86949634  0.47679053  1.02806175  1
  O  O358  1  0.88706159  0.99575766  0.48467557  1
  O  O359  1  0.88087091  0.98785485  0.98633958  1
  O  O360  1  0.13248656  0.02540234  -0.00785544  1
  O  O361  1  0.12115162  0.02125850  0.48796744  1
  O  O362  1  0.15217405  0.49659746  0.02922704  1
  O  O363  1  0.12246036  0.49620694  0.49738171  1
  O  O364  1  0.59073922  -0.06371964  0.02886200  1
  O  O365  1  0.65352897  0.02086867  0.49974730  1
  O  O366  1  0.61870404  0.46188048  0.02741733  1
  O  O367  1  0.65350508  0.55124560  0.47449410  1
  O  O368  1  0.37043664  0.36312315  0.12894204  1
  O  O369  1  0.35722280  0.38490203  0.63439490  1
  O  O370  1  0.36398749  0.89103347  0.12451578  1
  O  O371  1  0.36061651  0.86432338  0.62818633  1
  O  O372  1  0.86391847  0.35574827  0.13845635  1
  O  O373  1  0.85254636  0.40444270  0.65547795  1
  O  O374  1  0.89041044  0.87844572  0.09962880  1
  O  O375  1  0.91859192  0.86190071  0.59144056  1
  O  O376  1  0.13739425  0.13917049  0.37794252  1
  O  O377  1  0.13334839  0.13761126  0.86987054  1
  O  O378  1  0.12208787  0.62067523  0.38235292  1
  O  O379  1  0.20065345  0.57970998  0.87955848  1
  O  O380  1  0.62179619  0.13728361  0.37520131  1
  O  O381  1  0.66079711  0.09876388  0.81331992  1
  O  O382  1  0.63702115  0.59222765  0.40846077  1
  O  O383  1  0.60831679  0.62364908  0.85064406  1
