# generated using pymatgen
data_VZnO4
_symmetry_space_group_name_H-M   'P 1'
_cell_length_a   17.00453139
_cell_length_b   16.97461706
_cell_length_c   17.03374701
_cell_angle_alpha   89.91315091
_cell_angle_beta   89.86019778
_cell_angle_gamma   90.41797481
_symmetry_Int_Tables_number   1
_chemical_formula_structural   VZnO4
_chemical_formula_sum   'V64 Zn64 O256'
_cell_volume   4916.56162001
_cell_formula_units_Z   64
loop_
 _symmetry_equiv_pos_site_id
 _symmetry_equiv_pos_as_xyz
  1  'x, y, z'
loop_
 _atom_site_type_symbol
 _atom_site_label
 _atom_site_symmetry_multiplicity
 _atom_site_fract_x
 _atom_site_fract_y
 _atom_site_fract_z
 _atom_site_occupancy
  V  V0  1  0.12557642  0.87168529  0.22031401  1
  V  V1  1  0.24338436  0.13347583  0.88543509  1
  V  V2  1  0.36683806  0.60969624  0.26514123  1
  V  V3  1  0.13689817  0.90377245  0.76401161  1
  V  V4  1  0.49897647  0.25630640  0.24917678  1
  V  V5  1  0.23701982  0.74863657  -0.00980947  1
  V  V6  1  -0.00053683  0.54259500  0.00003156  1
  V  V7  1  0.61999856  0.50097090  0.11814030  1
  V  V8  1  0.50573740  0.13123517  0.61428190  1
  V  V9  1  0.00257771  0.88416809  0.88591320  1
  V  V10  1  0.24915891  -0.00252497  0.23106886  1
  V  V11  1  -0.01761133  0.11804023  0.63605674  1
  V  V12  1  0.51548924  0.12748245  0.11868212  1
  V  V13  1  0.62723989  0.40969448  0.74784485  1
  V  V14  1  0.74987564  0.01837888  0.25716832  1
  V  V15  1  0.40151372  0.35910481  0.49559836  1
  V  V16  1  0.36404972  0.50774149  0.87663544  1
  V  V17  1  0.37271294  0.86209517  0.49956348  1
  V  V18  1  0.63415311  0.23861578  0.39022794  1
  V  V19  1  0.72063682  0.25475842  -0.01294913  1
  V  V20  1  0.84876474  0.28639468  0.13588118  1
  V  V21  1  0.87400439  -0.00342146  0.89204719  1
  V  V22  1  0.49790086  0.62158261  0.12538186  1
  V  V23  1  0.75178907  0.88377626  0.11793284  1
  V  V24  1  0.90234662  0.77390552  0.64079993  1
  V  V25  1  0.01438073  0.73131677  0.26314681  1
  V  V26  1  0.48985544  0.75512083  0.24159237  1
  V  V27  1  0.63932072  0.73756375  0.86454923  1
  V  V28  1  0.37297960  0.12430746  0.76035941  1
  V  V29  1  0.38095413  0.86658955  0.01445101  1
  V  V30  1  0.13544922  0.11298053  0.04000026  1
  V  V31  1  0.03804729  0.73610196  0.77533872  1
  V  V32  1  0.85625009  0.53513904  0.89225054  1
  V  V33  1  0.37552449  -0.01094178  0.87636196  1
  V  V34  1  0.36253563  0.01178451  0.37261713  1
  V  V35  1  0.50189882  0.38317610  0.88260451  1
  V  V36  1  0.61971067  -0.01604902  0.63224210  1
  V  V37  1  0.10775777  0.13634452  0.48707150  1
  V  V38  1  0.36030034  0.38095600  0.00611737  1
  V  V39  1  0.11469023  0.37401417  0.75778086  1
  V  V40  1  0.36345969  0.25207151  0.62932652  1
  V  V41  1  0.78058338  0.77775603  0.50507499  1
  V  V42  1  0.89024396  0.00242081  0.37892512  1
  V  V43  1  0.51706361  0.00358438  -0.00343691  1
  V  V44  1  -0.03301256  0.07850903  0.14776936  1
  V  V45  1  0.62816878  0.88637650  0.23963949  1
  V  V46  1  0.49960214  0.88159606  0.36757221  1
  V  V47  1  0.74122464  0.73537162  0.00817862  1
  V  V48  1  0.02652155  0.63893486  0.60618550  1
  V  V49  1  0.24626369  0.87488186  0.63641427  1
  V  V50  1  0.52038572  0.61505192  0.62844916  1
  V  V51  1  0.35662821  0.61257123  0.73956340  1
  V  V52  1  0.62974286  0.74623027  0.37846108  1
  V  V53  1  0.88239258  0.74394574  0.12977161  1
  V  V54  1  0.62941912  0.37711775  0.25431253  1
  V  V55  1  0.86987618  0.52528793  0.40211970  1
  V  V56  1  0.51268586  0.25032970  0.76190662  1
  V  V57  1  0.24965710  0.45743783  0.29357996  1
  V  V58  1  0.36834454  0.24637607  0.11769638  1
  V  V59  1  0.50764693  0.00662500  0.49170630  1
  V  V60  1  0.47652991  0.76133768  0.74124279  1
  V  V61  1  0.75484612  0.52056248  0.25159242  1
  V  V62  1  0.76114056  -0.03071857  0.74376059  1
  V  V63  1  -0.02193922  0.37557840  0.36085345  1
  Zn  Zn64  1  0.20234062  0.19204895  0.21958862  1
  Zn  Zn65  1  0.19786653  0.14560769  0.66273834  1
  Zn  Zn66  1  0.20742239  0.69850540  0.18348618  1
  Zn  Zn67  1  0.19776129  0.69548209  0.69145670  1
  Zn  Zn68  1  0.68667960  0.19784394  0.17647964  1
  Zn  Zn69  1  0.68231383  0.17338955  0.69509799  1
  Zn  Zn70  1  0.67822760  0.69551615  0.18903164  1
  Zn  Zn71  1  0.70077512  0.60280551  0.71570241  1
  Zn  Zn72  1  0.31235982  0.30370472  0.30803329  1
  Zn  Zn73  1  0.31377656  0.31227567  0.81531742  1
  Zn  Zn74  1  0.31683714  0.82831292  0.30504277  1
  Zn  Zn75  1  0.30728875  0.80472253  0.81488093  1
  Zn  Zn76  1  0.80528351  0.32216224  0.31699629  1
  Zn  Zn77  1  0.77920050  0.34641915  0.85168700  1
  Zn  Zn78  1  0.83770685  0.79228322  0.33620724  1
  Zn  Zn79  1  0.81331904  0.80856039  0.82004218  1
  Zn  Zn80  1  0.16543362  0.30361675  0.39650573  1
  Zn  Zn81  1  0.18275549  0.44877961  0.95208483  1
  Zn  Zn82  1  0.18582363  0.94900280  0.46286738  1
  Zn  Zn83  1  0.19797144  0.94107601  0.95024617  1
  Zn  Zn84  1  0.68140103  0.44344365  0.41361697  1
  Zn  Zn85  1  0.68164054  0.44499941  0.94219323  1
  Zn  Zn86  1  0.68309187  0.94021118  0.42984584  1
  Zn  Zn87  1  0.68480116  0.91996886  0.92482758  1
  Zn  Zn88  1  0.32201866  0.06438910  0.05579379  1
  Zn  Zn89  1  0.33189343  0.04553156  0.57205711  1
  Zn  Zn90  1  0.35384364  0.58983285  0.04370909  1
  Zn  Zn91  1  0.39902716  0.54652703  0.54495922  1
  Zn  Zn92  1  0.79306735  0.06967144  0.06239246  1
  Zn  Zn93  1  0.82732864  0.02399849  0.57184607  1
  Zn  Zn94  1  0.80720175  0.56434401  0.07624759  1
  Zn  Zn95  1  0.81570504  0.60780362  0.57247549  1
  Zn  Zn96  1  0.42952190  0.43791533  0.19404772  1
  Zn  Zn97  1  0.43730801  0.43548261  0.69184667  1
  Zn  Zn98  1  0.43587974  0.94833594  0.18272543  1
  Zn  Zn99  1  0.42226988  0.94292751  0.67699750  1
  Zn  Zn100  1  0.93993364  0.45822922  0.17753943  1
  Zn  Zn101  1  0.93462764  0.48351498  0.70307380  1
  Zn  Zn102  1  0.92209642  0.90797194  0.22961157  1
  Zn  Zn103  1  0.96501701  0.93734995  0.69196520  1
  Zn  Zn104  1  0.07278713  0.05555395  0.30556450  1
  Zn  Zn105  1  0.05472485  0.06930644  0.81635956  1
  Zn  Zn106  1  0.05011253  0.53008947  0.29746228  1
  Zn  Zn107  1  0.07159068  0.54490938  0.84857763  1
  Zn  Zn108  1  0.56184557  0.07275762  0.30650126  1
  Zn  Zn109  1  0.55759949  0.05284844  0.80804165  1
  Zn  Zn110  1  0.56606420  0.57221539  0.30269316  1
  Zn  Zn111  1  0.54864697  0.57473127  0.82143713  1
  Zn  Zn112  1  0.42505290  0.20391299  0.42445131  1
  Zn  Zn113  1  0.43934390  0.19252127  0.94349439  1
  Zn  Zn114  1  0.45153419  0.69053072  0.43584020  1
  Zn  Zn115  1  0.46860540  0.68910269  0.92588762  1
  Zn  Zn116  1  0.92407684  0.18051555  0.30246328  1
  Zn  Zn117  1  0.76655974  0.13033680  0.88064527  1
  Zn  Zn118  1  0.94762409  0.69239880  0.44518190  1
  Zn  Zn119  1  0.92616943  0.70495138  0.93937693  1
  Zn  Zn120  1  0.00394349  0.21826808  0.01612568  1
  Zn  Zn121  1  0.06527610  0.28970640  0.56822965  1
  Zn  Zn122  1  0.06097165  0.80607115  0.05713545  1
  Zn  Zn123  1  -0.00484659  0.94557862  0.52079242  1
  Zn  Zn124  1  0.55730820  0.32175450  0.06718631  1
  Zn  Zn125  1  0.57738946  0.31452244  0.57263594  1
  Zn  Zn126  1  0.56221594  0.81492843  0.05797574  1
  Zn  Zn127  1  0.54855372  0.80639146  0.56187927  1
  O  O128  1  0.15600770  0.13319917  0.13577404  1
  O  O129  1  0.09753858  0.15617966  0.61773425  1
  O  O130  1  0.14534020  0.58880695  0.12734834  1
  O  O131  1  0.12504312  0.63524109  0.63044836  1
  O  O132  1  0.61362985  0.13304053  0.11206032  1
  O  O133  1  0.60659921  0.11175317  0.62916829  1
  O  O134  1  0.60655943  0.61644656  0.13481715  1
  O  O135  1  0.61770061  0.60882924  0.62701081  1
  O  O136  1  0.37803151  0.31560055  0.40219940  1
  O  O137  1  0.37762583  0.38190203  0.88407651  1
  O  O138  1  0.38378799  0.88714889  0.37962763  1
  O  O139  1  0.37467675  0.89015463  0.86886320  1
  O  O140  1  0.87523329  0.39058151  0.37733837  1
  O  O141  1  0.86938682  0.41807330  0.84327028  1
  O  O142  1  0.87316010  0.90125912  0.33583735  1
  O  O143  1  0.89325956  0.88429135  0.86855954  1
  O  O144  1  0.26502496  -0.00745258  0.38924943  1
  O  O145  1  0.27379855  0.01302767  0.88148154  1
  O  O146  1  0.23937532  0.40556647  0.37972475  1
  O  O147  1  0.26504374  0.50403364  0.88750295  1
  O  O148  1  0.74162113  0.00537963  0.35966835  1
  O  O149  1  0.76556591  -0.02605668  0.85725003  1
  O  O150  1  0.76285888  0.50120888  0.36196149  1
  O  O151  1  0.75545306  0.51837144  0.89896805  1
  O  O152  1  0.18225609  0.52832274  0.11078299  1
  O  O153  1  0.21505202  0.49448955  0.59844590  1
  O  O154  1  0.26765107  0.99889346  0.13382827  1
  O  O155  1  0.31008064  0.96212501  0.64814934  1
  O  O156  1  0.72634170  0.51022355  0.13911542  1
  O  O157  1  0.74506002  0.44335790  0.57746307  1
  O  O158  1  0.74912527  0.98759554  0.13489709  1
  O  O159  1  0.73007090  0.99984679  0.63365166  1
  O  O160  1  0.00411860  0.41981049  0.26602402  1
  O  O161  1  0.01195161  0.40347905  0.75555095  1
  O  O162  1  0.02801079  0.85829244  0.25360339  1
  O  O163  1  0.02842348  0.87320731  0.76269938  1
  O  O164  1  0.50663353  0.36420144  0.24556959  1
  O  O165  1  0.50359654  0.36511496  0.75983170  1
  O  O166  1  0.50274185  0.87239521  0.24706695  1
  O  O167  1  0.47078074  0.86050727  0.73611030  1
  O  O168  1  0.50677433  0.13929731  0.22872100  1
  O  O169  1  0.49493951  0.13912880  0.75320306  1
  O  O170  1  0.49131682  0.64150089  0.24732961  1
  O  O171  1  0.48357817  0.62468910  0.73439848  1
  O  O172  1  1.00364387  0.12330164  0.23700063  1
  O  O173  1  0.99061474  0.11488902  0.73607497  1
  O  O174  1  1.02312663  0.63148167  0.24803436  1
  O  O175  1  1.04112691  0.63844604  0.79529384  1
  O  O176  1  0.37686051  0.26636624  0.00845235  1
  O  O177  1  0.38128200  0.24225794  0.52686309  1
  O  O178  1  0.40784633  0.77380222  -0.01587488  1
  O  O179  1  0.37083980  0.76672325  0.47161380  1
  O  O180  1  0.92935931  0.26543661  -0.14086453  1
  O  O181  1  0.81086575  0.27178053  0.52523306  1
  O  O182  1  0.85639069  0.75222429  0.02006706  1
  O  O183  1  0.87051587  0.77785381  0.45209174  1
  O  O184  1  0.13006407  0.24354402  0.48688019  1
  O  O185  1  0.10947433  0.19907781  0.98870113  1
  O  O186  1  0.24610344  0.65496262  0.52679523  1
  O  O187  1  0.13803641  0.75475143  0.99330763  1
  O  O188  1  0.62319934  0.25417387  0.48895077  1
  O  O189  1  0.62222468  0.25832496  0.99541542  1
  O  O190  1  0.60068096  0.75802955  0.47448877  1
  O  O191  1  0.63770015  0.75675078  0.99635115  1
  O  O192  1  0.49686977  0.24344279  0.12690258  1
  O  O193  1  0.50393231  0.23746914  0.63745285  1
  O  O194  1  0.50824932  0.74097643  0.13733522  1
  O  O195  1  0.51954983  0.73487103  0.64646945  1
  O  O196  1  0.91567519  0.25519480  0.06772712  1
  O  O197  1  0.98290651  0.22932970  0.61400750  1
  O  O198  1  0.98355585  0.75354373  0.12122235  1
  O  O199  1  1.01341728  0.73156769  0.67053773  1
  O  O200  1  -0.01923217  0.27757537  0.34089688  1
  O  O201  1  -0.02774548  0.21448751  0.88945850  1
  O  O202  1  0.01734168  0.73779999  0.36076724  1
  O  O203  1  -0.00445697  0.77091312  0.86973572  1
  O  O204  1  0.51252971  0.24004878  0.35072928  1
  O  O205  1  0.49306304  0.26218987  0.86531421  1
  O  O206  1  0.50315133  0.76501514  0.35710502  1
  O  O207  1  0.51899205  0.75170172  0.83385419  1
  O  O208  1  0.23508259  0.10357666  0.55484830  1
  O  O209  1  0.24599686  0.12549560  0.99185139  1
  O  O210  1  0.28809319  0.61309421  0.48542033  1
  O  O211  1  0.26203881  0.64461451  1.01603083  1
  O  O212  1  0.77718951  0.22082645  0.56679114  1
  O  O213  1  0.75043597  0.14956922  0.99620444  1
  O  O214  1  0.74655241  0.68245866  0.51586508  1
  O  O215  1  0.73801741  0.63778131  1.01642824  1
  O  O216  1  0.26140636  0.38324358  0.00422976  1
  O  O217  1  0.22500044  0.43174966  0.56345002  1
  O  O218  1  0.27192977  0.86103293  -0.00547164  1
  O  O219  1  0.26786634  0.88340519  0.52169575  1
  O  O220  1  0.75075241  0.35733904  -0.02608461  1
  O  O221  1  0.71676788  0.40069741  0.52446861  1
  O  O222  1  0.74454149  0.87742695  0.01743608  1
  O  O223  1  0.72907541  0.86440265  0.49538321  1
  O  O224  1  0.16250630  0.50702490  0.28048843  1
  O  O225  1  0.12703003  0.48188499  0.76138393  1
  O  O226  1  0.13740602  0.98173201  0.24489168  1
  O  O227  1  0.13034110  1.00108170  0.75105255  1
  O  O228  1  0.62813465  0.49102449  0.25558037  1
  O  O229  1  0.62745156  0.51325874  0.75974998  1
  O  O230  1  0.62063750  0.98960124  0.24895988  1
  O  O231  1  0.60837363  0.98211131  0.73247484  1
  O  O232  1  0.36102468  -0.01487610  0.26472326  1
  O  O233  1  0.39738328  0.01924755  0.76907015  1
  O  O234  1  0.35607159  0.50135299  0.26807531  1
  O  O235  1  0.36907741  0.50298807  0.76380235  1
  O  O236  1  0.85077181  0.01551112  0.25333629  1
  O  O237  1  0.85904689  -0.02288404  0.72576686  1
  O  O238  1  0.85337862  0.51329055  0.23575891  1
  O  O239  1  0.85979064  0.48048315  0.78817345  1
  O  O240  1  0.08004749  0.38801413  0.41418584  1
  O  O241  1  0.12493541  0.38406931  0.86445100  1
  O  O242  1  0.18550866  0.76979090  0.42169546  1
  O  O243  1  0.12042657  0.89750575  0.87205066  1
  O  O244  1  0.61976665  0.36265461  0.35916396  1
  O  O245  1  0.60674194  0.39043994  0.86515173  1
  O  O246  1  0.61091263  0.87627051  0.35819171  1
  O  O247  1  0.63223340  0.84039304  0.86241076  1
  O  O248  1  0.38668173  0.14302253  0.11197622  1
  O  O249  1  0.39041301  0.12921036  0.64181705  1
  O  O250  1  0.39014898  0.60859364  0.15353352  1
  O  O251  1  0.35367348  0.60403437  0.64059134  1
  O  O252  1  0.87401469  0.11152060  0.13075123  1
  O  O253  1  0.88109813  0.11228261  0.61706004  1
  O  O254  1  0.86205524  0.64683463  0.13797778  1
  O  O255  1  0.90965671  0.68292856  0.58684081  1
  O  O256  1  0.27231823  0.24804057  0.13560955  1
  O  O257  1  0.26599891  0.24194717  0.63815751  1
  O  O258  1  0.26858878  0.73908662  0.09882130  1
  O  O259  1  0.26438108  0.77601906  0.64181337  1
  O  O260  1  0.74994513  0.26169092  0.10200123  1
  O  O261  1  0.73318155  0.25327706  0.63067548  1
  O  O262  1  0.74486767  0.76064163  0.12071334  1
  O  O263  1  0.80529285  0.79333946  0.60826584  1
  O  O264  1  0.21263300  0.25077554  0.31191497  1
  O  O265  1  0.25708319  0.23245646  0.87188585  1
  O  O266  1  0.23654996  0.74346613  0.37663079  1
  O  O267  1  0.26237549  0.74029666  0.89320192  1
  O  O268  1  0.73232227  0.25449769  0.37153309  1
  O  O269  1  0.74684404  0.24331589  0.88146809  1
  O  O270  1  0.73075524  0.76344995  0.37227703  1
  O  O271  1  0.75127301  0.74945143  0.89898015  1
  O  O272  1  0.02010154  0.10676293  0.06196769  1
  O  O273  1  0.01252307  0.11804448  0.50030396  1
  O  O274  1  -0.00130392  0.64216937  0.00339784  1
  O  O275  1  0.02991456  0.64660178  0.50566495  1
  O  O276  1  0.49849743  0.11682213  0.00590562  1
  O  O277  1  0.49288070  0.12393238  0.51223235  1
  O  O278  1  0.47266827  0.62887559  0.02825502  1
  O  O279  1  0.47771939  0.63418111  0.53019193  1
  O  O280  1  0.49974457  0.36392133  0.50091163  1
  O  O281  1  0.49590691  0.37261205  0.98341821  1
  O  O282  1  0.49731351  0.88640724  0.47784040  1
  O  O283  1  0.49656350  0.89690126  1.00958599  1
  O  O284  1  1.02029932  0.37153050  0.47133597  1
  O  O285  1  1.03126506  0.35648616  1.00774378  1
  O  O286  1  1.08219572  0.91771099  0.45882232  1
  O  O287  1  1.00759590  0.87620239  0.98334520  1
  O  O288  1  0.52834370  0.51323647  0.40927846  1
  O  O289  1  0.48562449  0.48479996  0.86727561  1
  O  O290  1  0.49347378  0.99944101  0.37377794  1
  O  O291  1  0.48946816  1.01238705  0.89074412  1
  O  O292  1  0.97228546  0.50483066  0.38404948  1
  O  O293  1  0.97005818  0.51189629  0.89688860  1
  O  O294  1  0.98837509  1.00009474  0.36164041  1
  O  O295  1  0.98758629  0.99383138  0.87434918  1
  O  O296  1  -0.02493504  -0.02039212  0.15389540  1
  O  O297  1  0.00432316  0.01315233  0.61550915  1
  O  O298  1  0.00177042  0.50026217  0.09295581  1
  O  O299  1  -0.01266284  0.54875733  0.63407260  1
  O  O300  1  0.49670637  0.01868458  0.11343651  1
  O  O301  1  0.50074403  0.01078838  0.61335297  1
  O  O302  1  0.50780642  0.51233194  0.14323404  1
  O  O303  1  0.48620118  0.51333568  0.62474548  1
  O  O304  1  0.26173828  0.38543639  0.22740757  1
  O  O305  1  0.21719807  0.35703196  0.75389522  1
  O  O306  1  0.23239330  0.87765337  0.25479633  1
  O  O307  1  0.24124054  0.87854099  0.75685628  1
  O  O308  1  0.73219578  0.38744459  0.24878968  1
  O  O309  1  0.72168362  0.38027860  0.75811832  1
  O  O310  1  0.73087100  0.88671822  0.24387738  1
  O  O311  1  0.74414605  0.87250601  0.74481846  1
  O  O312  1  0.24797699  0.09163869  0.26056662  1
  O  O313  1  0.27107672  0.12134400  0.75039984  1
  O  O314  1  0.27189715  0.63920663  0.25734697  1
  O  O315  1  0.26028248  0.62718413  0.76033488  1
  O  O316  1  0.72804434  0.11417834  0.23830101  1
  O  O317  1  0.71843801  0.08825417  0.76318406  1
  O  O318  1  0.73496026  0.61804166  0.25242980  1
  O  O319  1  0.79612384  0.56849337  0.67417744  1
  O  O320  1  0.37732088  0.11081853  0.37827532  1
  O  O321  1  0.37120483  0.12877900  0.86846411  1
  O  O322  1  0.39262718  0.62600609  0.36120100  1
  O  O323  1  0.39106305  0.60835796  0.87417728  1
  O  O324  1  0.87550621  0.10470626  0.37180330  1
  O  O325  1  0.86908649  0.09045986  0.85537392  1
  O  O326  1  0.87362430  0.62336153  0.38309033  1
  O  O327  1  0.86750721  0.63262858  0.86956231  1
  O  O328  1  0.11961236  0.36922386  0.16075667  1
  O  O329  1  0.10900015  0.35822222  0.65634597  1
  O  O330  1  0.12665542  0.87581593  0.12222952  1
  O  O331  1  0.14681876  0.88850316  0.64410234  1
  O  O332  1  0.61307774  0.39430121  0.13770236  1
  O  O333  1  0.60860503  0.38901842  0.65074690  1
  O  O334  1  0.63137228  0.87206475  0.13498582  1
  O  O335  1  0.60977604  0.88835557  0.61214835  1
  O  O336  1  0.09397083  0.30390793  0.17886253  1
  O  O337  1  0.08261943  0.28102279  0.78430380  1
  O  O338  1  0.12374649  0.75621332  0.23161940  1
  O  O339  1  0.13571973  0.76203728  0.76962523  1
  O  O340  1  0.61741455  0.26676058  0.23864002  1
  O  O341  1  0.61181443  0.24877668  0.75374470  1
  O  O342  1  0.61243652  0.76640740  0.25658314  1
  O  O343  1  0.66949520  0.69827473  0.77637184  1
  O  O344  1  0.39321994  0.25925152  0.23313703  1
  O  O345  1  0.38576712  0.24383819  0.74398405  1
  O  O346  1  0.38850284  0.75652937  0.25062279  1
  O  O347  1  0.37633101  0.72981159  0.75583394  1
  O  O348  1  0.85693179  0.25303517  0.23515715  1
  O  O349  1  0.87905117  0.32195962  0.67642834  1
  O  O350  1  0.90411722  0.75399561  0.24740601  1
  O  O351  1  0.88626379  0.76982575  0.74151984  1
  O  O352  1  0.36815571  0.45468477  0.49054477  1
  O  O353  1  0.37982716  0.48833240  0.99143615  1
  O  O354  1  0.38963365  0.99259356  0.48721313  1
  O  O355  1  0.38348212  0.98698221  0.99030386  1
  O  O356  1  0.85431427  0.52227687  0.50069101  1
  O  O357  1  0.87973146  0.52810533  0.99901995  1
  O  O358  1  0.88234938  0.97965194  0.48425118  1
  O  O359  1  0.85788877  1.00335300  0.98857438  1
  O  O360  1  0.13798345  0.01564965  0.00845009  1
  O  O361  1  0.17080175  0.04976767  0.53160278  1
  O  O362  1  0.10304305  0.36585662  0.02106427  1
  O  O363  1  0.14601032  0.53824096  0.45574284  1
  O  O364  1  0.61506258  -0.00400916  -0.01651070  1
  O  O365  1  0.61012761  0.00159721  0.50273105  1
  O  O366  1  0.61809585  0.49796398  0.02009022  1
  O  O367  1  0.58668142  0.50585444  0.45687049  1
  O  O368  1  0.38590837  0.37143648  0.10943747  1
  O  O369  1  0.38279045  0.35721249  0.61898386  1
  O  O370  1  0.38205922  0.87221692  0.11350220  1
  O  O371  1  0.41187019  0.85566078  0.59060657  1
  O  O372  1  0.86077768  0.38475524  0.13651717  1
  O  O373  1  0.89052524  0.38458925  0.63936808  1
  O  O374  1  0.85129577  0.85944877  0.14280161  1
  O  O375  1  0.94765075  0.85995646  0.60356707  1
  O  O376  1  0.12428487  0.11174485  0.39047217  1
  O  O377  1  0.14891424  0.11432215  0.86022519  1
  O  O378  1  0.14383320  0.59908238  0.41751607  1
  O  O379  1  0.10187989  0.52586652  0.95985423  1
  O  O380  1  0.62165933  0.13908566  0.37626505  1
  O  O381  1  0.66350710  0.09775983  0.83163305  1
  O  O382  1  0.61825088  0.64723328  0.36685231  1
  O  O383  1  0.58395230  0.64839776  0.90175245  1
