# generated using pymatgen
data_VZnO4
_symmetry_space_group_name_H-M   'P 1'
_cell_length_a   16.92462797
_cell_length_b   16.93896676
_cell_length_c   16.96699558
_cell_angle_alpha   89.76224339
_cell_angle_beta   89.66707192
_cell_angle_gamma   90.09050957
_symmetry_Int_Tables_number   1
_chemical_formula_structural   VZnO4
_chemical_formula_sum   'V64 Zn64 O256'
_cell_volume   4864.06493248
_cell_formula_units_Z   64
loop_
 _symmetry_equiv_pos_site_id
 _symmetry_equiv_pos_as_xyz
  1  'x, y, z'
loop_
 _atom_site_type_symbol
 _atom_site_label
 _atom_site_symmetry_multiplicity
 _atom_site_fract_x
 _atom_site_fract_y
 _atom_site_fract_z
 _atom_site_occupancy
  V  V0  1  0.24095268  0.75600983  0.01783343  1
  V  V1  1  0.12109766  0.74695674  0.87699221  1
  V  V2  1  0.39427508  -0.04296058  0.44262625  1
  V  V3  1  0.00867846  0.86456047  0.37368023  1
  V  V4  1  0.74880385  0.73450811  0.00890500  1
  V  V5  1  0.56570414  0.03174176  0.56141726  1
  V  V6  1  0.36048519  0.12669764  0.25729227  1
  V  V7  1  0.00203974  0.12261813  0.13662549  1
  V  V8  1  0.59225507  -0.01838639  0.17449209  1
  V  V9  1  0.50365679  0.64182637  0.63001818  1
  V  V10  1  0.13359347  0.48533730  0.13345981  1
  V  V11  1  0.24095706  -0.01433549  0.25579754  1
  V  V12  1  0.51653531  0.00336473  -0.00876095  1
  V  V13  1  0.25047875  0.61821052  0.88202249  1
  V  V14  1  0.89023308  0.01372410  0.37107978  1
  V  V15  1  0.11134926  0.51043424  0.62809787  1
  V  V16  1  0.12280822  0.12598734  -0.00374445  1
  V  V17  1  0.35085623  -0.00793586  0.88840473  1
  V  V18  1  0.28120401  0.51070573  0.28583602  1
  V  V19  1  0.87334651  0.36583869  -0.00511628  1
  V  V20  1  0.37427841  0.12165764  0.74902207  1
  V  V21  1  -0.01666284  0.62665903  0.12754657  1
  V  V22  1  0.88714002  0.89073482  0.50556770  1
  V  V23  1  0.88414519  0.24720544  0.13505853  1
  V  V24  1  0.75669795  0.76418323  0.50184870  1
  V  V25  1  0.12539548  0.86730668  0.73550302  1
  V  V26  1  0.08158275  0.19979088  0.81866964  1
  V  V27  1  0.86386239  0.01983855  0.87104859  1
  V  V28  1  0.13526784  0.04494176  0.59054117  1
  V  V29  1  0.62316732  0.74471784  0.87827812  1
  V  V30  1  0.38323544  0.28781674  0.59766944  1
  V  V31  1  0.85710305  0.62967985  0.25638836  1
  V  V32  1  0.87635301  0.72418309  0.62448805  1
  V  V33  1  0.50292351  0.87330227  0.87090828  1
  V  V34  1  -0.00530828  0.49652050  0.00500753  1
  V  V35  1  0.24135216  0.25283051  -0.01575507  1
  V  V36  1  0.73357098  0.63152797  0.36844679  1
  V  V37  1  0.00958709  0.37149071  0.87344692  1
  V  V38  1  0.77273402  0.01137065  0.24386910  1
  V  V39  1  0.12743130  0.37397862  0.74093842  1
  V  V40  1  0.24670500  0.74920546  0.48212136  1
  V  V41  1  0.25819494  0.49902451  0.74548541  1
  V  V42  1  0.23127975  0.00632013  0.75490343  1
  V  V43  1  0.87467204  0.50894212  0.86395486  1
  V  V44  1  0.62590444  0.63701726  0.50752853  1
  V  V45  1  0.78435470  0.87983480  0.11780237  1
  V  V46  1  0.74082793  0.23762340  -0.01023490  1
  V  V47  1  0.12729476  -0.01136121  0.12251427  1
  V  V48  1  0.38362156  0.37606722  -0.01955420  1
  V  V49  1  0.35868938  0.75721704  0.62683371  1
  V  V50  1  0.11916446  0.62185570  0.48435319  1
  V  V51  1  0.00515687  0.74423341  0.25879954  1
  V  V52  1  0.12294152  0.61985825  0.00632429  1
  V  V53  1  0.38201402  0.63251109  0.76110451  1
  V  V54  1  0.38930520  0.78549085  0.12146531  1
  V  V55  1  0.36146358  0.25435496  0.12128364  1
  V  V56  1  0.62038064  0.78677501  0.37722777  1
  V  V57  1  0.73270434  0.51731598  0.74934887  1
  V  V58  1  -0.00595103  0.73499564  0.74589500  1
  V  V59  1  0.49415590  0.12585568  0.12118082  1
  V  V60  1  0.76457115  0.39846597  0.62165897  1
  V  V61  1  0.49413951  0.50706590  0.49604871  1
  V  V62  1  0.73403365  0.36815975  0.13680166  1
  V  V63  1  -0.00916454  0.87834751  0.88301045  1
  Zn  Zn64  1  0.18817351  0.18133567  0.18026017  1
  Zn  Zn65  1  0.21328944  0.19383102  0.67220839  1
  Zn  Zn66  1  0.18166990  0.66974919  0.19542566  1
  Zn  Zn67  1  0.18845426  0.68212480  0.69236699  1
  Zn  Zn68  1  0.70404743  0.14644131  0.12906718  1
  Zn  Zn69  1  0.54261953  0.18066327  0.67685084  1
  Zn  Zn70  1  0.67899853  0.72374540  0.19742629  1
  Zn  Zn71  1  0.69360993  0.69859744  0.69429488  1
  Zn  Zn72  1  0.30218830  0.32470606  0.27758402  1
  Zn  Zn73  1  0.31132103  0.31257075  0.81162699  1
  Zn  Zn74  1  0.31178779  0.80866691  0.30704313  1
  Zn  Zn75  1  0.30844399  0.81680260  0.81541873  1
  Zn  Zn76  1  0.75827207  0.22958599  0.27972110  1
  Zn  Zn77  1  0.79497887  0.32893594  0.81220503  1
  Zn  Zn78  1  0.82150554  0.81869594  0.30958776  1
  Zn  Zn79  1  0.81214602  0.79220941  0.82872083  1
  Zn  Zn80  1  0.20655956  0.45842257  0.44881511  1
  Zn  Zn81  1  0.19225830  0.43626190  0.94418471  1
  Zn  Zn82  1  0.19072406  0.93022616  0.43710279  1
  Zn  Zn83  1  0.16896662  0.93403744  0.94102662  1
  Zn  Zn84  1  0.69206704  0.45542442  0.45011161  1
  Zn  Zn85  1  0.69801157  0.43176153  0.93234846  1
  Zn  Zn86  1  0.70771061  0.95842554  0.44134490  1
  Zn  Zn87  1  0.69469166  0.93573549  0.93365068  1
  Zn  Zn88  1  0.30199425  0.06641051  0.06493537  1
  Zn  Zn89  1  0.32977926  0.01376254  0.58506971  1
  Zn  Zn90  1  0.34796348  0.47468577  0.12686317  1
  Zn  Zn91  1  0.31189696  0.57595423  0.56436950  1
  Zn  Zn92  1  0.83243483  0.05550664  0.04843768  1
  Zn  Zn93  1  0.67374211  0.15366398  0.51542846  1
  Zn  Zn94  1  0.80416878  0.55442897  0.06148061  1
  Zn  Zn95  1  0.82037934  0.54978107  0.54200981  1
  Zn  Zn96  1  0.45567420  0.55964278  0.30758033  1
  Zn  Zn97  1  0.43946325  0.45192845  0.67918349  1
  Zn  Zn98  1  0.42070404  0.95432516  0.18470971  1
  Zn  Zn99  1  0.47003950  0.90561135  0.64813652  1
  Zn  Zn100  1  0.88420256  0.45486015  0.17568179  1
  Zn  Zn101  1  0.93719719  0.42214851  0.68358599  1
  Zn  Zn102  1  0.94783945  0.93305995  0.18941435  1
  Zn  Zn103  1  0.89359971  0.90336987  0.71940489  1
  Zn  Zn104  1  0.07006839  0.05287985  0.31220787  1
  Zn  Zn105  1  0.01443272  0.02735045  0.75111206  1
  Zn  Zn106  1  0.03864348  0.54190903  0.30993458  1
  Zn  Zn107  1  0.06299908  0.55633135  0.81563153  1
  Zn  Zn108  1  0.52830422  0.04697294  0.31671727  1
  Zn  Zn109  1  0.51619173  0.01252713  0.77243877  1
  Zn  Zn110  1  0.49233131  0.72560779  0.25013467  1
  Zn  Zn111  1  0.56631690  0.56919759  0.82336764  1
  Zn  Zn112  1  0.39592548  0.14022337  0.47047490  1
  Zn  Zn113  1  0.42378354  0.17540404  0.93358478  1
  Zn  Zn114  1  0.43900987  0.70463363  0.43773551  1
  Zn  Zn115  1  0.42718529  0.69641622  0.94511558  1
  Zn  Zn116  1  0.95721389  0.20518792  0.31846442  1
  Zn  Zn117  1  0.93744626  0.17974474  0.94109101  1
  Zn  Zn118  1  0.93561832  0.67231394  0.44433591  1
  Zn  Zn119  1  0.93322279  0.69079157  0.94108942  1
  Zn  Zn120  1  0.05959646  0.30889210  0.06337542  1
  Zn  Zn121  1  0.10161707  0.22960739  0.51094924  1
  Zn  Zn122  1  0.04948488  0.80650660  0.06546232  1
  Zn  Zn123  1  0.06195977  0.79688960  0.55606682  1
  Zn  Zn124  1  0.56031577  0.30844097  0.05954026  1
  Zn  Zn125  1  0.56937264  0.35854999  0.61994579  1
  Zn  Zn126  1  0.56871439  0.82639141  0.05617753  1
  Zn  Zn127  1  0.54351725  0.81783892  0.53410353  1
  O  O128  1  0.11504326  0.12228900  0.11711811  1
  O  O129  1  0.14959905  0.15169283  0.58402761  1
  O  O130  1  0.10650304  0.60889775  0.11769290  1
  O  O131  1  0.11905609  0.61095173  0.63880550  1
  O  O132  1  0.60039941  0.09711474  0.13777115  1
  O  O133  1  0.61540943  0.12556649  0.61021755  1
  O  O134  1  0.61915460  0.64003669  0.12830317  1
  O  O135  1  0.61968379  0.65505065  0.61443856  1
  O  O136  1  0.40285764  0.35688679  0.35359629  1
  O  O137  1  0.37745161  0.37484887  0.87951980  1
  O  O138  1  0.35432076  0.88509809  0.38417526  1
  O  O139  1  0.37960842  0.88699756  0.87308511  1
  O  O140  1  0.95342092  0.31575456  0.36477454  1
  O  O141  1  0.88686094  0.37623531  0.88006532  1
  O  O142  1  0.88837294  0.87985102  0.38366954  1
  O  O143  1  0.88859724  0.87189296  0.86082358  1
  O  O144  1  0.21979058  0.00182004  0.35283919  1
  O  O145  1  0.24432483  -0.01238811  0.86987274  1
  O  O146  1  0.28702334  0.50579473  0.38769102  1
  O  O147  1  0.24143019  0.51313871  0.86994695  1
  O  O148  1  0.77944552  0.00437750  0.35752686  1
  O  O149  1  0.76460622  -0.00391481  0.86635561  1
  O  O150  1  0.72396210  0.53311665  0.36865294  1
  O  O151  1  0.76455115  0.49354288  0.86200805  1
  O  O152  1  0.23281692  0.50135866  0.12400140  1
  O  O153  1  0.24377393  0.50801662  0.64457738  1
  O  O154  1  0.23273675  1.00102700  0.13025787  1
  O  O155  1  0.22383065  1.00222696  0.63929184  1
  O  O156  1  0.76939847  0.46853320  0.12947297  1
  O  O157  1  0.76035746  0.50906898  0.64394988  1
  O  O158  1  0.77711280  0.99569246  0.13279670  1
  O  O159  1  0.77974490  1.04565671  0.64761145  1
  O  O160  1  -0.02252518  0.37779621  0.31853178  1
  O  O161  1  0.01845282  0.37316238  0.75760850  1
  O  O162  1  -0.00404575  0.85312013  0.25841008  1
  O  O163  1  0.01096271  0.85626189  0.76002232  1
  O  O164  1  0.46692287  0.32414555  0.33724208  1
  O  O165  1  0.53125547  0.40244821  0.71605319  1
  O  O166  1  0.52092839  0.94763660  0.24223307  1
  O  O167  1  0.50028802  0.88968630  0.76943371  1
  O  O168  1  0.47312369  0.10645060  0.22746841  1
  O  O169  1  0.47866547  0.11962481  0.75396867  1
  O  O170  1  0.53487841  0.61110854  0.22959223  1
  O  O171  1  0.48647935  0.62350893  0.75339516  1
  O  O172  1  1.01194653  0.13431804  0.24048544  1
  O  O173  1  1.02993167  0.14440039  0.75733273  1
  O  O174  1  0.98124687  0.62807006  0.24866857  1
  O  O175  1  1.00497530  0.63692489  0.75713060  1
  O  O176  1  0.36029609  0.24936784  0.00210738  1
  O  O177  1  0.38356846  0.24657851  0.50355263  1
  O  O178  1  0.35412312  0.74274529  0.02485634  1
  O  O179  1  0.35890539  0.74226640  0.51600598  1
  O  O180  1  0.87400679  0.25571557  0.00501804  1
  O  O181  1  0.75809741  0.24707831  0.39885369  1
  O  O182  1  0.84939953  0.74669104  -0.00830838  1
  O  O183  1  0.87433483  0.75099491  0.51390073  1
  O  O184  1  0.21397523  0.27779350  0.47927520  1
  O  O185  1  0.13416205  0.24358555  1.00489180  1
  O  O186  1  0.13400363  0.73465295  0.49095644  1
  O  O187  1  0.12230121  0.73718298  0.99565257  1
  O  O188  1  0.60954878  0.25432897  0.47060378  1
  O  O189  1  0.64204785  0.24663927  1.00549712  1
  O  O190  1  0.64538637  0.76142272  0.50275385  1
  O  O191  1  0.63833493  0.76333347  0.99539261  1
  O  O192  1  0.49020239  0.22937011  0.11636133  1
  O  O193  1  0.48220544  0.26650363  0.63457839  1
  O  O194  1  0.49242020  0.77387623  0.12851593  1
  O  O195  1  0.48356351  0.75305105  0.61468530  1
  O  O196  1  0.99174498  0.24395257  0.13027629  1
  O  O197  1  0.99527853  0.25502523  0.55433720  1
  O  O198  1  1.00147330  0.73281924  0.13772229  1
  O  O199  1  0.98919724  0.74790996  0.63721735  1
  O  O200  1  0.06128757  0.18897148  0.40317392  1
  O  O201  1  0.01014575  0.25379550  0.87427945  1
  O  O202  1  -0.01018520  0.74986805  0.36717483  1
  O  O203  1  0.00391940  0.74774999  0.86563542  1
  O  O204  1  0.53853219  0.25069481  0.45077978  1
  O  O205  1  0.50033428  0.24086943  0.86773405  1
  O  O206  1  0.52340152  0.78965030  0.41931870  1
  O  O207  1  0.49749734  0.76931253  0.89015940  1
  O  O208  1  0.33079266  0.04050509  0.46858280  1
  O  O209  1  0.23322058  0.13776101  1.00441957  1
  O  O210  1  0.23299481  0.63477470  0.50777927  1
  O  O211  1  0.23239279  0.63264874  0.99611780  1
  O  O212  1  0.76388649  0.18498665  0.44603435  1
  O  O213  1  0.75264429  0.13593361  1.01791185  1
  O  O214  1  0.74178275  0.64181042  0.49002260  1
  O  O215  1  0.73899869  0.63486121  1.01963863  1
  O  O216  1  0.25853572  0.35878153  -0.00486931  1
  O  O217  1  0.24340068  0.34646420  0.49192792  1
  O  O218  1  0.23272602  0.85302347  -0.00246508  1
  O  O219  1  0.23621494  0.84938166  0.50086384  1
  O  O220  1  0.75842079  0.36402386  0.00582044  1
  O  O221  1  0.77652063  0.43938475  0.52007745  1
  O  O222  1  0.75397990  0.88804628  0.01904500  1
  O  O223  1  0.77545618  0.87305129  0.49652021  1
  O  O224  1  0.10255425  0.49539327  0.22898332  1
  O  O225  1  0.13182799  0.49262924  0.74613705  1
  O  O226  1  0.12921848  1.00090090  0.23086726  1
  O  O227  1  0.12425672  0.97518153  0.76045831  1
  O  O228  1  0.60135659  0.39127857  0.32296587  1
  O  O229  1  0.63239949  0.51489834  0.74903836  1
  O  O230  1  0.66176513  0.99977688  0.24891581  1
  O  O231  1  0.70792018  0.90798691  0.74013704  1
  O  O232  1  0.35030231  0.01299016  0.24955574  1
  O  O233  1  0.34042830  0.00529131  0.75913189  1
  O  O234  1  0.37751385  0.50811395  0.23695682  1
  O  O235  1  0.36372326  0.51345598  0.74790228  1
  O  O236  1  0.88233637  0.00267890  0.25685535  1
  O  O237  1  0.90232553  0.00567262  0.76589033  1
  O  O238  1  0.86627871  0.52691307  0.25734464  1
  O  O239  1  0.89044128  0.49527745  0.76556523  1
  O  O240  1  0.11839418  0.38690696  0.40006928  1
  O  O241  1  0.11387462  0.38236408  0.87264301  1
  O  O242  1  0.10705893  0.86960071  0.37787404  1
  O  O243  1  0.11541323  0.85568480  0.87292822  1
  O  O244  1  0.64718235  0.37114716  0.37743988  1
  O  O245  1  0.61771779  0.35997370  0.87932815  1
  O  O246  1  0.64595469  0.88255871  0.38084594  1
  O  O247  1  0.60971022  0.87104673  0.88004698  1
  O  O248  1  0.37549434  0.13245584  0.12519810  1
  O  O249  1  0.35690876  0.10793030  0.64849392  1
  O  O250  1  0.43670126  0.60263723  0.08737792  1
  O  O251  1  0.38031304  0.63970924  0.64355311  1
  O  O252  1  0.89460511  0.13502020  0.11545851  1
  O  O253  1  0.88122409  0.18669773  0.56685992  1
  O  O254  1  0.87690168  0.61902671  0.13204224  1
  O  O255  1  0.87693905  0.62768958  0.62314837  1
  O  O256  1  0.25771360  0.24819284  0.11476094  1
  O  O257  1  0.29290423  0.26347088  0.63942733  1
  O  O258  1  0.22604438  0.74456944  0.11676548  1
  O  O259  1  0.25658727  0.74460223  0.62749958  1
  O  O260  1  0.76479871  0.25452992  0.11240704  1
  O  O261  1  0.84541695  0.18838993  0.71175053  1
  O  O262  1  0.74481718  0.77180181  0.11696697  1
  O  O263  1  0.76908000  0.74558827  0.61747330  1
  O  O264  1  0.19660157  0.26656144  0.31944437  1
  O  O265  1  0.24278476  0.24739206  0.88560376  1
  O  O266  1  0.26135183  0.74034565  0.38383332  1
  O  O267  1  0.23884420  0.73812154  0.88440097  1
  O  O268  1  0.63795286  0.23666169  0.26211389  1
  O  O269  1  0.75525118  0.25475812  0.89028054  1
  O  O270  1  0.74172648  0.75917464  0.38290847  1
  O  O271  1  0.73350271  0.74498273  0.89273641  1
  O  O272  1  0.01666082  0.13708286  0.01423819  1
  O  O273  1  -0.04430932  0.18295744  0.56926851  1
  O  O274  1  0.00160436  0.61758586  0.00705431  1
  O  O275  1  0.02487955  0.63874099  0.51599460  1
  O  O276  1  0.48678297  0.11118054  0.00818511  1
  O  O277  1  0.49061809  0.08337559  0.51954410  1
  O  O278  1  0.47889123  0.61628526  0.02704003  1
  O  O279  1  0.51373838  0.63781783  0.50745908  1
  O  O280  1  0.52618348  0.41459124  0.52345955  1
  O  O281  1  0.48177193  0.35753012  0.99854781  1
  O  O282  1  0.56952594  0.92623884  0.54470588  1
  O  O283  1  0.49939231  0.89650478  0.98993633  1
  O  O284  1  1.07647496  0.35242880  0.45211419  1
  O  O285  1  0.99246676  0.37769994  0.99211250  1
  O  O286  1  0.99278080  0.85994546  0.48527016  1
  O  O287  1  0.99717135  0.85799878  0.98162919  1
  O  O288  1  0.50406294  0.50645337  0.39446449  1
  O  O289  1  0.55990952  0.41142313  0.87138500  1
  O  O290  1  0.47895515  0.98786528  0.39756895  1
  O  O291  1  0.48558004  0.99523774  0.88362454  1
  O  O292  1  0.97448453  0.44683350  0.35775214  1
  O  O293  1  0.99368695  0.49153999  0.88689453  1
  O  O294  1  0.99615164  0.97842826  0.36032986  1
  O  O295  1  1.01014069  0.97646295  0.87163286  1
  O  O296  1  0.00882267  0.01619443  0.13099261  1
  O  O297  1  0.04784218  0.02832006  0.63542102  1
  O  O298  1  -0.01468103  0.50224848  0.11128059  1
  O  O299  1  0.01354434  0.49024390  0.62996688  1
  O  O300  1  0.49575522  0.00362026  0.10317229  1
  O  O301  1  0.52859284  0.00471778  0.66114742  1
  O  O302  1  0.58145180  0.58363595  0.16582190  1
  O  O303  1  0.50051660  0.53885372  0.61921557  1
  O  O304  1  0.24345907  0.41715779  0.26247742  1
  O  O305  1  0.24096094  0.39288596  0.76393582  1
  O  O306  1  0.24930662  0.88678927  0.24808183  1
  O  O307  1  0.22968053  0.87449193  0.75407045  1
  O  O308  1  0.74706251  0.34487518  0.23341949  1
  O  O309  1  0.75078563  0.39958621  0.73725087  1
  O  O310  1  0.76964976  0.88850334  0.22988226  1
  O  O311  1  0.77848083  0.85733073  0.73514608  1
  O  O312  1  0.25537485  0.12056333  0.24852975  1
  O  O313  1  0.21985965  0.10732538  0.75434153  1
  O  O314  1  0.23569959  0.59712610  0.25952758  1
  O  O315  1  0.25601136  0.61566269  0.76322104  1
  O  O316  1  0.76064926  0.11574666  0.23071853  1
  O  O317  1  0.74315695  0.06702145  0.70614708  1
  O  O318  1  0.74625171  0.64747141  0.25716937  1
  O  O319  1  0.75140522  0.61702892  0.75490062  1
  O  O320  1  0.38485740  0.14115326  0.35188063  1
  O  O321  1  0.36816708  0.09829240  0.86654408  1
  O  O322  1  0.43521681  0.66934164  0.33281479  1
  O  O323  1  0.36720424  0.63109875  0.87020986  1
  O  O324  1  0.90673254  0.11233466  0.37387236  1
  O  O325  1  0.87341036  0.12197001  0.87067904  1
  O  O326  1  0.84700436  0.64015808  0.36364761  1
  O  O327  1  0.88156534  0.60657479  0.88012842  1
  O  O328  1  0.11873199  0.38748983  0.11447098  1
  O  O329  1  0.13167005  0.38441496  0.64269887  1
  O  O330  1  0.10923739  0.89151967  0.11309626  1
  O  O331  1  0.11694069  0.86031184  0.63729121  1
  O  O332  1  0.63524893  0.36968021  0.12047620  1
  O  O333  1  0.68331016  0.33757430  0.60376883  1
  O  O334  1  0.62746234  0.90339272  0.12347831  1
  O  O335  1  0.66842003  0.90910123  0.67747870  1
  O  O336  1  0.14455671  0.25762184  0.26440398  1
  O  O337  1  0.14297577  0.26273395  0.75395362  1
  O  O338  1  0.10413665  0.73067083  0.25490295  1
  O  O339  1  0.11768249  0.75039390  0.75783036  1
  O  O340  1  0.58274334  0.19925814  0.30390560  1
  O  O341  1  0.60310198  0.21995316  0.78475693  1
  O  O342  1  0.60254681  0.76735071  0.27362071  1
  O  O343  1  0.63125488  0.74789417  0.77660676  1
  O  O344  1  0.36182427  0.23955061  0.23135822  1
  O  O345  1  0.35469336  0.21793988  0.76892442  1
  O  O346  1  0.36537011  0.75658074  0.21739399  1
  O  O347  1  0.36385895  0.73502073  0.75087217  1
  O  O348  1  0.87162941  0.24054468  0.23650537  1
  O  O349  1  0.87581228  0.24496360  0.74669775  1
  O  O350  1  0.88379202  0.73730779  0.24776710  1
  O  O351  1  0.88474932  0.74843206  0.73927935  1
  O  O352  1  0.39438609  0.52112522  0.50963648  1
  O  O353  1  0.36839629  0.47123564  1.01335426  1
  O  O354  1  0.40764751  0.92959914  0.54248242  1
  O  O355  1  0.35661735  0.99959422  0.98837429  1
  O  O356  1  0.90513508  0.56382147  0.46894718  1
  O  O357  1  0.87688906  0.48602814  0.98998815  1
  O  O358  1  0.88573663  0.99202490  0.48226825  1
  O  O359  1  0.88840323  1.00136252  0.96956265  1
  O  O360  1  0.12889808  0.01689388  0.01045088  1
  O  O361  1  0.13070806  0.00648530  0.49946186  1
  O  O362  1  0.11279323  0.50419969  0.00541042  1
  O  O363  1  0.13672328  0.51045606  0.52251551  1
  O  O364  1  0.61430264  0.01073451  -0.01812542  1
  O  O365  1  0.65395849  0.04217723  0.49279951  1
  O  O366  1  0.58102535  0.48306585  -0.09002461  1
  O  O367  1  0.62294553  0.53511353  0.50281968  1
  O  O368  1  0.37654930  0.35455269  0.12379652  1
  O  O369  1  0.37995688  0.38910721  0.60358500  1
  O  O370  1  0.36929413  0.88214826  0.11598889  1
  O  O371  1  0.36850666  0.85190288  0.65818150  1
  O  O372  1  0.88124949  0.35721665  0.11579393  1
  O  O373  1  0.85926114  0.35940554  0.63006048  1
  O  O374  1  0.88412622  0.87374852  0.11422714  1
  O  O375  1  0.89295717  0.88492738  0.60655713  1
  O  O376  1  0.11466767  0.13370810  0.38217520  1
  O  O377  1  0.11852138  0.13130690  0.88924244  1
  O  O378  1  0.10550302  0.59207709  0.38920957  1
  O  O379  1  0.12682705  0.62850742  0.88501139  1
  O  O380  1  0.60582553  0.13261998  0.34432276  1
  O  O381  1  0.57000084  0.20400398  0.85300538  1
  O  O382  1  0.62919630  0.66059448  0.39325796  1
  O  O383  1  0.59373665  0.64933458  0.89696231  1
