# generated using pymatgen
data_VZnO4
_symmetry_space_group_name_H-M   'P 1'
_cell_length_a   17.05595884
_cell_length_b   17.02808852
_cell_length_c   17.01320830
_cell_angle_alpha   90.52944509
_cell_angle_beta   90.48059047
_cell_angle_gamma   90.36709445
_symmetry_Int_Tables_number   1
_chemical_formula_structural   VZnO4
_chemical_formula_sum   'V64 Zn64 O256'
_cell_volume   4940.66383852
_cell_formula_units_Z   64
loop_
 _symmetry_equiv_pos_site_id
 _symmetry_equiv_pos_as_xyz
  1  'x, y, z'
loop_
 _atom_site_type_symbol
 _atom_site_label
 _atom_site_symmetry_multiplicity
 _atom_site_fract_x
 _atom_site_fract_y
 _atom_site_fract_z
 _atom_site_occupancy
  V  V0  1  0.76185565  0.25457623  0.50235889  1
  V  V1  1  0.87396010  0.50537012  0.39218591  1
  V  V2  1  0.86602144  0.11580050  0.74931278  1
  V  V3  1  0.25173137  0.10122767  0.87925316  1
  V  V4  1  0.38268148  0.75310786  0.62845340  1
  V  V5  1  0.11592008  0.63048065  0.48345309  1
  V  V6  1  0.11463071  0.49734144  0.08813687  1
  V  V7  1  0.73354190  0.89787891  0.62632874  1
  V  V8  1  0.36684573  0.02351168  0.37431205  1
  V  V9  1  0.48821200  0.35813809  0.89363170  1
  V  V10  1  0.63571913  0.51234133  0.12590531  1
  V  V11  1  0.11209986  0.24103324  0.86834037  1
  V  V12  1  0.47963715  0.61460003  0.11547631  1
  V  V13  1  0.60557841  0.50485119  0.63865430  1
  V  V14  1  0.86327317  0.80169769  0.10927527  1
  V  V15  1  0.24658559  0.75812347  -0.01524949  1
  V  V16  1  0.13134465  -0.00797447  0.62701892  1
  V  V17  1  0.38326087  0.36886260  0.53481889  1
  V  V18  1  0.89334579  0.00945519  0.38280226  1
  V  V19  1  0.13596418  0.28097195  0.38034344  1
  V  V20  1  0.62881569  0.37891256  0.25024946  1
  V  V21  1  0.49818335  0.23245090  0.25283700  1
  V  V22  1  0.88538964  0.25332055  0.62759826  1
  V  V23  1  0.39064959  0.52215331  0.88948615  1
  V  V24  1  0.00273489  0.86924003  0.37274459  1
  V  V25  1  0.74709862  0.38616448  0.63095731  1
  V  V26  1  0.86882815  0.37306430  -0.00703317  1
  V  V27  1  0.48687980  0.10383694  0.61450541  1
  V  V28  1  0.36286189  0.13944091  0.74443821  1
  V  V29  1  0.87954472  0.12520563  0.24154938  1
  V  V30  1  0.85971551  0.75050877  0.62695508  1
  V  V31  1  0.63080865  0.88494408  0.24348029  1
  V  V32  1  0.50113244  0.74748879  0.25199290  1
  V  V33  1  0.85880353  -0.01057866  0.87168032  1
  V  V34  1  0.48894844  0.12306185  0.11693408  1
  V  V35  1  0.23709055  0.49897667  0.74535091  1
  V  V36  1  0.61375470  0.88242436  0.76881429  1
  V  V37  1  0.02845935  0.88209129  0.86592513  1
  V  V38  1  0.76202114  0.36183295  0.13593108  1
  V  V39  1  0.50057649  0.88304159  0.37223640  1
  V  V40  1  0.60349778  0.61465928  0.47628790  1
  V  V41  1  0.24734214  0.26705745  -0.01032865  1
  V  V42  1  0.00813942  0.75167410  0.73995399  1
  V  V43  1  0.61289336  0.20643804  0.88884178  1
  V  V44  1  0.63567355  0.00587561  0.11806939  1
  V  V45  1  0.00020486  0.10870561  0.62385718  1
  V  V46  1  0.77470314  0.61944606  0.87852499  1
  V  V47  1  0.24910924  0.02946578  0.24218672  1
  V  V48  1  0.86479322  0.87683820  0.50089918  1
  V  V49  1  0.19912132  0.62439252  0.87837439  1
  V  V50  1  0.12662840  0.11655968  0.49175298  1
  V  V51  1  0.48067506  -0.00917399  -0.00036247  1
  V  V52  1  0.75575750  0.11938136  0.37586906  1
  V  V53  1  0.46902085  0.86213356  0.87950474  1
  V  V54  1  0.03218468  0.12270117  0.13213290  1
  V  V55  1  0.36672669  0.77270089  0.12551254  1
  V  V56  1  0.34764100  0.87784505  0.48304020  1
  V  V57  1  -0.02734507  0.62817862  0.12037641  1
  V  V58  1  0.25367740  0.25017971  0.52085947  1
  V  V59  1  0.24552842  0.87202616  0.64533083  1
  V  V60  1  0.49180977  0.37154639  0.38396353  1
  V  V61  1  0.27468580  0.37697523  0.14616067  1
  V  V62  1  0.00728646  0.26728999  0.25907028  1
  V  V63  1  0.63442161  0.25082952  0.38029979  1
  Zn  Zn64  1  0.19226966  0.21021266  0.19068186  1
  Zn  Zn65  1  0.18444967  0.17735843  0.69497009  1
  Zn  Zn66  1  0.17041552  0.69733291  0.15493784  1
  Zn  Zn67  1  0.19511774  0.68469436  0.68331923  1
  Zn  Zn68  1  0.68527401  0.18235066  0.19445006  1
  Zn  Zn69  1  0.68913507  0.18149083  0.68963628  1
  Zn  Zn70  1  0.68950581  0.71196969  0.17499675  1
  Zn  Zn71  1  0.65048549  0.72007099  0.64444221  1
  Zn  Zn72  1  0.31517817  0.29916085  0.31959487  1
  Zn  Zn73  1  0.29780464  0.31242813  0.80898155  1
  Zn  Zn74  1  0.31730267  0.81867303  0.28840780  1
  Zn  Zn75  1  0.33863560  0.69410628  0.81388669  1
  Zn  Zn76  1  0.81791990  0.30881096  0.30590418  1
  Zn  Zn77  1  0.80868510  0.30396654  0.80574251  1
  Zn  Zn78  1  0.83065622  0.83630149  0.29011673  1
  Zn  Zn79  1  0.80119574  0.82426157  0.79735725  1
  Zn  Zn80  1  0.20429466  0.44443240  0.46784580  1
  Zn  Zn81  1  0.16788781  0.42656255  0.91241548  1
  Zn  Zn82  1  0.19004015  0.92470929  0.36428035  1
  Zn  Zn83  1  0.24610033  0.89119914  0.85934759  1
  Zn  Zn84  1  0.68012616  0.43757145  0.45464460  1
  Zn  Zn85  1  0.68508406  0.42293865  0.95942696  1
  Zn  Zn86  1  0.68144040  0.94299121  0.43453637  1
  Zn  Zn87  1  0.65281087  0.99962829  0.91131943  1
  Zn  Zn88  1  0.30752266  0.06938223  0.06616526  1
  Zn  Zn89  1  0.30880584  0.05827665  0.55673459  1
  Zn  Zn90  1  0.28372157  0.55723211  0.05450160  1
  Zn  Zn91  1  0.33999146  0.55513253  0.56836749  1
  Zn  Zn92  1  0.84314374  0.00802376  0.06941914  1
  Zn  Zn93  1  0.81144285  0.06767038  0.55546362  1
  Zn  Zn94  1  0.80852017  0.54107493  0.06571913  1
  Zn  Zn95  1  0.75656477  0.59091863  0.58589842  1
  Zn  Zn96  1  0.44535463  0.44265764  0.19814151  1
  Zn  Zn97  1  0.43044913  0.43970126  0.71543977  1
  Zn  Zn98  1  0.43365736  0.94877269  0.19620754  1
  Zn  Zn99  1  0.43562393  0.93402119  0.68682429  1
  Zn  Zn100  1  0.97464654  0.40970501  0.13617394  1
  Zn  Zn101  1  0.93922031  0.43729147  0.57862343  1
  Zn  Zn102  1  0.95262547  0.94710796  0.19320517  1
  Zn  Zn103  1  0.93744946  0.93493824  0.68930889  1
  Zn  Zn104  1  0.06646120  0.06619655  0.30816276  1
  Zn  Zn105  1  0.06210819  0.06096027  0.80885622  1
  Zn  Zn106  1  0.04777950  0.70532816  0.29713851  1
  Zn  Zn107  1  0.03665386  0.55624173  0.71938637  1
  Zn  Zn108  1  0.57116761  0.05462276  0.32792106  1
  Zn  Zn109  1  0.52451718  0.04290958  0.79917875  1
  Zn  Zn110  1  0.52993503  0.55624303  0.31079593  1
  Zn  Zn111  1  0.57942756  0.47515775  0.82408806  1
  Zn  Zn112  1  0.44306387  0.19978554  0.44773889  1
  Zn  Zn113  1  0.42291895  0.19418252  0.93514034  1
  Zn  Zn114  1  0.44084918  0.70842771  0.44942338  1
  Zn  Zn115  1  0.51152319  0.65763551  0.91246988  1
  Zn  Zn116  1  0.95020821  0.19494371  0.43742808  1
  Zn  Zn117  1  0.95380235  0.12470935  0.94182313  1
  Zn  Zn118  1  0.93544770  0.70165543  0.45179296  1
  Zn  Zn119  1  0.94044006  0.71587421  0.93538114  1
  Zn  Zn120  1  0.05996531  0.28725389  0.05182891  1
  Zn  Zn121  1  0.06188946  0.29602358  0.55784074  1
  Zn  Zn122  1  0.05352984  0.77788101  0.03197976  1
  Zn  Zn123  1  0.04948632  0.82170324  0.56019467  1
  Zn  Zn124  1  0.57347412  0.29578666  0.06553100  1
  Zn  Zn125  1  0.57150974  0.30756530  0.56638978  1
  Zn  Zn126  1  0.54334960  0.82222321  0.07490607  1
  Zn  Zn127  1  0.56012067  0.81513554  0.55018506  1
  O  O128  1  0.13139975  0.12762511  0.13371591  1
  O  O129  1  0.11351024  0.11525180  0.62184437  1
  O  O130  1  0.15161583  0.58861109  0.12458849  1
  O  O131  1  0.15628295  0.62984786  0.58039982  1
  O  O132  1  0.61642094  0.10986073  0.13647314  1
  O  O133  1  0.59324735  0.15383480  0.63120642  1
  O  O134  1  0.65228599  0.61090323  0.14138765  1
  O  O135  1  0.64998669  0.60475510  0.63948235  1
  O  O136  1  0.39159451  0.36539506  0.37887002  1
  O  O137  1  0.39098706  0.33707469  0.87652572  1
  O  O138  1  0.37914311  0.87127379  0.37919357  1
  O  O139  1  0.37226166  0.86141869  0.87045045  1
  O  O140  1  0.85721293  0.40462104  0.36686138  1
  O  O141  1  0.85841435  0.34200481  0.89761926  1
  O  O142  1  0.87737587  0.89538948  0.37797967  1
  O  O143  1  0.86207059  0.88897867  0.87074489  1
  O  O144  1  0.26411098  0.01788701  0.37223269  1
  O  O145  1  0.26174766  0.00425151  0.87086424  1
  O  O146  1  0.26956026  0.53238054  0.48038027  1
  O  O147  1  0.21039404  0.51879772  0.85906291  1
  O  O148  1  0.76192831  0.01947812  0.37201460  1
  O  O149  1  0.76138598  0.00776480  0.87971223  1
  O  O150  1  0.76839626  0.50089770  0.40418646  1
  O  O151  1  0.74572536  0.51900230  0.89484451  1
  O  O152  1  0.23112898  0.46584631  0.11022991  1
  O  O153  1  0.29338111  0.51052131  0.66158104  1
  O  O154  1  0.25687040  1.00816085  0.14409974  1
  O  O155  1  0.23623639  0.98924222  0.61833318  1
  O  O156  1  0.73932206  0.47922276  0.13454689  1
  O  O157  1  0.76980893  0.48219845  0.61776347  1
  O  O158  1  0.73374621  1.00651981  0.10709458  1
  O  O159  1  0.74788908  0.99669131  0.61230272  1
  O  O160  1  -0.00562414  0.36355761  0.24579375  1
  O  O161  1  0.06202641  0.38073908  0.71443767  1
  O  O162  1  0.00134178  0.88873869  0.27382412  1
  O  O163  1  -0.00109028  0.86832262  0.75305595  1
  O  O164  1  0.51344812  0.35870442  0.26732261  1
  O  O165  1  0.50383748  0.39079694  0.78732275  1
  O  O166  1  0.50202655  0.86957697  0.25281776  1
  O  O167  1  0.49776821  0.87934586  0.77619487  1
  O  O168  1  0.51202762  0.13143443  0.25811031  1
  O  O169  1  0.47961107  0.12585223  0.73366890  1
  O  O170  1  0.51185142  0.64596494  0.22924347  1
  O  O171  1  0.56543544  0.58513302  0.84641709  1
  O  O172  1  0.99506701  0.13220862  0.24719404  1
  O  O173  1  0.98955833  0.11797114  0.72762869  1
  O  O174  1  1.00252726  0.64320735  0.21628585  1
  O  O175  1  0.98574715  0.65250340  0.74451948  1
  O  O176  1  0.34452259  0.23885052  0.00328307  1
  O  O177  1  0.35744089  0.24842616  0.50695210  1
  O  O178  1  0.34558806  0.74994276  0.02182837  1
  O  O179  1  0.37158230  0.77727351  0.50619567  1
  O  O180  1  0.81074794  0.19375771  -0.00916887  1
  O  O181  1  0.86865013  0.24492121  0.50919763  1
  O  O182  1  0.87477236  0.77370238  0.00980847  1
  O  O183  1  0.86662439  0.76988094  0.50655441  1
  O  O184  1  0.13708068  0.24684624  0.49275690  1
  O  O185  1  0.14073825  0.23794460  0.99065340  1
  O  O186  1  0.10952699  0.73613686  0.50183885  1
  O  O187  1  0.16182803  0.75229811  1.04851627  1
  O  O188  1  0.64030049  0.24992443  0.48448363  1
  O  O189  1  0.63187560  0.23154169  0.98461276  1
  O  O190  1  0.61509103  0.71687237  0.52739283  1
  O  O191  1  0.62545278  0.74970710  1.01204475  1
  O  O192  1  0.51395850  0.23038874  0.14293794  1
  O  O193  1  0.54179925  0.22154221  0.63963536  1
  O  O194  1  0.47799647  0.74102151  0.12443053  1
  O  O195  1  0.47838647  0.78638057  0.62184817  1
  O  O196  1  1.02534505  0.24100185  0.15805464  1
  O  O197  1  0.98652016  0.24431178  0.62535424  1
  O  O198  1  0.97082965  0.75170194  0.11588619  1
  O  O199  1  0.97434981  0.76869382  0.62929210  1
  O  O200  1  0.02112537  0.25876617  0.37403586  1
  O  O201  1  0.02218435  0.19601806  0.88438359  1
  O  O202  1  -0.02267083  0.76291895  0.36627436  1
  O  O203  1  -0.00604471  0.76881049  0.85077838  1
  O  O204  1  0.52101648  0.24767626  0.37189804  1
  O  O205  1  0.51467842  0.24163439  0.87634619  1
  O  O206  1  0.49526721  0.75857600  0.35681789  1
  O  O207  1  0.50059242  0.76812945  0.89188625  1
  O  O208  1  0.23514724  0.13678000  0.50973143  1
  O  O209  1  0.25274589  0.11721556  0.98131802  1
  O  O210  1  0.20278033  0.64672379  0.43452246  1
  O  O211  1  0.23585846  0.63239747  0.97924581  1
  O  O212  1  0.75573050  0.13888173  0.48259960  1
  O  O213  1  0.76558072  0.14243657  1.01365099  1
  O  O214  1  0.71532855  0.63578741  0.49064305  1
  O  O215  1  0.76518031  0.62132449  0.98437588  1
  O  O216  1  0.24668428  0.36532795  -0.02560748  1
  O  O217  1  0.27004926  0.36298201  0.51563701  1
  O  O218  1  0.24362257  0.85610057  -0.02986727  1
  O  O219  1  0.25111627  0.87697717  0.47333162  1
  O  O220  1  0.76182061  0.36517528  0.02316183  1
  O  O221  1  0.75122820  0.35849009  0.50952156  1
  O  O222  1  0.68153919  0.78780261  -0.01588787  1
  O  O223  1  0.76080528  0.88642960  0.48907309  1
  O  O224  1  0.22287194  0.55854595  0.27956355  1
  O  O225  1  0.14207609  0.52230723  0.71266905  1
  O  O226  1  0.14943843  1.00547728  0.26929138  1
  O  O227  1  0.11890926  1.00067376  0.72404578  1
  O  O228  1  0.61754954  0.48024432  0.24983285  1
  O  O229  1  0.64087570  0.48398006  0.72965876  1
  O  O230  1  0.62022758  0.99149609  0.23791961  1
  O  O231  1  0.60366513  0.98031340  0.74034242  1
  O  O232  1  0.36045896  0.00356452  0.26498557  1
  O  O233  1  0.40944223  0.02388821  0.75813154  1
  O  O234  1  0.42966302  0.52049676  0.27592043  1
  O  O235  1  0.35873212  0.49023372  0.79552231  1
  O  O236  1  0.88289801  0.01958450  0.26846607  1
  O  O237  1  0.87743049  0.00730062  0.75844362  1
  O  O238  1  0.86997534  0.53920727  0.29647852  1
  O  O239  1  0.95198361  0.44943100  0.82473257  1
  O  O240  1  0.14291004  0.37976754  0.39507411  1
  O  O241  1  0.09820914  0.34181035  0.88153273  1
  O  O242  1  0.09918513  0.87218874  0.39873336  1
  O  O243  1  0.12561136  0.88425850  0.85406825  1
  O  O244  1  0.62991730  0.36296171  0.37281421  1
  O  O245  1  0.61201488  0.38389200  0.88693258  1
  O  O246  1  0.60783640  0.88222102  0.35635106  1
  O  O247  1  0.63167736  0.88853290  0.86890516  1
  O  O248  1  0.39244612  0.12407925  0.13335055  1
  O  O249  1  0.37757790  0.11571991  0.63011868  1
  O  O250  1  0.38136465  0.60016547  0.10912979  1
  O  O251  1  0.37553162  0.65635264  0.60072546  1
  O  O252  1  0.87093516  0.11223456  0.14433673  1
  O  O253  1  0.88759825  0.12724286  0.62115971  1
  O  O254  1  0.87409321  0.61514174  0.12098169  1
  O  O255  1  0.84790396  0.65224235  0.61543620  1
  O  O256  1  0.23571593  0.28265761  0.11101951  1
  O  O257  1  0.23505684  0.24920511  0.61811678  1
  O  O258  1  0.27850479  0.73974761  0.15838112  1
  O  O259  1  0.25495751  0.76955142  0.62694500  1
  O  O260  1  0.74769304  0.26176308  0.14012787  1
  O  O261  1  0.75284830  0.24518095  0.60994032  1
  O  O262  1  0.76633726  0.77251486  0.12347773  1
  O  O263  1  0.75652236  0.78097737  0.62236162  1
  O  O264  1  0.23780515  0.25391958  0.39026948  1
  O  O265  1  0.23533588  0.24072056  0.87985172  1
  O  O266  1  0.27802411  0.70741076  0.35728236  1
  O  O267  1  0.24446357  0.73420064  0.87841579  1
  O  O268  1  0.75224836  0.25314603  0.38557443  1
  O  O269  1  0.71228681  0.23735100  0.84346646  1
  O  O270  1  0.77203109  0.72812484  0.34056047  1
  O  O271  1  0.78952988  0.72156680  0.86406646  1
  O  O272  1  -0.00172410  0.15229918  0.04123615  1
  O  O273  1  0.01653296  0.13895101  0.51510086  1
  O  O274  1  0.00462859  0.66620211  0.02098517  1
  O  O275  1  0.01105331  0.63933283  0.51165678  1
  O  O276  1  0.49015963  0.11970190  0.01350823  1
  O  O277  1  0.49004629  0.12758935  0.51757281  1
  O  O278  1  0.51421011  0.62981340  0.02454607  1
  O  O279  1  0.50110795  0.62553221  0.48762442  1
  O  O280  1  0.48690953  0.33878685  0.49405248  1
  O  O281  1  0.50267859  0.34557171  0.99441750  1
  O  O282  1  0.50228866  0.87260366  0.47218221  1
  O  O283  1  0.48856792  0.88363852  0.99711843  1
  O  O284  1  1.01993406  0.39008645  0.52552396  1
  O  O285  1  0.95477073  0.33390994  1.03319765  1
  O  O286  1  0.97517516  0.87516548  0.48724049  1
  O  O287  1  1.01842702  0.86161000  0.96715945  1
  O  O288  1  0.51430178  0.46559817  0.39383805  1
  O  O289  1  0.47793666  0.47432350  0.91254116  1
  O  O290  1  0.47771900  0.98467792  0.35890662  1
  O  O291  1  0.49526091  0.98488527  0.89630726  1
  O  O292  1  0.97268499  0.48339500  0.38655043  1
  O  O293  1  1.00880722  0.49501151  0.82996377  1
  O  O294  1  0.99352170  1.00220409  0.38080176  1
  O  O295  1  0.99549586  0.98581319  0.86298448  1
  O  O296  1  0.00976411  0.02336730  0.13497196  1
  O  O297  1  0.00466371  0.00579798  0.61515807  1
  O  O298  1  0.00764197  0.52428080  0.11045488  1
  O  O299  1  -0.03884062  0.51295941  0.65183375  1
  O  O300  1  0.49976076  0.01038120  0.12064294  1
  O  O301  1  0.49783956  0.00512688  0.61627456  1
  O  O302  1  0.51955195  0.51666273  0.13560183  1
  O  O303  1  0.50707418  0.50532243  0.65027436  1
  O  O304  1  0.26198127  0.36907311  0.24507627  1
  O  O305  1  0.23588245  0.39799710  0.76552340  1
  O  O306  1  0.23906754  0.88815719  0.26973013  1
  O  O307  1  0.25026251  0.87951802  0.74195921  1
  O  O308  1  0.73563560  0.36934990  0.25120548  1
  O  O309  1  0.75401192  0.36578580  0.72832219  1
  O  O310  1  0.72810922  0.87374776  0.25878481  1
  O  O311  1  0.73017819  0.88940857  0.73304737  1
  O  O312  1  0.25319695  0.13025392  0.24656250  1
  O  O313  1  0.26256020  0.11117494  0.74620858  1
  O  O314  1  0.27577584  0.52961630  0.31875497  1
  O  O315  1  0.24547440  0.62781532  0.77058692  1
  O  O316  1  0.77350390  0.14244624  0.26680438  1
  O  O317  1  0.76777404  0.11384618  0.73005776  1
  O  O318  1  0.74412473  0.67973274  0.29131215  1
  O  O319  1  0.79597176  0.58797532  0.78367298  1
  O  O320  1  0.38588756  0.11943520  0.38384240  1
  O  O321  1  0.36009754  0.13475204  0.85710307  1
  O  O322  1  0.32389357  0.66479473  0.39372053  1
  O  O323  1  0.40123816  0.62651206  0.88138213  1
  O  O324  1  0.87631875  0.12090115  0.37950696  1
  O  O325  1  0.87650701  0.12786174  0.84921260  1
  O  O326  1  0.88053267  0.60724550  0.41684734  1
  O  O327  1  0.87831649  0.61738989  0.89880901  1
  O  O328  1  0.09028026  0.39634256  0.11185822  1
  O  O329  1  0.11105783  0.35712252  0.66701102  1
  O  O330  1  0.13029060  0.93571139  0.07552020  1
  O  O331  1  0.13451541  0.88375077  0.61108540  1
  O  O332  1  0.62845029  0.37121544  0.14159900  1
  O  O333  1  0.63860755  0.39192033  0.60899116  1
  O  O334  1  0.61580806  0.89164536  0.13289934  1
  O  O335  1  0.63910520  0.88540371  0.59489095  1
  O  O336  1  0.12463042  0.26094673  0.27464991  1
  O  O337  1  0.12396812  0.23671622  0.76662561  1
  O  O338  1  0.14033707  0.73881191  0.25395408  1
  O  O339  1  0.10671080  0.74642572  0.72070140  1
  O  O340  1  0.62157670  0.25792124  0.26294499  1
  O  O341  1  0.65007947  0.24222522  0.78439723  1
  O  O342  1  0.60681453  0.77177024  0.22815741  1
  O  O343  1  0.61641802  0.78535030  0.72937377  1
  O  O344  1  0.40080754  0.24493295  0.26311728  1
  O  O345  1  0.35836645  0.23857423  0.73953188  1
  O  O346  1  0.39536102  0.75497641  0.24021907  1
  O  O347  1  0.37409036  0.75404987  0.72946562  1
  O  O348  1  0.89783105  0.23860743  0.26663179  1
  O  O349  1  0.86709107  0.23424098  0.73039824  1
  O  O350  1  0.88625109  0.77999955  0.21246559  1
  O  O351  1  0.87118859  0.76696057  0.73003028  1
  O  O352  1  0.39345740  0.46607996  0.51822288  1
  O  O353  1  0.33279630  0.50042817  0.96609779  1
  O  O354  1  0.36870693  0.98775997  0.48322884  1
  O  O355  1  0.38388469  1.00197392  1.00951946  1
  O  O356  1  0.88038802  0.49113582  0.49743117  1
  O  O357  1  0.87844266  0.47204326  1.00255083  1
  O  O358  1  0.87481326  0.99907343  0.48580809  1
  O  O359  1  0.89030083  1.02674950  0.96898835  1
  O  O360  1  0.13238056  -0.01831606  0.02156147  1
  O  O361  1  0.12560906  0.01771449  0.50923638  1
  O  O362  1  0.11649127  0.49894088  -0.01036628  1
  O  O363  1  0.11437708  0.52663527  0.48967080  1
  O  O364  1  0.60369374  -0.00001025  0.01628647  1
  O  O365  1  0.60920049  0.02480518  0.43288494  1
  O  O366  1  0.63067850  0.49807294  0.02688916  1
  O  O367  1  0.61974355  0.51373348  0.51513567  1
  O  O368  1  0.37350122  0.38570604  0.13260819  1
  O  O369  1  0.39710156  0.36294925  0.63254112  1
  O  O370  1  0.37224986  0.87170184  0.13129581  1
  O  O371  1  0.35093178  0.88464527  0.61207639  1
  O  O372  1  0.85956195  0.38069011  0.14712365  1
  O  O373  1  0.86697176  0.35543730  0.62228909  1
  O  O374  1  0.87517795  0.90699587  0.11497418  1
  O  O375  1  0.86136574  0.88892003  0.60801022  1
  O  O376  1  0.11814461  0.12674354  0.39289941  1
  O  O377  1  0.14884473  0.11563144  0.86002831  1
  O  O378  1  0.07747786  0.63002454  0.38290962  1
  O  O379  1  0.10588606  0.64140959  0.87470429  1
  O  O380  1  0.65109614  0.14412246  0.35816870  1
  O  O381  1  0.60602137  0.10458978  0.87489090  1
  O  O382  1  0.60707570  0.60976839  0.37589742  1
  O  O383  1  0.67712420  0.64676076  0.85881374  1
