# generated using pymatgen
data_VZnO4
_symmetry_space_group_name_H-M   'P 1'
_cell_length_a   16.89882433
_cell_length_b   16.94112398
_cell_length_c   16.87774600
_cell_angle_alpha   90.29116073
_cell_angle_beta   90.08127633
_cell_angle_gamma   90.06846120
_symmetry_Int_Tables_number   1
_chemical_formula_structural   VZnO4
_chemical_formula_sum   'V64 Zn64 O256'
_cell_volume   4831.77609037
_cell_formula_units_Z   64
loop_
 _symmetry_equiv_pos_site_id
 _symmetry_equiv_pos_as_xyz
  1  'x, y, z'
loop_
 _atom_site_type_symbol
 _atom_site_label
 _atom_site_symmetry_multiplicity
 _atom_site_fract_x
 _atom_site_fract_y
 _atom_site_fract_z
 _atom_site_occupancy
  V  V0  1  0.86382396  0.49460413  0.37399211  1
  V  V1  1  0.61929176  0.36629243  0.25088336  1
  V  V2  1  0.74880472  0.24739380  0.50990720  1
  V  V3  1  0.49587939  0.72751959  0.24431246  1
  V  V4  1  0.25676600  0.37577962  0.61706494  1
  V  V5  1  -0.01120437  -0.00164846  -0.00627366  1
  V  V6  1  0.12203985  0.13765911  0.48388035  1
  V  V7  1  0.76067947  0.35477087  0.11711256  1
  V  V8  1  0.62087408  0.26116949  0.87245289  1
  V  V9  1  0.61963155  0.73566077  0.38334514  1
  V  V10  1  0.01151324  0.36759023  0.37213039  1
  V  V11  1  0.62766486  0.75108241  0.88322666  1
  V  V12  1  0.23697326  0.61715920  0.34431969  1
  V  V13  1  0.23334187  0.73975303  0.48850334  1
  V  V14  1  0.00582559  0.24197675  0.75952708  1
  V  V15  1  0.87364536  0.37190221  0.50846662  1
  V  V16  1  0.00169703  0.50486766  0.49627790  1
  V  V17  1  0.13908295  0.13102869  -0.00820624  1
  V  V18  1  0.89051194  0.23567714  0.62755709  1
  V  V19  1  -0.01703541  0.86482009  0.88315983  1
  V  V20  1  0.37214112  0.73475319  0.11742865  1
  V  V21  1  0.49086029  0.87891605  0.89538805  1
  V  V22  1  0.27218329  0.85817597  0.64059897  1
  V  V23  1  0.76079852  0.61957086  0.87376116  1
  V  V24  1  0.49671885  0.75987829  0.74385710  1
  V  V25  1  0.36080512  0.12579825  0.26435827  1
  V  V26  1  0.61687618  0.61042969  0.00856250  1
  V  V27  1  0.62301811  0.12672234  -0.00848264  1
  V  V28  1  0.00434141  0.00168083  0.51116212  1
  V  V29  1  0.12127845  0.37837785  0.76363384  1
  V  V30  1  0.00940066  0.25411570  0.24327197  1
  V  V31  1  0.61853237  0.24934177  0.37667594  1
  V  V32  1  0.11419841  0.48233586  0.12512019  1
  V  V33  1  0.00179400  0.12401213  0.12480283  1
  V  V34  1  0.62069531  -0.01062422  0.12302690  1
  V  V35  1  0.76155459  0.12189905  0.86826238  1
  V  V36  1  0.74454349  0.49300127  0.23925649  1
  V  V37  1  0.24549891  0.51591744  0.76993083  1
  V  V38  1  0.75738410  0.48731455  0.74921065  1
  V  V39  1  0.12365164  -0.00825886  0.13470326  1
  V  V40  1  0.75385869  0.12444179  0.38105199  1
  V  V41  1  0.38225392  0.61818302  0.76699444  1
  V  V42  1  0.50012370  0.62082151  0.61089668  1
  V  V43  1  0.86948493  0.13409887  0.24461994  1
  V  V44  1  -0.00462829  0.62692098  0.63824636  1
  V  V45  1  0.40102868  0.36989236  -0.02152113  1
  V  V46  1  0.37984899  0.50298371  0.39338281  1
  V  V47  1  0.50750274  0.88721224  0.36351359  1
  V  V48  1  0.50685149  0.13737315  0.13335758  1
  V  V49  1  0.86736682  0.63149108  0.25023895  1
  V  V50  1  0.75944537  -0.01546786  0.74899765  1
  V  V51  1  0.25797661  0.87841603  0.09948849  1
  V  V52  1  0.10736626  0.87415994  0.75208125  1
  V  V53  1  0.36980320  0.86959542  0.47929076  1
  V  V54  1  0.49691088  0.22033487  0.74798897  1
  V  V55  1  0.75357818  -0.00721195  0.23772342  1
  V  V56  1  0.62980116  0.49166836  0.61389389  1
  V  V57  1  0.12981560  0.50774470  0.61707229  1
  V  V58  1  0.64402524  0.00914334  0.60866904  1
  V  V59  1  0.85779233  0.74736544  0.65025414  1
  V  V60  1  -0.00717368  0.65596193  0.12734436  1
  V  V61  1  0.37005977  0.25822947  0.12971060  1
  V  V62  1  -0.01674778  0.48679232  -0.00404581  1
  V  V63  1  0.14310080  0.75120683  0.89007769  1
  Zn  Zn64  1  0.18485754  0.19789725  0.18593864  1
  Zn  Zn65  1  0.17008163  0.20837194  0.66101618  1
  Zn  Zn66  1  0.20767453  0.65735400  0.12715756  1
  Zn  Zn67  1  0.18438420  0.69634969  0.69371329  1
  Zn  Zn68  1  0.68491535  0.18920422  0.18468813  1
  Zn  Zn69  1  0.67927508  0.17530316  0.69004528  1
  Zn  Zn70  1  0.67435518  0.67414242  0.20590813  1
  Zn  Zn71  1  0.68073358  0.68354077  0.69228294  1
  Zn  Zn72  1  0.42596114  0.29887897  0.33727986  1
  Zn  Zn73  1  0.35801255  0.37000926  0.76616925  1
  Zn  Zn74  1  0.31928031  0.79401599  0.31574121  1
  Zn  Zn75  1  0.32247987  0.80672478  0.82765419  1
  Zn  Zn76  1  0.81280068  0.31109412  0.31479665  1
  Zn  Zn77  1  0.80153615  0.29372754  0.80045269  1
  Zn  Zn78  1  0.79900034  0.81593570  0.31873034  1
  Zn  Zn79  1  0.80681677  0.80985986  0.81985636  1
  Zn  Zn80  1  0.19462613  0.44182881  0.43255852  1
  Zn  Zn81  1  0.16162360  0.58221893  0.95633964  1
  Zn  Zn82  1  0.16484467  0.92488331  0.50272527  1
  Zn  Zn83  1  0.17747316  0.94686960  0.93468475  1
  Zn  Zn84  1  0.68301045  0.43109077  0.44410442  1
  Zn  Zn85  1  0.69220188  0.44255401  0.93944153  1
  Zn  Zn86  1  0.70652821  0.92310299  0.42685524  1
  Zn  Zn87  1  0.65179367  0.96067414  0.91382065  1
  Zn  Zn88  1  0.29331997  0.08501025  0.10846813  1
  Zn  Zn89  1  0.29765225  0.03231039  0.58646333  1
  Zn  Zn90  1  0.30711166  0.54577283  0.04512813  1
  Zn  Zn91  1  0.31596853  0.57420873  0.56954255  1
  Zn  Zn92  1  0.80762227  0.06962793  0.05769986  1
  Zn  Zn93  1  0.82371090  0.05312079  0.56585420  1
  Zn  Zn94  1  0.80931928  0.56870352  0.05929153  1
  Zn  Zn95  1  0.81316460  0.56126179  0.57025133  1
  Zn  Zn96  1  0.42121988  0.42353008  0.23066076  1
  Zn  Zn97  1  0.43734807  0.43610263  0.57288979  1
  Zn  Zn98  1  0.43806261  0.94572922  0.18404919  1
  Zn  Zn99  1  0.43456187  0.94564293  0.68107242  1
  Zn  Zn100  1  0.93566140  0.43496881  0.18330310  1
  Zn  Zn101  1  0.93886178  0.43750441  0.69147396  1
  Zn  Zn102  1  0.88530728  0.97524834  0.37688428  1
  Zn  Zn103  1  0.93319346  0.92693549  0.68021868  1
  Zn  Zn104  1  0.06238847  0.06552610  0.32177558  1
  Zn  Zn105  1  0.07126535  0.05541526  0.80943667  1
  Zn  Zn106  1  0.05551020  0.56367441  0.30237100  1
  Zn  Zn107  1  0.06011074  0.55830812  0.81203798  1
  Zn  Zn108  1  0.57206030  0.06323150  0.31079228  1
  Zn  Zn109  1  0.56573176  0.05162885  0.79472299  1
  Zn  Zn110  1  0.56111723  0.55398530  0.31560598  1
  Zn  Zn111  1  0.58813608  0.57528017  0.79423791  1
  Zn  Zn112  1  0.40782125  0.03890671  0.41740447  1
  Zn  Zn113  1  0.44213404  0.18802059  0.94608553  1
  Zn  Zn114  1  0.42735168  0.68794069  0.42550451  1
  Zn  Zn115  1  0.44154305  0.69011544  0.94176394  1
  Zn  Zn116  1  0.93920417  0.18275671  0.43628218  1
  Zn  Zn117  1  0.95093794  0.18220444  0.93035461  1
  Zn  Zn118  1  0.92017954  0.67346495  0.44638960  1
  Zn  Zn119  1  0.96955680  0.65242917  0.91403171  1
  Zn  Zn120  1  0.06496181  0.31702508  0.04507922  1
  Zn  Zn121  1  0.06586278  0.32193120  0.56439908  1
  Zn  Zn122  1  0.05843689  0.81580363  0.06539498  1
  Zn  Zn123  1  0.04936914  0.80716544  0.55954617  1
  Zn  Zn124  1  0.57064917  0.31830364  0.05833010  1
  Zn  Zn125  1  0.56441796  0.29784054  0.56864612  1
  Zn  Zn126  1  0.56101726  0.80236012  0.06576971  1
  Zn  Zn127  1  0.54993586  0.81078549  0.55422312  1
  O  O128  1  0.11661140  0.11908105  0.12147317  1
  O  O129  1  0.16415277  0.11106879  0.60414845  1
  O  O130  1  0.09303147  0.64330945  0.13836737  1
  O  O131  1  0.11444072  0.61206885  0.63344080  1
  O  O132  1  0.61995953  0.12639216  0.11455855  1
  O  O133  1  0.63027422  0.10972956  0.60750875  1
  O  O134  1  0.63968433  0.63121782  0.10758801  1
  O  O135  1  0.60654267  0.61836068  0.63073482  1
  O  O136  1  0.37514004  0.40663307  0.33742046  1
  O  O137  1  0.37846767  0.36908803  0.88082351  1
  O  O138  1  0.38120001  0.87648585  0.37293260  1
  O  O139  1  0.39157600  0.88328542  0.87804439  1
  O  O140  1  0.88279222  0.37989384  0.38505239  1
  O  O141  1  0.85764119  0.33435007  0.91828829  1
  O  O142  1  0.95658706  0.81875499  0.38099983  1
  O  O143  1  0.88414037  0.87503288  0.87682415  1
  O  O144  1  0.23709837  -0.05154530  0.30839544  1
  O  O145  1  0.27733860  0.00882848  0.87826986  1
  O  O146  1  0.26031564  0.51056423  0.37208501  1
  O  O147  1  0.22356875  0.52114714  0.86551747  1
  O  O148  1  0.73688073  0.02352696  0.35587650  1
  O  O149  1  0.74321915  0.01096017  0.86187526  1
  O  O150  1  0.76230039  0.48547020  0.37329972  1
  O  O151  1  0.74859989  0.50750670  0.86241988  1
  O  O152  1  0.20879596  0.52670870  0.11317661  1
  O  O153  1  0.23479092  0.50676736  0.62682224  1
  O  O154  1  0.23447275  0.98885369  0.12529819  1
  O  O155  1  0.22370709  0.94321474  0.60651963  1
  O  O156  1  0.74930441  0.48949981  0.13911339  1
  O  O157  1  0.74204194  0.50460316  0.63473888  1
  O  O158  1  0.74355927  1.00847511  0.13198483  1
  O  O159  1  0.75260220  0.99732295  0.63396127  1
  O  O160  1  -0.00876187  0.36232939  0.26083801  1
  O  O161  1  0.01469671  0.37435247  0.74601531  1
  O  O162  1  -0.03936711  0.83370673  0.30694378  1
  O  O163  1  0.00145406  0.88285973  0.77107470  1
  O  O164  1  0.51911862  0.36914674  0.26105008  1
  O  O165  1  0.50376227  0.41649996  0.78295159  1
  O  O166  1  0.49509316  0.88125365  0.26202054  1
  O  O167  1  0.48505858  0.86069891  0.74551564  1
  O  O168  1  0.51004007  0.12885038  0.23586713  1
  O  O169  1  0.48535390  0.12002283  0.75715849  1
  O  O170  1  0.49559306  0.62822531  0.24771882  1
  O  O171  1  0.49012935  0.62217292  0.75051743  1
  O  O172  1  0.99153981  0.13551816  0.24654736  1
  O  O173  1  1.01893523  0.14235754  0.75325349  1
  O  O174  1  0.97510347  0.62310232  0.24309676  1
  O  O175  1  0.99050996  0.61351162  0.73624026  1
  O  O176  1  0.38237001  0.26500048  0.01318710  1
  O  O177  1  0.40457346  0.28438118  0.51254434  1
  O  O178  1  0.38375606  0.75331665  0.01861291  1
  O  O179  1  0.35893507  0.76207218  0.48654119  1
  O  O180  1  0.87294192  0.28495207  -0.02910508  1
  O  O181  1  0.87237336  0.25245692  0.50997357  1
  O  O182  1  0.78968014  0.83093128  -0.01689623  1
  O  O183  1  0.80959765  0.70753356  0.48270545  1
  O  O184  1  0.12211074  0.23693898  0.51527443  1
  O  O185  1  0.11756909  0.22996692  1.00053765  1
  O  O186  1  0.13426183  0.75161524  0.49407517  1
  O  O187  1  0.12360753  0.75842732  0.99049903  1
  O  O188  1  0.64226384  0.25209401  0.49239428  1
  O  O189  1  0.62164107  0.23732691  0.98565419  1
  O  O190  1  0.61703414  0.75455013  0.48413281  1
  O  O191  1  0.62231254  0.74074642  0.98837788  1
  O  O192  1  0.50602206  0.23941083  0.12110804  1
  O  O193  1  0.52047162  0.23681120  0.64906171  1
  O  O194  1  0.48706507  0.75129147  0.13642133  1
  O  O195  1  0.50529879  0.73907007  0.63946177  1
  O  O196  1  1.00329118  0.24173533  0.13684091  1
  O  O197  1  0.99317517  0.25214574  0.62945752  1
  O  O198  1  0.98559095  0.75688879  0.13017537  1
  O  O199  1  1.00903649  0.72582978  0.62467208  1
  O  O200  1  -0.00380100  0.26268273  0.36954042  1
  O  O201  1  -0.00465977  0.25663599  0.85846459  1
  O  O202  1  -0.00462140  0.75016935  0.40643489  1
  O  O203  1  -0.00542758  0.76451219  0.88799689  1
  O  O204  1  0.51947955  0.24336855  0.38171851  1
  O  O205  1  0.51290431  0.24184648  0.86781918  1
  O  O206  1  0.49829749  0.75701337  0.35857983  1
  O  O207  1  0.50487342  0.76568019  0.87079634  1
  O  O208  1  0.22682221  0.11903746  0.54332651  1
  O  O209  1  0.23797572  0.12230020  1.01520330  1
  O  O210  1  0.25082880  0.64069262  0.50652542  1
  O  O211  1  0.24292450  0.63248668  1.01544928  1
  O  O212  1  0.76263911  0.13301953  0.48764602  1
  O  O213  1  0.73737955  0.12353768  0.98531740  1
  O  O214  1  0.76380845  0.64713675  0.49332810  1
  O  O215  1  0.73860998  0.61650234  0.98214678  1
  O  O216  1  0.35127375  0.44863210  0.02040303  1
  O  O217  1  0.24951649  0.38539533  0.51674780  1
  O  O218  1  0.25290164  0.88320846  0.00092565  1
  O  O219  1  0.25252942  0.85463591  0.47828245  1
  O  O220  1  0.73768258  0.37841604  0.02123309  1
  O  O221  1  0.76239717  0.35544214  0.49612501  1
  O  O222  1  0.75212688  0.88793589  0.00804214  1
  O  O223  1  0.81235647  0.89063116  0.40139223  1
  O  O224  1  0.10167016  0.49391851  0.22727914  1
  O  O225  1  0.12702745  0.49737886  0.74010382  1
  O  O226  1  0.11247146  1.00722425  0.23288889  1
  O  O227  1  0.13753983  0.97230696  0.76682028  1
  O  O228  1  0.63795820  0.48170449  0.26400367  1
  O  O229  1  0.63849954  0.49625764  0.73093718  1
  O  O230  1  0.64080793  1.00960793  0.23388809  1
  O  O231  1  0.64590877  1.00745165  0.72739023  1
  O  O232  1  0.38681917  0.02963410  0.24365344  1
  O  O233  1  0.37152411  0.03579486  0.67120001  1
  O  O234  1  0.31812233  0.48738686  0.20602379  1
  O  O235  1  0.35258619  0.50816327  0.76563108  1
  O  O236  1  0.85832370  0.01858929  0.25627989  1
  O  O237  1  0.86109451  -0.00696058  0.74131326  1
  O  O238  1  0.86244663  0.49416722  0.26077636  1
  O  O239  1  0.85815225  0.50245565  0.73502442  1
  O  O240  1  0.10973401  0.38086930  0.37982507  1
  O  O241  1  0.12777517  0.38170859  0.85903443  1
  O  O242  1  0.10878534  0.88437311  0.35031391  1
  O  O243  1  0.11601993  0.86474973  0.87626558  1
  O  O244  1  0.63605030  0.35790075  0.37008663  1
  O  O245  1  0.63282157  0.35880538  0.87886928  1
  O  O246  1  0.60811294  0.87036565  0.37752668  1
  O  O247  1  0.63099212  0.85280643  0.88179198  1
  O  O248  1  0.39412203  0.13840602  0.12037382  1
  O  O249  1  0.42079826  0.13044723  0.58480678  1
  O  O250  1  0.36042889  0.63638830  0.12043864  1
  O  O251  1  0.39445553  0.61212379  0.64293462  1
  O  O252  1  0.88439686  0.12200103  0.13759386  1
  O  O253  1  0.88086784  0.13803568  0.62362820  1
  O  O254  1  0.86628717  0.62744897  0.14448903  1
  O  O255  1  0.88569552  0.64126334  0.61370281  1
  O  O256  1  0.26979306  0.25469082  0.13093634  1
  O  O257  1  0.25479610  0.27717045  0.63456863  1
  O  O258  1  0.26256545  0.77124134  0.12908124  1
  O  O259  1  0.23985227  0.76133660  0.61112029  1
  O  O260  1  0.75231752  0.25398305  0.12152630  1
  O  O261  1  0.75826938  0.23884952  0.61293568  1
  O  O262  1  0.75281808  0.76437340  0.12585288  1
  O  O263  1  0.75725927  0.74604269  0.63653272  1
  O  O264  1  0.36713092  0.27163042  0.44802533  1
  O  O265  1  0.28358211  0.16782819  0.80277505  1
  O  O266  1  0.24946940  0.72589140  0.37642368  1
  O  O267  1  0.24351242  0.74937704  0.88511213  1
  O  O268  1  0.75107105  0.24044396  0.38626562  1
  O  O269  1  0.73157252  0.23175673  0.86682846  1
  O  O270  1  0.71566200  0.74895562  0.35618417  1
  O  O271  1  0.73375666  0.73470683  0.86587532  1
  O  O272  1  0.00418419  0.11951710  0.00773022  1
  O  O273  1  0.01322204  0.12185387  0.49829290  1
  O  O274  1  -0.02620097  0.63485567  0.02832611  1
  O  O275  1  -0.00592113  0.60764371  0.50442348  1
  O  O276  1  0.51545962  0.12165225  0.00937074  1
  O  O277  1  0.46293605  0.11659815  0.52643927  1
  O  O278  1  0.51534708  0.62743477  -0.00043233  1
  O  O279  1  0.48649011  0.63915966  0.51425117  1
  O  O280  1  0.47206139  0.34409940  0.50597970  1
  O  O281  1  0.50099678  0.38164728  0.99514582  1
  O  O282  1  0.47852905  0.86813128  0.48106452  1
  O  O283  1  0.50217790  0.87437601  0.99449588  1
  O  O284  1  0.99370099  0.38189436  0.49023686  1
  O  O285  1  0.99624629  0.38637560  0.98802721  1
  O  O286  1  1.04043731  0.89970251  0.49856991  1
  O  O287  1  0.99824247  0.88930898  0.99485323  1
  O  O288  1  0.48031710  0.50919153  0.37972299  1
  O  O289  1  0.51277442  0.46403900  0.83793917  1
  O  O290  1  0.50638298  0.99450799  0.37694754  1
  O  O291  1  0.53476696  0.97113100  0.86975688  1
  O  O292  1  0.98975351  0.48688698  0.37862643  1
  O  O293  1  0.99109213  0.53244934  0.89793160  1
  O  O294  1  0.99534469  1.00105057  0.38333568  1
  O  O295  1  1.00261897  0.99632264  0.88973490  1
  O  O296  1  0.01102826  0.01085074  0.11348694  1
  O  O297  1  -0.00467196  -0.00094925  0.61262651  1
  O  O298  1  -0.00212966  0.49862741  0.11456581  1
  O  O299  1  0.00625953  0.50567910  0.61598920  1
  O  O300  1  0.51717528  0.01278180  0.12840358  1
  O  O301  1  0.53595621  -0.03502655  0.61507024  1
  O  O302  1  0.49913169  0.49602050  0.15926902  1
  O  O303  1  0.51466249  0.50976807  0.61165615  1
  O  O304  1  0.26164087  0.44320434  0.22242045  1
  O  O305  1  0.23900587  0.40056243  0.74385446  1
  O  O306  1  0.24556308  0.88700764  0.26751656  1
  O  O307  1  0.26945206  0.86412215  0.74132956  1
  O  O308  1  0.74724690  0.37831007  0.24477704  1
  O  O309  1  0.75519467  0.38634730  0.75832713  1
  O  O310  1  0.75719711  0.89468535  0.24209825  1
  O  O311  1  0.74602860  0.88593050  0.75963111  1
  O  O312  1  0.26284915  0.12464983  0.22985654  1
  O  O313  1  0.24975022  0.12711580  0.75271420  1
  O  O314  1  0.24049945  0.62914390  0.24635610  1
  O  O315  1  0.26169688  0.62075958  0.74191389  1
  O  O316  1  0.76192036  0.13480988  0.25429738  1
  O  O317  1  0.75320075  0.12160692  0.76235538  1
  O  O318  1  0.75246541  0.60099003  0.25291222  1
  O  O319  1  0.73950598  0.61363386  0.76573175  1
  O  O320  1  0.36446407  0.12954893  0.36626385  1
  O  O321  1  0.37647766  0.09533831  0.88811553  1
  O  O322  1  0.36188054  0.60829838  0.36933189  1
  O  O323  1  0.38209135  0.62315711  0.86752812  1
  O  O324  1  0.86423897  0.12677358  0.36476064  1
  O  O325  1  0.86016763  0.13194732  0.88315656  1
  O  O326  1  0.87727433  0.60003958  0.36695942  1
  O  O327  1  0.85827027  0.63629891  0.87886750  1
  O  O328  1  0.12601487  0.38203917  0.11503366  1
  O  O329  1  0.13391324  0.39211616  0.63040394  1
  O  O330  1  0.13449635  0.88575699  0.12226653  1
  O  O331  1  0.10561178  0.85981088  0.65244666  1
  O  O332  1  0.63414784  0.36291739  0.14635730  1
  O  O333  1  0.61725331  0.39157703  0.60775152  1
  O  O334  1  0.62009889  0.89050773  0.11790154  1
  O  O335  1  0.58992909  0.89977038  0.62345338  1
  O  O336  1  0.10853720  0.24843879  0.25295169  1
  O  O337  1  0.11640215  0.26624100  0.74317909  1
  O  O338  1  0.12625511  0.82982059  0.30564935  1
  O  O339  1  0.13329615  0.76578439  0.77119683  1
  O  O340  1  0.63524710  0.25787741  0.26565701  1
  O  O341  1  0.61419182  0.23865555  0.76460049  1
  O  O342  1  0.60145219  0.74825448  0.25125199  1
  O  O343  1  0.60227859  0.73798392  0.76615037  1
  O  O344  1  0.38686461  0.23374933  0.24431288  1
  O  O345  1  0.40664965  0.26609565  0.75360977  1
  O  O346  1  0.38646403  0.75215063  0.23679994  1
  O  O347  1  0.38896925  0.73291630  0.75917725  1
  O  O348  1  0.88385869  0.23858632  0.25570362  1
  O  O349  1  0.88963405  0.25747110  0.73594565  1
  O  O350  1  0.85343691  0.72692735  0.27190609  1
  O  O351  1  0.87344031  0.74843681  0.74897005  1
  O  O352  1  0.37047833  0.49614316  0.49689872  1
  O  O353  1  0.47037204  0.52562434  1.09858818  1
  O  O354  1  0.35123596  0.97829999  0.49318888  1
  O  O355  1  0.33057665  1.04244644  0.92523392  1
  O  O356  1  0.87802613  0.49166568  0.49243472  1
  O  O357  1  0.88184660  0.49763490  1.00916620  1
  O  O358  1  0.89662265  1.00615542  0.49468209  1
  O  O359  1  0.89004496  1.00844823  1.00630435  1
  O  O360  1  0.11493006  0.01112881  0.01066252  1
  O  O361  1  0.11493742  0.02455382  0.48976997  1
  O  O362  1  0.09360044  0.51393567  0.01480539  1
  O  O363  1  0.11628906  0.49609353  0.51092627  1
  O  O364  1  0.63321082  0.01375745  0.01561993  1
  O  O365  1  0.66259548  -0.01565137  0.51064275  1
  O  O366  1  0.62111150  0.50995945  -0.00107786  1
  O  O367  1  0.65000962  0.51228946  0.51357225  1
  O  O368  1  0.39526659  0.35435514  0.14303301  1
  O  O369  1  0.35750189  0.39676166  0.64465187  1
  O  O370  1  0.35656323  0.89164436  0.12460365  1
  O  O371  1  0.37045453  0.86745522  0.60773431  1
  O  O372  1  0.86025836  0.36909834  0.12979070  1
  O  O373  1  0.88284555  0.36708323  0.61157292  1
  O  O374  1  0.81807545  0.79666579  0.13190975  1
  O  O375  1  0.89456039  0.83753820  0.61611843  1
  O  O376  1  0.13317542  0.13735482  0.38286521  1
  O  O377  1  0.13145067  0.11263600  0.89164677  1
  O  O378  1  0.13785948  0.60852029  0.36722740  1
  O  O379  1  0.10687164  0.64818574  0.87567735  1
  O  O380  1  0.64126890  0.14051766  0.36863318  1
  O  O381  1  0.62516455  0.11846136  0.88594795  1
  O  O382  1  0.60995058  0.63532915  0.37622528  1
  O  O383  1  0.62675007  0.63124121  0.88599983  1
