# generated using pymatgen
data_VZnO4
_symmetry_space_group_name_H-M   'P 1'
_cell_length_a   16.96784404
_cell_length_b   16.91295511
_cell_length_c   16.94853964
_cell_angle_alpha   90.10796126
_cell_angle_beta   90.29584547
_cell_angle_gamma   90.16797164
_symmetry_Int_Tables_number   1
_chemical_formula_structural   VZnO4
_chemical_formula_sum   'V64 Zn64 O256'
_cell_volume   4863.73611401
_cell_formula_units_Z   64
loop_
 _symmetry_equiv_pos_site_id
 _symmetry_equiv_pos_as_xyz
  1  'x, y, z'
loop_
 _atom_site_type_symbol
 _atom_site_label
 _atom_site_symmetry_multiplicity
 _atom_site_fract_x
 _atom_site_fract_y
 _atom_site_fract_z
 _atom_site_occupancy
  V  V0  1  0.14975494  0.39510136  0.75936815  1
  V  V1  1  0.11170191  0.36676730  0.24247248  1
  V  V2  1  0.48976780  -0.01495697  0.48345218  1
  V  V3  1  0.61713806  0.24474853  0.36499015  1
  V  V4  1  0.01060634  0.86130894  0.32953843  1
  V  V5  1  0.14690502  0.74580382  0.90307845  1
  V  V6  1  -0.00131184  0.85051018  0.88778864  1
  V  V7  1  0.50372202  0.75836766  0.26233520  1
  V  V8  1  0.13404324  0.73671502  0.33672812  1
  V  V9  1  0.00838614  0.46900697  0.50316574  1
  V  V10  1  0.87449233  0.61126307  0.77622303  1
  V  V11  1  0.25180101  0.59421347  0.38635195  1
  V  V12  1  0.49188232  0.50945091  0.00246739  1
  V  V13  1  -0.01251692  0.62411333  0.13361728  1
  V  V14  1  0.60432780  0.13195318  0.50075633  1
  V  V15  1  0.37027514  0.61873566  0.74084406  1
  V  V16  1  0.75042476  0.63983496  0.38108866  1
  V  V17  1  0.37921841  0.35921730  0.01245209  1
  V  V18  1  0.25979482  0.35082054  0.13194397  1
  V  V19  1  -0.00902911  0.62679863  0.62987392  1
  V  V20  1  0.62776494  0.36841134  0.23294556  1
  V  V21  1  0.86087450  0.36939221  0.48318046  1
  V  V22  1  0.87444601  0.12700701  0.22975214  1
  V  V23  1  0.75651806  0.13196954  0.38368543  1
  V  V24  1  0.26903368  0.12781244  0.87270274  1
  V  V25  1  0.46532832  0.63615283  0.13337065  1
  V  V26  1  0.34054351  0.88443507  0.49374194  1
  V  V27  1  0.49173646  0.37881014  0.86670337  1
  V  V28  1  0.73200668  0.87263907  0.10729767  1
  V  V29  1  0.50002391  0.76818201  0.73967468  1
  V  V30  1  0.49037270  0.14189801  0.13743352  1
  V  V31  1  0.10882664  0.08573829  0.55246351  1
  V  V32  1  0.13044635  0.12828233  0.00730530  1
  V  V33  1  0.00285633  0.37556918  0.87697734  1
  V  V34  1  0.33933951  0.11404840  0.29779558  1
  V  V35  1  0.14374028  0.49931257  0.62968079  1
  V  V36  1  0.88048007  0.26607652  0.64781479  1
  V  V37  1  0.62848799  0.26536150  0.87293585  1
  V  V38  1  0.88075487  0.10108027  0.73757044  1
  V  V39  1  0.33636135  0.76126892  0.61990063  1
  V  V40  1  0.38087894  0.87788886  0.01358720  1
  V  V41  1  0.14480138  -0.01740506  0.12820599  1
  V  V42  1  0.61673528  0.00928386  0.12712076  1
  V  V43  1  0.76160206  0.36206032  0.10803917  1
  V  V44  1  0.86856237  0.76678899  0.12568181  1
  V  V45  1  0.74608626  -0.01367548  0.26435071  1
  V  V46  1  0.49614605  0.01301619  -0.01666238  1
  V  V47  1  0.00656952  0.50368114  -0.00202842  1
  V  V48  1  0.36063169  0.18244782  0.70264144  1
  V  V49  1  0.88204720  0.00598204  0.87992354  1
  V  V50  1  0.76788495  0.50745730  0.25163179  1
  V  V51  1  0.09345124  0.23667037  0.36468942  1
  V  V52  1  0.14925098  0.51220733  0.12747154  1
  V  V53  1  0.63093190  0.52217402  0.12298193  1
  V  V54  1  0.13903173  0.86988131  0.75645207  1
  V  V55  1  0.50820865  0.39910787  0.36555132  1
  V  V56  1  0.11509572  0.64274366  0.49826117  1
  V  V57  1  0.13988557  0.25074875  0.86840628  1
  V  V58  1  0.25977114  0.61368184  0.88311916  1
  V  V59  1  0.61507555  0.73441558  0.88411981  1
  V  V60  1  0.61836490  0.89925777  0.76865291  1
  V  V61  1  0.00476853  -0.01098739  0.00656447  1
  V  V62  1  0.60579188  0.01090542  0.62867990  1
  V  V63  1  0.75089628  0.90255969  0.62107838  1
  Zn  Zn64  1  0.18474062  0.18095524  0.19232910  1
  Zn  Zn65  1  0.18186611  0.19289882  0.68788611  1
  Zn  Zn66  1  0.25144116  0.66805373  0.19661978  1
  Zn  Zn67  1  0.17883133  0.68282120  0.70319730  1
  Zn  Zn68  1  0.70005367  0.18273523  0.18676905  1
  Zn  Zn69  1  0.71738103  0.19592526  0.74038821  1
  Zn  Zn70  1  0.69254050  0.69888395  0.20533701  1
  Zn  Zn71  1  0.76321230  0.73100383  0.69342551  1
  Zn  Zn72  1  0.32578283  0.30757203  0.29431304  1
  Zn  Zn73  1  0.31574802  0.31128400  0.82586687  1
  Zn  Zn74  1  0.28649626  0.81121946  0.32715081  1
  Zn  Zn75  1  0.31478279  0.80737771  0.81404971  1
  Zn  Zn76  1  0.81005225  0.30787156  0.29966107  1
  Zn  Zn77  1  0.83506592  0.29841777  0.82491378  1
  Zn  Zn78  1  0.82561928  0.81114584  0.31105366  1
  Zn  Zn79  1  0.82086649  0.75908833  0.86122385  1
  Zn  Zn80  1  0.17137988  0.40033902  0.44284886  1
  Zn  Zn81  1  0.19713120  0.43854509  0.94960972  1
  Zn  Zn82  1  0.13951582  0.93064384  0.44158265  1
  Zn  Zn83  1  0.17669153  0.96009991  0.90820102  1
  Zn  Zn84  1  0.69626828  0.43454910  0.42251054  1
  Zn  Zn85  1  0.67265208  0.43766367  0.94289678  1
  Zn  Zn86  1  0.67948495  0.93750725  0.44505775  1
  Zn  Zn87  1  0.69319421  0.97173998  0.94044520  1
  Zn  Zn88  1  0.31807277  0.07193560  0.06154049  1
  Zn  Zn89  1  0.31239866  0.08977251  0.51183254  1
  Zn  Zn90  1  0.31076724  0.55348734  0.05968768  1
  Zn  Zn91  1  0.31604871  0.57824372  0.55027394  1
  Zn  Zn92  1  0.80656558  0.05714540  0.05443066  1
  Zn  Zn93  1  0.77141452  0.11596224  0.59250727  1
  Zn  Zn94  1  0.82188082  0.54148717  0.06155678  1
  Zn  Zn95  1  0.86838403  0.58754846  0.48874027  1
  Zn  Zn96  1  0.44287758  0.44175419  0.18350243  1
  Zn  Zn97  1  0.36143178  0.40841575  0.70732292  1
  Zn  Zn98  1  0.42353658  0.94483010  0.19788987  1
  Zn  Zn99  1  0.44358397  0.92980167  0.65868271  1
  Zn  Zn100  1  0.94234830  0.43757542  0.17418299  1
  Zn  Zn101  1  0.94839411  0.44630042  0.70054726  1
  Zn  Zn102  1  0.93114689  0.95338384  0.18074521  1
  Zn  Zn103  1  0.91514391  0.84867420  0.72405520  1
  Zn  Zn104  1  0.05910732  0.05351617  0.30814231  1
  Zn  Zn105  1  0.07079673  0.05487118  0.75320676  1
  Zn  Zn106  1  0.06791657  0.54145268  0.31402098  1
  Zn  Zn107  1  0.06773451  0.57414959  0.81391728  1
  Zn  Zn108  1  0.55798930  0.05429470  0.30562178  1
  Zn  Zn109  1  0.53586276  0.09896278  0.79279579  1
  Zn  Zn110  1  0.57253601  0.57532993  0.30149099  1
  Zn  Zn111  1  0.52747242  0.57856762  0.81898597  1
  Zn  Zn112  1  0.43488562  0.19379830  0.40733905  1
  Zn  Zn113  1  0.45565829  0.19121787  0.94592076  1
  Zn  Zn114  1  0.40519532  0.70542764  0.42384986  1
  Zn  Zn115  1  0.43339075  0.69882600  0.93138453  1
  Zn  Zn116  1  0.93901930  0.19191148  0.46207186  1
  Zn  Zn117  1  0.98225963  0.15882412  0.88275179  1
  Zn  Zn118  1  0.93524802  0.67232661  0.30569945  1
  Zn  Zn119  1  0.94915437  0.68364427  0.95847711  1
  Zn  Zn120  1  0.07957023  0.31886860  0.05029684  1
  Zn  Zn121  1  0.06811250  0.27018694  0.55678537  1
  Zn  Zn122  1  0.07467706  0.80341506  0.07849147  1
  Zn  Zn123  1  0.08908336  0.80049634  0.59588471  1
  Zn  Zn124  1  0.57190602  0.30770706  0.04928412  1
  Zn  Zn125  1  0.55787971  0.32225958  0.53830190  1
  Zn  Zn126  1  0.54948031  0.81763278  0.06199798  1
  Zn  Zn127  1  0.60593146  0.80179349  0.56457627  1
  O  O128  1  0.12511364  0.12911861  0.10721793  1
  O  O129  1  0.12185687  0.09557743  0.65781497  1
  O  O130  1  0.16335179  0.61143939  0.13598182  1
  O  O131  1  0.11797009  0.61530650  0.62282108  1
  O  O132  1  0.63189462  0.11055203  0.12658457  1
  O  O133  1  0.61038521  0.13006168  0.60256628  1
  O  O134  1  0.63668452  0.62033169  0.12557543  1
  O  O135  1  0.71172251  0.54691238  0.61821368  1
  O  O136  1  0.39873911  0.39840198  0.33004631  1
  O  O137  1  0.38627352  0.37111981  0.89750961  1
  O  O138  1  0.36144583  0.85964724  0.39724732  1
  O  O139  1  0.34355953  0.89149814  0.89825100  1
  O  O140  1  0.86853211  0.35875616  0.38486396  1
  O  O141  1  0.90270155  0.37134744  0.87301288  1
  O  O142  1  0.91516513  0.85947599  0.36366181  1
  O  O143  1  0.89989947  0.83671211  0.89632029  1
  O  O144  1  0.23348448  -0.02493397  0.34127498  1
  O  O145  1  0.25981525  0.02982772  0.86101601  1
  O  O146  1  0.22801722  0.49790982  0.40264653  1
  O  O147  1  0.24947112  0.51369486  0.87891474  1
  O  O148  1  0.73375977  0.00937181  0.36859086  1
  O  O149  1  0.79408069  -0.03936699  0.88494790  1
  O  O150  1  0.75365380  0.50183329  0.35394473  1
  O  O151  1  0.74210314  0.53506366  0.91007419  1
  O  O152  1  0.24907026  0.48262297  0.12595233  1
  O  O153  1  0.24220690  0.50847902  0.61856711  1
  O  O154  1  0.24171131  1.00978115  0.11753588  1
  O  O155  1  0.27843599  1.00108929  0.68174958  1
  O  O156  1  0.74001562  0.49479564  0.12611147  1
  O  O157  1  0.72923111  0.48664504  0.65345295  1
  O  O158  1  0.73774519  0.98229033  0.13305293  1
  O  O159  1  0.71469231  1.01668536  0.62642529  1
  O  O160  1  0.01474764  0.36167959  0.21739679  1
  O  O161  1  0.02647947  0.39625416  0.77547008  1
  O  O162  1  0.00257548  0.87762811  0.23201024  1
  O  O163  1  0.00944082  0.86058433  0.78307585  1
  O  O164  1  0.52479718  0.38155794  0.24490579  1
  O  O165  1  0.47391971  0.39346707  0.77142593  1
  O  O166  1  0.47620612  0.85440450  0.24687749  1
  O  O167  1  0.49815607  0.87810613  0.74462199  1
  O  O168  1  0.51298805  0.13182479  0.23650986  1
  O  O169  1  0.44346508  0.13993417  0.73900622  1
  O  O170  1  0.49783605  0.62803933  0.23250621  1
  O  O171  1  0.47644345  0.64786340  0.74362923  1
  O  O172  1  0.96808298  0.10046248  0.25683387  1
  O  O173  1  0.98657521  0.12343250  0.77273762  1
  O  O174  1  1.00799615  0.60874170  0.23738132  1
  O  O175  1  0.98405781  0.61878177  0.74000717  1
  O  O176  1  0.38899831  0.26140122  0.01084314  1
  O  O177  1  0.40464057  0.25782188  0.51902637  1
  O  O178  1  0.38873616  0.77745031  -0.00001048  1
  O  O179  1  0.35779921  0.76309547  0.51476443  1
  O  O180  1  0.92348931  0.23768015  0.04411644  1
  O  O181  1  0.87437291  0.27017579  0.52531337  1
  O  O182  1  0.87255432  0.73637641  0.02857025  1
  O  O183  1  0.85501838  0.76660314  0.51408797  1
  O  O184  1  0.13475478  0.28267025  0.45057365  1
  O  O185  1  0.12283234  0.23435613  0.98762343  1
  O  O186  1  0.10724180  0.74303759  0.50080150  1
  O  O187  1  0.14448856  0.74619067  1.00281984  1
  O  O188  1  0.61738226  0.24377810  0.47925231  1
  O  O189  1  0.63460748  0.24603514  0.97018566  1
  O  O190  1  0.59019031  0.64610702  0.52298540  1
  O  O191  1  0.58976088  0.74989619  0.98105241  1
  O  O192  1  0.51694381  0.23807709  0.11839274  1
  O  O193  1  0.45660250  0.26058806  0.57387793  1
  O  O194  1  0.49006252  0.73594267  0.12943749  1
  O  O195  1  0.52826614  0.75817245  0.64174401  1
  O  O196  1  0.97477598  0.25039673  0.09494616  1
  O  O197  1  0.97829431  0.25069686  0.63416934  1
  O  O198  1  0.99492934  0.73110745  0.12438758  1
  O  O199  1  1.00544098  0.72802267  0.62603464  1
  O  O200  1  -0.00554312  0.24448535  0.37443302  1
  O  O201  1  0.02336056  0.26876909  0.87889448  1
  O  O202  1  0.02259749  0.74686750  0.33889437  1
  O  O203  1  0.02671040  0.74693122  0.90076818  1
  O  O204  1  0.51599889  0.26168250  0.35898546  1
  O  O205  1  0.50930346  0.27015102  0.87607948  1
  O  O206  1  0.49261276  0.73333737  0.36223325  1
  O  O207  1  0.50071565  0.75180545  0.85264591  1
  O  O208  1  0.19941004  0.10351713  0.51297043  1
  O  O209  1  0.23654248  0.12096899  0.98397910  1
  O  O210  1  0.21466810  0.61972888  0.50372406  1
  O  O211  1  0.27452098  0.62649264  0.98232803  1
  O  O212  1  0.72109321  0.11930297  0.48467034  1
  O  O213  1  0.72869876  0.07311269  0.97829841  1
  O  O214  1  0.75670482  0.62258266  0.48178119  1
  O  O215  1  0.75351354  0.58447955  0.96670706  1
  O  O216  1  0.27131354  0.37410374  0.01414949  1
  O  O217  1  0.28812203  0.35379088  0.46007421  1
  O  O218  1  0.28269564  0.89591340  -0.04533779  1
  O  O219  1  0.24172187  0.89814641  0.49223426  1
  O  O220  1  0.74466865  0.38103945  0.00900743  1
  O  O221  1  0.76285544  0.38381195  0.49885892  1
  O  O222  1  0.73629321  0.87577750  0.01056421  1
  O  O223  1  0.76310850  0.91596637  0.52223325  1
  O  O224  1  0.12509259  0.48108415  0.23115571  1
  O  O225  1  0.13384225  0.50457224  0.74429870  1
  O  O226  1  0.12229526  1.01263624  0.22189681  1
  O  O227  1  0.12616383  0.97109601  0.79651157  1
  O  O228  1  0.63471992  0.49324389  0.23089616  1
  O  O229  1  0.57514545  0.51266010  0.71667105  1
  O  O230  1  0.63791780  0.99973353  0.23974457  1
  O  O231  1  0.58961711  1.01178845  0.73404603  1
  O  O232  1  0.38342124  0.02847225  0.26440957  1
  O  O233  1  0.34234550  -0.00072374  0.71678945  1
  O  O234  1  0.38378418  0.46365973  0.28152777  1
  O  O235  1  0.37993459  0.52070210  0.72850726  1
  O  O236  1  0.85011566  0.00545963  0.24449029  1
  O  O237  1  0.89596757  -0.00185903  0.77227547  1
  O  O238  1  0.86563345  0.49230324  0.24005245  1
  O  O239  1  0.87935406  0.51126538  0.77324191  1
  O  O240  1  0.11424975  0.37906982  0.34234966  1
  O  O241  1  0.13517954  0.37302471  0.87536247  1
  O  O242  1  0.12918077  0.83961035  0.36236303  1
  O  O243  1  0.12798358  0.85370501  0.88402464  1
  O  O244  1  0.62311458  0.36862659  0.35944912  1
  O  O245  1  0.60731243  0.37725478  0.87058532  1
  O  O246  1  0.62669112  0.83874918  0.46050702  1
  O  O247  1  0.62240712  0.91851240  0.86583351  1
  O  O248  1  0.38923560  0.13340282  0.12933714  1
  O  O249  1  0.34013079  0.14881673  0.61005003  1
  O  O250  1  0.36369426  0.62528287  0.13680900  1
  O  O251  1  0.36106267  0.65193501  0.63083772  1
  O  O252  1  0.86356080  0.11761845  0.12951155  1
  O  O253  1  0.88201979  0.09824363  0.63606315  1
  O  O254  1  0.88795580  0.61491993  0.12710824  1
  O  O255  1  0.89430682  0.61729507  0.60332951  1
  O  O256  1  0.25431698  0.25157989  0.12568552  1
  O  O257  1  0.17265999  0.26133314  0.60155510  1
  O  O258  1  0.32366718  0.76256251  0.22593993  1
  O  O259  1  0.23794432  0.75757091  0.62663407  1
  O  O260  1  0.74762511  0.26269110  0.12110448  1
  O  O261  1  0.77141511  0.22215492  0.63939813  1
  O  O262  1  0.75577001  0.76614951  0.13376224  1
  O  O263  1  0.71788787  0.79657811  0.61742089  1
  O  O264  1  0.29900972  0.29302602  0.41624409  1
  O  O265  1  0.24363840  0.25165447  0.88758039  1
  O  O266  1  0.23296781  0.72295077  0.37944126  1
  O  O267  1  0.25037277  0.74191396  0.88227928  1
  O  O268  1  0.73643252  0.23688495  0.36902458  1
  O  O269  1  0.72616395  0.28076403  0.83286214  1
  O  O270  1  0.75645221  0.73993236  0.36263401  1
  O  O271  1  0.71365223  0.75932729  0.88239174  1
  O  O272  1  0.02747866  0.10352326  -0.02370451  1
  O  O273  1  0.03330801  0.15168109  0.51915278  1
  O  O274  1  0.01509272  0.61329900  0.02178403  1
  O  O275  1  0.01724714  0.60166336  0.51252497  1
  O  O276  1  0.50230628  0.11522083  0.01987021  1
  O  O277  1  0.50352099  0.12607160  0.47838382  1
  O  O278  1  0.47889669  0.61526046  0.01447419  1
  O  O279  1  0.52444937  0.61733395  0.51103617  1
  O  O280  1  0.49237096  0.37717649  0.46158858  1
  O  O281  1  0.49394684  0.38532930  1.00538494  1
  O  O282  1  0.48828727  0.88731509  0.49958767  1
  O  O283  1  0.48885861  0.89852354  1.00118704  1
  O  O284  1  1.00222292  0.36795380  0.51371654  1
  O  O285  1  1.01670278  0.38934808  0.98889640  1
  O  O286  1  0.91228671  0.81052705  0.51851981  1
  O  O287  1  1.01981407  0.88006180  1.00093385  1
  O  O288  1  0.52114038  0.49749276  0.36744658  1
  O  O289  1  0.50253442  0.49468735  0.89532878  1
  O  O290  1  0.50310579  0.99493573  0.38351043  1
  O  O291  1  0.50577976  1.03363353  0.88639146  1
  O  O292  1  1.01953018  0.48943538  0.40477549  1
  O  O293  1  1.02166408  0.50155754  0.89291888  1
  O  O294  1  1.04366273  0.95614628  0.37101267  1
  O  O295  1  0.98926148  0.96936366  0.89269492  1
  O  O296  1  0.01554894  -0.00613580  0.10983047  1
  O  O297  1  -0.07420185  -0.02904424  0.52252544  1
  O  O298  1  0.01867624  0.50977683  0.11900664  1
  O  O299  1  0.01278525  0.50363746  0.62289810  1
  O  O300  1  0.51203655  0.00986807  0.13847673  1
  O  O301  1  0.49797913  0.01266173  0.60223079  1
  O  O302  1  0.50782285  0.51959992  0.12355287  1
  O  O303  1  0.56377920  0.54812818  0.65330711  1
  O  O304  1  0.24838965  0.36442697  0.23615989  1
  O  O305  1  0.25321842  0.39468112  0.76425035  1
  O  O306  1  0.24801215  0.92514511  0.28815171  1
  O  O307  1  0.23995137  0.87066743  0.75577260  1
  O  O308  1  0.74281539  0.38518301  0.23694605  1
  O  O309  1  0.63709094  0.35084349  0.68990918  1
  O  O310  1  0.75072504  0.88566281  0.26298092  1
  O  O311  1  0.71370130  0.90342619  0.73935547  1
  O  O312  1  0.24617880  0.11977694  0.26300901  1
  O  O313  1  0.27175002  0.15581220  0.75788277  1
  O  O314  1  0.26576497  0.59793998  0.28748488  1
  O  O315  1  0.26540512  0.63300999  0.75847426  1
  O  O316  1  0.75887015  0.11635706  0.26658938  1
  O  O317  1  0.78172642  0.10310644  0.76104790  1
  O  O318  1  0.75660190  0.61129182  0.24660594  1
  O  O319  1  0.78132690  0.62709009  0.73613926  1
  O  O320  1  0.34468610  0.12000769  0.40473234  1
  O  O321  1  0.36586902  0.14765458  0.88762492  1
  O  O322  1  0.34763932  0.60619711  0.43580696  1
  O  O323  1  0.37032187  0.63049767  0.85617827  1
  O  O324  1  0.85430170  0.13332326  0.40257765  1
  O  O325  1  0.87610386  0.10793736  0.88830812  1
  O  O326  1  0.86696917  0.62125261  0.37745797  1
  O  O327  1  0.87686881  0.64618881  0.87445355  1
  O  O328  1  0.14610490  0.36765176  0.12771552  1
  O  O329  1  0.13352451  0.39024628  0.65559503  1
  O  O330  1  0.14185462  0.88162070  0.12673671  1
  O  O331  1  0.11143026  0.88549049  0.65815001  1
  O  O332  1  0.63346302  0.37521647  0.12789846  1
  O  O333  1  0.60852434  0.43134563  0.56291929  1
  O  O334  1  0.62903072  0.87692155  0.12556505  1
  O  O335  1  0.61456860  0.90743108  0.62557240  1
  O  O336  1  0.12677312  0.25556291  0.25853654  1
  O  O337  1  0.13880654  0.27595110  0.76510965  1
  O  O338  1  0.15608174  0.73268999  0.24028025  1
  O  O339  1  0.12766796  0.76005758  0.76799045  1
  O  O340  1  0.63718461  0.26272601  0.25265739  1
  O  O341  1  0.58212102  0.31029390  0.66040938  1
  O  O342  1  0.60351647  0.75203743  0.24737274  1
  O  O343  1  0.61021541  0.78576286  0.77150743  1
  O  O344  1  0.38111226  0.21113064  0.28656608  1
  O  O345  1  0.36090483  0.28774501  0.71869768  1
  O  O346  1  0.38347983  0.72141728  0.26584089  1
  O  O347  1  0.38258326  0.76710215  0.72744004  1
  O  O348  1  0.86727680  0.22694206  0.24735068  1
  O  O349  1  0.87779951  0.22395769  0.75053066  1
  O  O350  1  0.87828841  0.74277026  0.22957791  1
  O  O351  1  0.85934951  0.75459258  0.75133047  1
  O  O352  1  0.40151496  0.48228214  0.55421146  1
  O  O353  1  0.39101290  0.48481825  1.01381207  1
  O  O354  1  0.37628152  0.98959991  0.50066675  1
  O  O355  1  0.39193586  1.00406314  1.00196651  1
  O  O356  1  0.89636390  0.47371858  0.50835349  1
  O  O357  1  0.90626257  0.49809596  1.00258391  1
  O  O358  1  0.91757820  0.99626567  0.45582936  1
  O  O359  1  0.90035299  1.00228677  1.00298746  1
  O  O360  1  0.12604058  0.00502873  0.00606987  1
  O  O361  1  0.08807982  -0.01029514  0.52663324  1
  O  O362  1  0.12770739  0.49579098  0.02231592  1
  O  O363  1  0.12159398  0.47221936  0.52477613  1
  O  O364  1  0.60467814  -0.00617112  0.01962945  1
  O  O365  1  0.60404443  0.01448940  0.50178911  1
  O  O366  1  0.60728364  0.49866199  0.01870486  1
  O  O367  1  0.62161978  0.48135292  0.50761182  1
  O  O368  1  0.37116035  0.37113973  0.12550752  1
  O  O369  1  0.38782824  0.41601768  0.58841080  1
  O  O370  1  0.36564831  0.89089371  0.11229822  1
  O  O371  1  0.36068561  0.86886165  0.60967725  1
  O  O372  1  0.86008247  0.37939916  0.11947395  1
  O  O373  1  0.87089949  0.36503108  0.66871566  1
  O  O374  1  0.86225998  0.87047743  0.12395867  1
  O  O375  1  0.84688362  0.89749203  0.64956875  1
  O  O376  1  0.11287983  0.13756299  0.36693588  1
  O  O377  1  0.14132894  0.14600555  0.85992347  1
  O  O378  1  0.12225332  0.62695117  0.38402404  1
  O  O379  1  0.14635174  0.63660582  0.87238474  1
  O  O380  1  0.62297533  0.13790971  0.36986365  1
  O  O381  1  0.61580553  0.18241172  0.80485581  1
  O  O382  1  0.65024595  0.62144681  0.36557287  1
  O  O383  1  0.61321814  0.63366643  0.86676612  1
