# generated using pymatgen
data_VZnO4
_symmetry_space_group_name_H-M   'P 1'
_cell_length_a   16.91268989
_cell_length_b   16.90290060
_cell_length_c   16.95025080
_cell_angle_alpha   89.73749483
_cell_angle_beta   90.07005646
_cell_angle_gamma   89.50692424
_symmetry_Int_Tables_number   1
_chemical_formula_structural   VZnO4
_chemical_formula_sum   'V64 Zn64 O256'
_cell_volume   4845.39364922
_cell_formula_units_Z   64
loop_
 _symmetry_equiv_pos_site_id
 _symmetry_equiv_pos_as_xyz
  1  'x, y, z'
loop_
 _atom_site_type_symbol
 _atom_site_label
 _atom_site_symmetry_multiplicity
 _atom_site_fract_x
 _atom_site_fract_y
 _atom_site_fract_z
 _atom_site_occupancy
  V  V0  1  0.00379019  0.13475256  0.12091118  1
  V  V1  1  0.63395736  0.51232335  0.10746782  1
  V  V2  1  0.26472531  0.89089959  0.14798025  1
  V  V3  1  0.10456179  0.85725759  0.25368366  1
  V  V4  1  0.11644646  -0.00295656  0.13272695  1
  V  V5  1  0.12412524  0.13539839  0.48686731  1
  V  V6  1  0.60898249  0.10957355  -0.01656543  1
  V  V7  1  0.76296165  0.51743389  0.25035503  1
  V  V8  1  0.24636735  0.51551781  0.25792269  1
  V  V9  1  0.40142726  0.62088474  0.24395113  1
  V  V10  1  0.38222636  0.76926605  0.62482800  1
  V  V11  1  0.25127167  0.73591220  0.47901083  1
  V  V12  1  0.86816449  0.25854254  0.10227258  1
  V  V13  1  0.75474253  0.12655709  0.37614774  1
  V  V14  1  0.75286804  0.86661960  0.60945202  1
  V  V15  1  -0.00159801  0.12343000  0.62508372  1
  V  V16  1  0.87528424  -0.01515946  0.38012662  1
  V  V17  1  0.25886623  0.51916471  0.77629556  1
  V  V18  1  0.63550566  0.87037874  0.25277653  1
  V  V19  1  0.75634520  -0.00562951  0.74469019  1
  V  V20  1  0.01237423  -0.03306622  0.49736533  1
  V  V21  1  -0.01367989  0.50194240  -0.01009556  1
  V  V22  1  0.38578315  0.90168866  -0.00932337  1
  V  V23  1  0.38993237  0.75715942  0.13199867  1
  V  V24  1  0.01703064  0.75978957  0.74342505  1
  V  V25  1  0.12648308  0.51973095  0.11226807  1
  V  V26  1  0.52919949  0.49775034  0.50138831  1
  V  V27  1  0.50241303  0.62758858  0.62483111  1
  V  V28  1  0.13085040  0.12068706  -0.01211318  1
  V  V29  1  0.51600660  0.75420737  0.26396727  1
  V  V30  1  0.19072414  0.33547477  0.19093872  1
  V  V31  1  0.46369065  0.53463139  0.00414287  1
  V  V32  1  0.49235831  0.10947694  0.14152961  1
  V  V33  1  0.74077408  0.63100437  0.85887393  1
  V  V34  1  0.26961836  0.35007361  0.50597815  1
  V  V35  1  0.62295309  0.00025062  0.59519090  1
  V  V36  1  0.51345897  0.37972230  0.36281199  1
  V  V37  1  0.62073363  0.64669935  -0.00270606  1
  V  V38  1  0.60647770  0.88268614  0.76264225  1
  V  V39  1  0.39155387  0.50748795  0.38110809  1
  V  V40  1  0.75651496  -0.00047449  0.23757656  1
  V  V41  1  0.88870657  0.73850391  0.11857096  1
  V  V42  1  0.75744333  0.88195128  0.10822273  1
  V  V43  1  0.67961673  0.40763591  0.69017515  1
  V  V44  1  0.75988744  0.13132135  0.86427723  1
  V  V45  1  0.87842619  0.13175937  0.24057357  1
  V  V46  1  0.47924588  0.18304947  0.67884459  1
  V  V47  1  0.87374994  0.74349057  0.62230493  1
  V  V48  1  0.76392648  0.75605471  -0.01671397  1
  V  V49  1  0.63128521  0.25177350  0.36780469  1
  V  V50  1  0.38552963  0.13496604  0.30276503  1
  V  V51  1  0.37983595  0.25333412  0.15058662  1
  V  V52  1  0.50080496  0.35031533  0.89079715  1
  V  V53  1  0.88007524  -0.01384283  0.87912671  1
  V  V54  1  0.36831024  0.36985041  0.00733350  1
  V  V55  1  0.38663126  0.87470927  0.46002018  1
  V  V56  1  0.24019529  0.25238484  -0.01362407  1
  V  V57  1  0.24997941  0.75069800  0.01073657  1
  V  V58  1  0.86027369  0.48103351  0.87246744  1
  V  V59  1  0.88944523  0.60982405  0.74593976  1
  V  V60  1  0.64059350  0.37740722  0.23160114  1
  V  V61  1  0.76548384  0.26327621  0.50122555  1
  V  V62  1  0.63974336  0.64754313  0.48192472  1
  V  V63  1  0.21700938  0.07685898  0.35659754  1
  Zn  Zn64  1  0.19064266  0.17497021  0.20030818  1
  Zn  Zn65  1  0.25000866  0.17866062  0.63653661  1
  Zn  Zn66  1  0.20917361  0.69133696  0.20040197  1
  Zn  Zn67  1  0.19688727  0.68376856  0.66330213  1
  Zn  Zn68  1  0.68824062  0.19012447  0.17075314  1
  Zn  Zn69  1  0.68074589  0.18507739  0.67563722  1
  Zn  Zn70  1  0.69830896  0.69497147  0.17367756  1
  Zn  Zn71  1  0.66376706  0.71031804  0.68024014  1
  Zn  Zn72  1  0.31522213  0.32723282  0.32621239  1
  Zn  Zn73  1  0.31894405  0.31851363  0.71387118  1
  Zn  Zn74  1  0.30585607  0.80190474  0.31295732  1
  Zn  Zn75  1  0.42974249  0.82990455  0.81190093  1
  Zn  Zn76  1  0.80906836  0.31178805  0.29418963  1
  Zn  Zn77  1  0.70000866  0.27838649  0.96057837  1
  Zn  Zn78  1  0.83609116  0.81223736  0.28871078  1
  Zn  Zn79  1  0.82014185  0.80937297  0.79809401  1
  Zn  Zn80  1  0.15795860  0.47876431  0.60932859  1
  Zn  Zn81  1  0.16474264  0.42622346  0.94148255  1
  Zn  Zn82  1  0.18227886  0.90323956  0.43397036  1
  Zn  Zn83  1  0.16324938  0.90086575  0.98900672  1
  Zn  Zn84  1  0.70646473  0.44167553  0.42602687  1
  Zn  Zn85  1  0.67775890  0.44337581  0.92496768  1
  Zn  Zn86  1  0.70571743  0.92446512  0.42652960  1
  Zn  Zn87  1  0.68519100  0.94993494  0.93582204  1
  Zn  Zn88  1  0.30882723  0.06918370  0.07547263  1
  Zn  Zn89  1  0.32963101  0.06749596  0.51306601  1
  Zn  Zn90  1  0.30676224  0.56644405  0.06803727  1
  Zn  Zn91  1  0.30801208  0.55386074  0.55932632  1
  Zn  Zn92  1  0.81147130  0.07230754  0.04765945  1
  Zn  Zn93  1  0.81738958  0.06359486  0.56574935  1
  Zn  Zn94  1  0.80793552  0.56348855  0.05488026  1
  Zn  Zn95  1  0.73636761  0.58158714  0.61499437  1
  Zn  Zn96  1  0.45421586  0.43783850  0.17301667  1
  Zn  Zn97  1  0.49446737  0.41000575  0.68432537  1
  Zn  Zn98  1  0.42626443  0.93766988  0.25697044  1
  Zn  Zn99  1  0.44085247  0.96447293  0.66790355  1
  Zn  Zn100  1  0.93841765  0.44799360  0.16904546  1
  Zn  Zn101  1  0.85579209  0.39844596  0.70119071  1
  Zn  Zn102  1  0.93561831  0.93515178  0.16988523  1
  Zn  Zn103  1  0.94283896  0.93291194  0.68171765  1
  Zn  Zn104  1  0.04184132  0.04130580  0.30266377  1
  Zn  Zn105  1  0.06734290  0.05567636  0.81324589  1
  Zn  Zn106  1  0.07592159  0.59730146  0.32791872  1
  Zn  Zn107  1  0.06147350  0.52143196  0.81088305  1
  Zn  Zn108  1  0.58319728  0.07903153  0.27720450  1
  Zn  Zn109  1  0.57257604  0.08279288  0.77124611  1
  Zn  Zn110  1  0.58291093  0.56602482  0.30637478  1
  Zn  Zn111  1  0.55125873  0.68740047  0.81404947  1
  Zn  Zn112  1  0.40197898  0.21583766  0.50895238  1
  Zn  Zn113  1  0.43620748  0.19139764  0.96984717  1
  Zn  Zn114  1  0.44672684  0.68583038  0.44259169  1
  Zn  Zn115  1  0.39278523  0.69862608  0.92857563  1
  Zn  Zn116  1  0.93171688  0.16637897  0.44872774  1
  Zn  Zn117  1  0.94387527  0.18019001  0.92932217  1
  Zn  Zn118  1  0.84909701  0.62204411  0.47166146  1
  Zn  Zn119  1  0.94741592  0.68449825  0.92261296  1
  Zn  Zn120  1  0.05796273  0.31991921  0.05502052  1
  Zn  Zn121  1  0.12335247  0.29305451  0.64783735  1
  Zn  Zn122  1  0.08926717  0.72983240  0.09728793  1
  Zn  Zn123  1  0.04297105  0.76153908  0.52912773  1
  Zn  Zn124  1  0.56260873  0.29957525  0.06773010  1
  Zn  Zn125  1  0.56911570  0.30169587  0.54791492  1
  Zn  Zn126  1  0.56462570  0.82955086  0.06554091  1
  Zn  Zn127  1  0.56143462  0.81950418  0.55130352  1
  O  O128  1  0.11966969  0.11321867  0.13677346  1
  O  O129  1  0.15564375  0.12479068  0.58317542  1
  O  O130  1  0.11947681  0.61997197  0.13839144  1
  O  O131  1  0.19003561  0.58671240  0.60277180  1
  O  O132  1  0.59691402  0.12170506  0.16261385  1
  O  O133  1  0.63660166  0.09874248  0.61009571  1
  O  O134  1  0.63196156  0.62160734  0.10914482  1
  O  O135  1  0.62512087  0.63331616  0.60609749  1
  O  O136  1  0.40710298  0.39488698  0.35621771  1
  O  O137  1  0.38057711  0.37524736  0.90840057  1
  O  O138  1  0.38346878  0.87369077  0.35375643  1
  O  O139  1  0.37516992  0.89214393  0.89132526  1
  O  O140  1  0.91174165  0.34766783  0.36207875  1
  O  O141  1  0.84552503  0.38670079  0.86740017  1
  O  O142  1  0.86316081  0.88620667  0.36886562  1
  O  O143  1  0.87184323  0.88616501  0.86405607  1
  O  O144  1  0.23149688  -0.02021295  0.35671671  1
  O  O145  1  0.20283162  -0.06256932  0.86589887  1
  O  O146  1  0.28976035  0.49944257  0.35807140  1
  O  O147  1  0.22820187  0.51318247  0.87590914  1
  O  O148  1  0.76177013  0.00838249  0.35899111  1
  O  O149  1  0.75658485  0.00348786  0.85801590  1
  O  O150  1  0.76478485  0.50321878  0.35257752  1
  O  O151  1  0.75530332  0.52576768  0.88574956  1
  O  O152  1  0.23642894  0.50994994  0.14838132  1
  O  O153  1  0.29717786  0.51400778  0.67804410  1
  O  O154  1  0.24701904  0.99539586  0.14308187  1
  O  O155  1  0.28460301  1.02580943  0.69016483  1
  O  O156  1  0.73712682  0.50137234  0.12197432  1
  O  O157  1  0.73186997  0.47177003  0.63184127  1
  O  O158  1  0.76298407  0.99087372  0.12285318  1
  O  O159  1  0.75430296  0.98534538  0.62836123  1
  O  O160  1  0.00119073  0.45412904  0.28283247  1
  O  O161  1  -0.04584152  0.33250500  0.74480473  1
  O  O162  1  0.00569989  0.87258165  0.23615673  1
  O  O163  1  0.01015917  0.86126534  0.74071830  1
  O  O164  1  0.52584606  0.38952505  0.25496765  1
  O  O165  1  0.50014196  0.38248278  0.79601763  1
  O  O166  1  0.52643751  0.86943386  0.25710104  1
  O  O167  1  0.50306532  0.89922349  0.74942441  1
  O  O168  1  0.48225732  0.13963166  0.26077631  1
  O  O169  1  0.46883080  0.08186077  0.70760742  1
  O  O170  1  0.50784067  0.63848980  0.24304002  1
  O  O171  1  0.51786932  0.62413314  0.72415571  1
  O  O172  1  0.98700652  0.11560296  0.23388442  1
  O  O173  1  1.03130953  0.08128856  0.71230082  1
  O  O174  1  1.03076366  0.69371993  0.36922938  1
  O  O175  1  0.98710976  0.59220719  0.73794247  1
  O  O176  1  0.35245034  0.25320072  0.02638897  1
  O  O177  1  0.36835305  0.32422008  0.51002648  1
  O  O178  1  0.37917093  0.77412860  0.02944547  1
  O  O179  1  0.37410142  0.75788686  0.48977492  1
  O  O180  1  0.88588630  0.24615003  0.00339343  1
  O  O181  1  0.86598823  0.24545145  0.49262659  1
  O  O182  1  0.86487836  0.74950883  -0.01614787  1
  O  O183  1  0.87019722  0.72387573  0.52481521  1
  O  O184  1  0.11135612  0.22840157  0.46760031  1
  O  O185  1  0.13194869  0.24198907  1.00131843  1
  O  O186  1  0.15376518  0.74739686  0.51584079  1
  O  O187  1  0.14841661  0.77963816  1.00871060  1
  O  O188  1  0.64419734  0.25565489  0.47119719  1
  O  O189  1  0.62617220  0.21343325  1.02220973  1
  O  O190  1  0.63157968  0.74687224  0.49008995  1
  O  O191  1  0.63225605  0.74928209  1.00543879  1
  O  O192  1  0.48211865  0.23905977  0.13664278  1
  O  O193  1  0.49735375  0.21677943  0.57857353  1
  O  O194  1  0.49298929  0.76837223  0.14021518  1
  O  O195  1  0.49384575  0.73768136  0.60691941  1
  O  O196  1  0.99973817  0.23902672  0.11853902  1
  O  O197  1  1.03107270  0.21889371  0.63137784  1
  O  O198  1  0.98267919  0.75481292  0.08404902  1
  O  O199  1  0.98210524  0.74044355  0.62838491  1
  O  O200  1  -0.03425644  0.29636630  0.36861961  1
  O  O201  1  -0.00842361  0.24885769  0.84159231  1
  O  O202  1  -0.00091087  0.68455771  0.44040473  1
  O  O203  1  0.01221240  0.73126073  0.84254011  1
  O  O204  1  0.52501768  0.27207742  0.37005270  1
  O  O205  1  0.48480661  0.24967967  0.88699098  1
  O  O206  1  0.51136518  0.74542810  0.36097576  1
  O  O207  1  0.47404377  0.74272443  0.87073834  1
  O  O208  1  0.23667953  0.11072917  0.45310945  1
  O  O209  1  0.23699759  0.14024067  1.01613425  1
  O  O210  1  0.27514143  0.63618631  0.48699278  1
  O  O211  1  0.24176493  0.65447052  1.03943129  1
  O  O212  1  0.75931245  0.12710132  0.47773223  1
  O  O213  1  0.73162120  0.11447618  0.96899769  1
  O  O214  1  0.74090489  0.61661217  0.50395537  1
  O  O215  1  0.74360868  0.64594561  0.98823940  1
  O  O216  1  0.24909682  0.36343449  -0.00178483  1
  O  O217  1  0.24936811  0.44957260  0.53771561  1
  O  O218  1  0.27268664  0.87566161  0.03047921  1
  O  O219  1  0.27205678  0.85246357  0.47917815  1
  O  O220  1  0.74908083  0.37462338  -0.01656651  1
  O  O221  1  0.75881943  0.36408917  0.49080757  1
  O  O222  1  0.74179148  0.86740199  -0.00022141  1
  O  O223  1  0.75924476  0.86401664  0.51160758  1
  O  O224  1  0.14796279  0.52841981  0.27621372  1
  O  O225  1  0.15668482  0.51003452  0.73505583  1
  O  O226  1  0.11603153  0.98038731  0.23840388  1
  O  O227  1  0.15145164  0.95456843  0.81407007  1
  O  O228  1  0.63767372  0.49742956  0.23100022  1
  O  O229  1  0.61338808  0.48811749  0.74324614  1
  O  O230  1  0.64685445  0.98363917  0.25070284  1
  O  O231  1  0.63187005  0.98965748  0.72721333  1
  O  O232  1  0.37995193  0.03409737  0.30192778  1
  O  O233  1  0.33430821  -0.02385934  0.72800435  1
  O  O234  1  0.39474039  0.51628061  0.23976316  1
  O  O235  1  0.35396421  0.53741756  0.80923207  1
  O  O236  1  0.87070920  0.00347537  0.25033024  1
  O  O237  1  0.85896245  -0.00515973  0.74583939  1
  O  O238  1  0.85863040  0.50665713  0.22052240  1
  O  O239  1  0.85791612  0.50397619  0.76066092  1
  O  O240  1  0.07432819  0.39590350  0.43402681  1
  O  O241  1  0.11064292  0.41924501  0.84172586  1
  O  O242  1  0.11275343  0.85370817  0.35265253  1
  O  O243  1  0.05224160  0.88593413  0.92601686  1
  O  O244  1  0.63230878  0.37364191  0.35601580  1
  O  O245  1  0.60055439  0.35603570  0.92428502  1
  O  O246  1  0.66304284  0.85670359  0.34824649  1
  O  O247  1  0.61755007  0.89651881  0.86036486  1
  O  O248  1  0.37763616  0.13762490  0.13943871  1
  O  O249  1  0.34856100  0.14629065  0.58615883  1
  O  O250  1  0.38221438  0.64679229  0.13744385  1
  O  O251  1  0.40170297  0.61930808  0.60925719  1
  O  O252  1  0.88457030  0.13136419  0.11957156  1
  O  O253  1  0.89611312  0.12599976  0.62068293  1
  O  O254  1  0.87407801  0.63923684  0.10512148  1
  O  O255  1  0.84602181  0.62839264  0.64827933  1
  O  O256  1  0.25014684  0.26195897  0.14050948  1
  O  O257  1  0.21725441  0.28695578  0.56654491  1
  O  O258  1  0.27242928  0.76775312  0.13530650  1
  O  O259  1  0.28122482  0.73989897  0.61061439  1
  O  O260  1  0.76678875  0.24480057  0.11078354  1
  O  O261  1  0.74039161  0.24010673  0.59681110  1
  O  O262  1  0.76535075  0.75996756  0.10320522  1
  O  O263  1  0.75718363  0.76197109  0.63884996  1
  O  O264  1  0.24189459  0.33002771  0.40981834  1
  O  O265  1  0.25380116  0.24286337  0.89267621  1
  O  O266  1  0.24052122  0.73635790  0.37498717  1
  O  O267  1  0.28287467  0.74480906  0.91582922  1
  O  O268  1  0.75193571  0.24609910  0.37243692  1
  O  O269  1  0.73471889  0.22759278  0.86044804  1
  O  O270  1  0.79695908  0.72099480  0.35968582  1
  O  O271  1  0.75170820  0.74651986  0.87615513  1
  O  O272  1  0.02193463  0.12936393  0.00528035  1
  O  O273  1  0.01447118  0.10899289  0.50393817  1
  O  O274  1  0.00869426  0.60046981  -0.02220360  1
  O  O275  1  -0.08259270  0.53321481  0.51030417  1
  O  O276  1  0.50342029  0.11645174  0.02911552  1
  O  O277  1  0.50953694  0.03914992  0.43198881  1
  O  O278  1  0.52073522  0.63194515  -0.00030492  1
  O  O279  1  0.52399600  0.61523875  0.49758912  1
  O  O280  1  0.52290550  0.39002363  0.47828305  1
  O  O281  1  0.47424334  0.35034479  1.01362778  1
  O  O282  1  0.48707519  0.86363038  0.47645050  1
  O  O283  1  0.48437029  0.88747248  1.01256784  1
  O  O284  1  1.01889836  0.41916617  0.47437188  1
  O  O285  1  1.04434681  0.40883987  0.98339443  1
  O  O286  1  1.00296300  0.86783370  0.49903495  1
  O  O287  1  0.99637824  0.86957189  0.97053151  1
  O  O288  1  0.51160999  0.49729853  0.37609443  1
  O  O289  1  0.49638642  0.48485149  0.92751938  1
  O  O290  1  0.53147908  1.00195346  0.37270829  1
  O  O291  1  0.39412455  1.06184675  0.85183397  1
  O  O292  1  0.98334234  0.51885607  0.31966750  1
  O  O293  1  0.96890388  0.49217654  0.87629553  1
  O  O294  1  0.98339501  0.99219324  0.38595568  1
  O  O295  1  0.97718372  1.00975740  0.86267361  1
  O  O296  1  0.01235971  0.00756038  0.11708989  1
  O  O297  1  -0.01221050  -0.00601578  0.59579851  1
  O  O298  1  0.01516691  0.50201498  0.10281903  1
  O  O299  1  -0.08245591  0.43701135  0.60261073  1
  O  O300  1  0.47816817  0.01424372  0.16469302  1
  O  O301  1  0.52338267  -0.01586999  0.59223500  1
  O  O302  1  0.51647727  0.50450397  0.10111582  1
  O  O303  1  0.51349936  0.50532983  0.60457937  1
  O  O304  1  0.25090093  0.39707080  0.25090579  1
  O  O305  1  0.26868232  0.41416146  0.77535607  1
  O  O306  1  0.22963054  0.86645328  0.24329116  1
  O  O307  1  0.21419765  0.86948975  0.69625491  1
  O  O308  1  0.74534366  0.39173826  0.24232770  1
  O  O309  1  0.65528970  0.43915521  0.79472228  1
  O  O310  1  0.75637462  0.87866011  0.22866218  1
  O  O311  1  0.73806231  0.88623146  0.74745007  1
  O  O312  1  0.26393570  0.13343001  0.27994483  1
  O  O313  1  0.25900018  0.08701543  0.73130973  1
  O  O314  1  0.27973402  0.61828470  0.25299702  1
  O  O315  1  0.24055570  0.62211617  0.76443073  1
  O  O316  1  0.75962526  0.11545598  0.24463104  1
  O  O317  1  0.73179639  0.10737232  0.75632601  1
  O  O318  1  0.74347241  0.61689819  0.24038069  1
  O  O319  1  0.72919951  0.63468336  0.76004133  1
  O  O320  1  0.39109806  0.16185540  0.40009285  1
  O  O321  1  0.36125696  0.11807149  0.88556613  1
  O  O322  1  0.40190495  0.61398277  0.35706921  1
  O  O323  1  0.38151087  0.59618229  0.97420006  1
  O  O324  1  0.87248581  0.11730971  0.35868752  1
  O  O325  1  0.86222610  0.12159318  0.86814638  1
  O  O326  1  0.84786132  0.66321012  0.35967453  1
  O  O327  1  0.86080630  0.62606525  0.85370518  1
  O  O328  1  0.12460751  0.39296350  0.13347566  1
  O  O329  1  0.09012492  0.40023798  0.63721599  1
  O  O330  1  0.13886319  0.89365164  0.11927390  1
  O  O331  1  0.17514035  0.90655828  0.64770270  1
  O  O332  1  0.62175018  0.38414446  0.12790560  1
  O  O333  1  0.59836363  0.35908861  0.64255735  1
  O  O334  1  0.64963849  0.87066459  0.13253535  1
  O  O335  1  0.64062268  0.87632769  0.62243525  1
  O  O336  1  0.13699510  0.27388122  0.24762825  1
  O  O337  1  0.22105675  0.26151483  0.71104741  1
  O  O338  1  0.11640989  0.75779287  0.21475924  1
  O  O339  1  0.11127741  0.73387194  0.71521501  1
  O  O340  1  0.64435136  0.27027306  0.24938653  1
  O  O341  1  0.57290694  0.19843681  0.72559524  1
  O  O342  1  0.62197470  0.75696517  0.23702463  1
  O  O343  1  0.61111708  0.77608121  0.75476286  1
  O  O344  1  0.36478481  0.24716068  0.25646108  1
  O  O345  1  0.40749063  0.23765644  0.72362147  1
  O  O346  1  0.39610093  0.74162162  0.25125398  1
  O  O347  1  0.38430959  0.76844656  0.72478974  1
  O  O348  1  0.86971580  0.23549657  0.23163746  1
  O  O349  1  0.93463765  0.27051665  0.78860927  1
  O  O350  1  0.89267902  0.74700582  0.21924404  1
  O  O351  1  0.89200124  0.73154621  0.74252595  1
  O  O352  1  0.40077333  0.50764377  0.48166092  1
  O  O353  1  0.37411693  0.47139893  1.04347688  1
  O  O354  1  0.37105296  0.97415379  0.48025184  1
  O  O355  1  0.36842323  0.99983563  1.00909952  1
  O  O356  1  0.87565688  0.47503891  0.54735466  1
  O  O357  1  0.87999888  0.49598350  0.99154904  1
  O  O358  1  0.86969134  0.99920561  0.48126386  1
  O  O359  1  0.86619072  1.00019719  0.97843005  1
  O  O360  1  0.14007424  0.01537791  0.01797086  1
  O  O361  1  0.11325905  -0.01947027  0.48938126  1
  O  O362  1  0.15344825  0.51798534  0.01815975  1
  O  O363  1  0.07848498  0.57652198  0.49747418  1
  O  O364  1  0.62749381  0.01425025  0.01320894  1
  O  O365  1  0.64943058  -0.01128934  0.49791450  1
  O  O366  1  0.63714764  0.52225756  0.00356700  1
  O  O367  1  0.62972738  0.50439176  0.48960884  1
  O  O368  1  0.37814700  0.35662157  0.13958588  1
  O  O369  1  0.38664311  0.38785810  0.65873617  1
  O  O370  1  0.36941681  0.87737709  0.16418850  1
  O  O371  1  0.38891083  0.86921637  0.60451140  1
  O  O372  1  0.89344741  0.35416417  0.12508124  1
  O  O373  1  0.75579980  0.34478678  0.71852903  1
  O  O374  1  0.86333435  0.86689154  0.11256560  1
  O  O375  1  0.86388277  0.85573183  0.63382744  1
  O  O376  1  0.11630383  0.10284279  0.36526382  1
  O  O377  1  0.13086485  0.11322173  0.88910271  1
  O  O378  1  0.12063636  0.56144634  0.43812432  1
  O  O379  1  0.11430820  0.60671370  0.86037507  1
  O  O380  1  0.64065957  0.14532076  0.35277000  1
  O  O381  1  0.59357871  0.10485154  0.88377537  1
  O  O382  1  0.63437732  0.63010038  0.38261333  1
  O  O383  1  0.63324761  0.63524570  0.88530741  1
