# generated using pymatgen
data_VZnO4
_symmetry_space_group_name_H-M   'P 1'
_cell_length_a   16.94292966
_cell_length_b   16.98950695
_cell_length_c   16.92583817
_cell_angle_alpha   89.70649070
_cell_angle_beta   89.99701386
_cell_angle_gamma   89.67105964
_symmetry_Int_Tables_number   1
_chemical_formula_structural   VZnO4
_chemical_formula_sum   'V64 Zn64 O256'
_cell_volume   4871.99250716
_cell_formula_units_Z   64
loop_
 _symmetry_equiv_pos_site_id
 _symmetry_equiv_pos_as_xyz
  1  'x, y, z'
loop_
 _atom_site_type_symbol
 _atom_site_label
 _atom_site_symmetry_multiplicity
 _atom_site_fract_x
 _atom_site_fract_y
 _atom_site_fract_z
 _atom_site_occupancy
  V  V0  1  0.60596941  0.14011625  -0.00926182  1
  V  V1  1  0.74744594  0.36092226  0.13590732  1
  V  V2  1  0.12466055  -0.00943026  0.62948566  1
  V  V3  1  0.51650018  0.73739796  0.21980296  1
  V  V4  1  0.14036999  0.00588735  0.14241816  1
  V  V5  1  0.00735075  0.35840653  0.86837160  1
  V  V6  1  0.10874460  0.36976002  0.26452724  1
  V  V7  1  0.64294758  0.87482016  0.24342289  1
  V  V8  1  -0.00390110  0.86955749  0.36194747  1
  V  V9  1  0.87292135  0.00482971  0.90218106  1
  V  V10  1  0.75728387  0.75547712  0.51384795  1
  V  V11  1  0.26250073  0.11233034  0.35673741  1
  V  V12  1  0.02045674  0.87370481  0.86109232  1
  V  V13  1  0.75359883  0.00580725  0.72319248  1
  V  V14  1  0.24873478  0.13787590  0.86020760  1
  V  V15  1  0.86072527  0.00680030  0.36286505  1
  V  V16  1  0.67479812  0.18771339  0.42803132  1
  V  V17  1  0.60545270  0.37447102  0.25947491  1
  V  V18  1  0.61941236  0.50581988  0.63011902  1
  V  V19  1  0.88194221  0.24514827  0.61704817  1
  V  V20  1  0.64114048  0.75813144  0.86941334  1
  V  V21  1  0.26365007  0.48324854  0.76047409  1
  V  V22  1  0.88682662  0.49563044  0.38903104  1
  V  V23  1  0.23709290  0.38109721  0.12997303  1
  V  V24  1  0.12644142  0.36995322  0.72614841  1
  V  V25  1  0.48289743  0.25120635  0.74146070  1
  V  V26  1  0.60124950  -0.00751558  0.12128555  1
  V  V27  1  0.25804529  0.24439865  0.00870444  1
  V  V28  1  0.37001916  0.88681728  0.00868165  1
  V  V29  1  0.14182124  0.86787111  0.25895913  1
  V  V30  1  0.61560473  0.01126997  0.61092952  1
  V  V31  1  0.24734771  -0.02396779  0.74777113  1
  V  V32  1  0.11009939  0.63278928  0.49345010  1
  V  V33  1  0.37748373  0.37833278  0.01144485  1
  V  V34  1  0.38005295  -0.00309086  0.86804678  1
  V  V35  1  0.48239765  0.00905603  0.49255133  1
  V  V36  1  0.11761822  0.13698165  0.00701560  1
  V  V37  1  0.63325972  0.74930126  0.37570274  1
  V  V38  1  -0.01246879  0.63988216  0.62800999  1
  V  V39  1  -0.00558213  0.36380028  0.39608988  1
  V  V40  1  0.63741792  0.50846739  0.12365573  1
  V  V41  1  0.87671389  0.87257359  0.51363143  1
  V  V42  1  0.75537082  0.51126537  0.75380514  1
  V  V43  1  0.89167492  0.62736334  0.24763052  1
  V  V44  1  0.49635432  0.87043828  0.37971294  1
  V  V45  1  0.27301251  0.24559416  0.48614435  1
  V  V46  1  0.87493579  0.36763114  -0.00420896  1
  V  V47  1  0.63188378  0.36569785  0.76295703  1
  V  V48  1  0.12346961  0.13139920  0.49324816  1
  V  V49  1  0.74748467  0.24559784  -0.03337284  1
  V  V50  1  0.94333159  0.19897465  0.19212902  1
  V  V51  1  0.26136801  0.50307056  0.26441178  1
  V  V52  1  0.49056905  0.37515661  0.87405071  1
  V  V53  1  0.75425991  0.61494153  0.37235069  1
  V  V54  1  0.74870306  0.36398372  0.61635827  1
  V  V55  1  0.48266014  0.50996358  0.49314202  1
  V  V56  1  0.89172273  0.12393807  0.74457633  1
  V  V57  1  0.35076386  0.72842848  0.12350807  1
  V  V58  1  0.50702192  0.51223232  0.00099684  1
  V  V59  1  0.63113041  0.62504449  0.51152179  1
  V  V60  1  0.88185097  0.50756726  0.87083173  1
  V  V61  1  0.01223729  -0.01146899  0.00775026  1
  V  V62  1  -0.00535895  0.00724572  0.50591819  1
  V  V63  1  0.61355917  0.88178462  0.74817559  1
  Zn  Zn64  1  0.18135112  0.19250712  0.18807437  1
  Zn  Zn65  1  0.17186619  0.18467180  0.67339269  1
  Zn  Zn66  1  0.18153439  0.68716424  0.21041581  1
  Zn  Zn67  1  0.15242756  0.63497396  0.70606746  1
  Zn  Zn68  1  0.67960967  0.18156840  0.25485406  1
  Zn  Zn69  1  0.68530822  0.18318106  0.69128918  1
  Zn  Zn70  1  0.70303219  0.68771994  0.18419535  1
  Zn  Zn71  1  0.75802903  0.72267504  0.72282549  1
  Zn  Zn72  1  0.31096720  0.28793088  0.29989938  1
  Zn  Zn73  1  0.30693715  0.31261589  0.81713176  1
  Zn  Zn74  1  0.29079198  0.83495421  0.38389416  1
  Zn  Zn75  1  0.22722081  0.81758711  0.86997879  1
  Zn  Zn76  1  0.81416068  0.31190826  0.32014988  1
  Zn  Zn77  1  0.82048215  0.31175053  0.80480180  1
  Zn  Zn78  1  0.82364748  0.81104878  0.31887814  1
  Zn  Zn79  1  0.81417079  0.83969183  0.83476705  1
  Zn  Zn80  1  0.19136649  0.42791478  0.43558391  1
  Zn  Zn81  1  0.19277164  0.43909921  0.92571180  1
  Zn  Zn82  1  0.18004097  0.94287148  0.43740244  1
  Zn  Zn83  1  0.19504677  0.95413723  0.94390946  1
  Zn  Zn84  1  0.68495968  0.43674771  0.44075113  1
  Zn  Zn85  1  0.69386270  0.44068602  0.93927953  1
  Zn  Zn86  1  0.68657707  0.93598254  0.43781544  1
  Zn  Zn87  1  0.66230266  0.97353455  0.91559464  1
  Zn  Zn88  1  0.32413412  0.05757817  0.07140103  1
  Zn  Zn89  1  0.29969997  0.05818167  0.55912406  1
  Zn  Zn90  1  0.31529115  0.55070493  0.06396098  1
  Zn  Zn91  1  0.29702823  0.55857567  0.59011503  1
  Zn  Zn92  1  0.77461750  0.14445548  0.11215124  1
  Zn  Zn93  1  0.80728898  0.07424470  0.55097421  1
  Zn  Zn94  1  0.85143145  0.52533372  0.08660109  1
  Zn  Zn95  1  0.81452220  0.56025260  0.57062913  1
  Zn  Zn96  1  0.44079914  0.45330303  0.18536165  1
  Zn  Zn97  1  0.44302334  0.41543163  0.67487047  1
  Zn  Zn98  1  0.44035160  0.89071257  0.18257222  1
  Zn  Zn99  1  0.43999386  0.95207141  0.68941154  1
  Zn  Zn100  1  0.94208047  0.45601598  0.21028664  1
  Zn  Zn101  1  0.93233970  0.43143666  0.67668994  1
  Zn  Zn102  1  0.93362202  1.03849533  0.18091318  1
  Zn  Zn103  1  0.93950990  0.93396981  0.68869284  1
  Zn  Zn104  1  0.05423134  0.06119806  0.32009191  1
  Zn  Zn105  1  0.07029245  0.06464142  0.81911330  1
  Zn  Zn106  1  0.07007293  0.55135882  0.30908440  1
  Zn  Zn107  1  0.03785776  0.52732052  0.76446415  1
  Zn  Zn108  1  0.56340451  0.04875587  0.31247567  1
  Zn  Zn109  1  0.56432117  0.07538557  0.80098616  1
  Zn  Zn110  1  0.56643987  0.55581618  0.31209632  1
  Zn  Zn111  1  0.58742128  0.55589853  0.83437105  1
  Zn  Zn112  1  0.44028865  0.19153823  0.40573199  1
  Zn  Zn113  1  0.42799575  0.19499878  0.92016315  1
  Zn  Zn114  1  0.45395830  0.67767383  0.43621826  1
  Zn  Zn115  1  0.48830548  0.72027790  1.00945776  1
  Zn  Zn116  1  0.92753156  0.18460105  0.43571077  1
  Zn  Zn117  1  0.93484946  0.18463846  0.93068584  1
  Zn  Zn118  1  0.93971120  0.68817611  0.43676558  1
  Zn  Zn119  1  0.94108725  0.69834747  0.80300493  1
  Zn  Zn120  1  0.05927667  0.31959183  0.06151945  1
  Zn  Zn121  1  0.06018690  0.31098094  0.56656883  1
  Zn  Zn122  1  0.07712601  0.82534890  0.07874734  1
  Zn  Zn123  1  0.06605993  0.80742024  0.55946219  1
  Zn  Zn124  1  0.57495514  0.32027690  0.05721492  1
  Zn  Zn125  1  0.55354566  0.33037188  0.56354739  1
  Zn  Zn126  1  0.58467954  0.85263595  0.02745037  1
  Zn  Zn127  1  0.57596578  0.82635465  0.56099987  1
  O  O128  1  0.12699659  0.12030664  0.11532334  1
  O  O129  1  0.13033972  0.10392147  0.60599286  1
  O  O130  1  0.10707781  0.66612150  0.10439589  1
  O  O131  1  0.10150063  0.61867406  0.60875717  1
  O  O132  1  0.61391406  0.09282432  0.08697092  1
  O  O133  1  0.62353158  0.10972468  0.62515110  1
  O  O134  1  0.64785142  0.60640288  0.12332700  1
  O  O135  1  0.63765841  0.60846668  0.62310731  1
  O  O136  1  0.41615054  0.25838090  0.31708968  1
  O  O137  1  0.38712207  0.37712320  0.88431606  1
  O  O138  1  0.40028488  0.85569191  0.36180737  1
  O  O139  1  0.38116373  0.89806426  0.87182837  1
  O  O140  1  0.88224209  0.38692343  0.37553608  1
  O  O141  1  0.88557365  0.37396999  0.87505690  1
  O  O142  1  0.88148414  0.88632272  0.38608707  1
  O  O143  1  0.90027679  0.90648742  0.87379743  1
  O  O144  1  0.23210311  0.01615734  0.36651156  1
  O  O145  1  0.25255607  0.01318689  0.85574449  1
  O  O146  1  0.26341757  0.47601568  0.36199273  1
  O  O147  1  0.26500782  0.49951388  0.86022663  1
  O  O148  1  0.76219575  -0.00624906  0.38029641  1
  O  O149  1  0.77476021  -0.00521317  0.90766407  1
  O  O150  1  0.75421893  0.51367236  0.38602487  1
  O  O151  1  0.75058255  0.50133278  0.86004297  1
  O  O152  1  0.25024689  0.48309209  0.13110668  1
  O  O153  1  0.28717053  0.42415679  0.59787101  1
  O  O154  1  0.23903533  1.01310587  0.13348549  1
  O  O155  1  0.24017402  0.99209659  0.63678088  1
  O  O156  1  0.74130661  0.47831237  0.10920783  1
  O  O157  1  0.74852445  0.48546025  0.63788396  1
  O  O158  1  0.80609414  0.93386844  0.11658321  1
  O  O159  1  0.73891589  1.00317015  0.62028280  1
  O  O160  1  0.00605599  0.37735920  0.26188898  1
  O  O161  1  0.01668051  0.37854164  0.75940136  1
  O  O162  1  -0.00653676  0.87974379  0.26378125  1
  O  O163  1  0.01422762  0.89294944  0.76251651  1
  O  O164  1  0.50624273  0.38502265  0.24736674  1
  O  O165  1  0.51260255  0.38269386  0.76667814  1
  O  O166  1  0.51941927  0.85487992  0.25836573  1
  O  O167  1  0.51340009  0.87932780  0.74237009  1
  O  O168  1  0.48457829  0.11133312  0.24281513  1
  O  O169  1  0.50867170  0.15413206  0.73929902  1
  O  O170  1  0.51190168  0.64425942  0.25496475  1
  O  O171  1  0.41362690  0.64999916  0.77893418  1
  O  O172  1  0.99747807  0.12635057  0.24476763  1
  O  O173  1  0.99088923  0.11370784  0.74663317  1
  O  O174  1  0.99259899  0.61339224  0.24731395  1
  O  O175  1  1.02226216  0.64158331  0.74298618  1
  O  O176  1  0.36404833  0.26363286  -0.00341374  1
  O  O177  1  0.37248746  0.24909615  0.48560659  1
  O  O178  1  0.37940298  0.76174280  0.02678795  1
  O  O179  1  0.42648376  0.74476953  0.54196502  1
  O  O180  1  0.85861952  0.25559550  -0.01733057  1
  O  O181  1  0.86849915  0.23947897  0.51803221  1
  O  O182  1  0.84023359  0.72046388  0.00861729  1
  O  O183  1  0.86572067  0.76200509  0.49646498  1
  O  O184  1  0.12040891  0.22987115  0.51401421  1
  O  O185  1  0.13645312  0.24084612  1.00688901  1
  O  O186  1  0.12918880  0.73186068  0.49978860  1
  O  O187  1  0.11750259  0.71778627  1.04937356  1
  O  O188  1  0.61061002  0.24770640  0.50549317  1
  O  O189  1  0.63131842  0.24546520  0.98965137  1
  O  O190  1  0.63934595  0.74735185  0.49741810  1
  O  O191  1  0.58296776  0.76388748  0.95906588  1
  O  O192  1  0.50693595  0.23982782  0.13599973  1
  O  O193  1  0.48251862  0.29829503  0.64623967  1
  O  O194  1  0.53578923  0.73497720  0.12160888  1
  O  O195  1  0.48197329  0.74986167  0.59349508  1
  O  O196  1  1.00099996  0.25727167  0.13422632  1
  O  O197  1  0.98030388  0.25498124  0.62738917  1
  O  O198  1  0.97789372  0.76146234  0.12690346  1
  O  O199  1  0.99699537  0.74170024  0.62381538  1
  O  O200  1  -0.01388269  0.26512799  0.38361562  1
  O  O201  1  -0.00146712  0.25888958  0.86885287  1
  O  O202  1  -0.00576699  0.77098307  0.38201766  1
  O  O203  1  -0.00334709  0.77745581  0.87077898  1
  O  O204  1  0.57212347  0.24052208  0.42948980  1
  O  O205  1  0.49901242  0.26805080  0.86031721  1
  O  O206  1  0.52243209  0.75379332  0.38184639  1
  O  O207  1  0.43658867  0.70611705  0.81848130  1
  O  O208  1  0.23708512  0.12592337  0.48376768  1
  O  O209  1  0.25422526  0.14068904  1.01037135  1
  O  O210  1  0.21590931  0.57831625  0.50346903  1
  O  O211  1  0.21943949  0.58921376  0.99825986  1
  O  O212  1  0.72928123  0.13250273  0.49277991  1
  O  O213  1  0.74151398  0.14633526  1.00064364  1
  O  O214  1  0.74852241  0.63625626  0.49689223  1
  O  O215  1  0.77540638  0.69996146  1.03887406  1
  O  O216  1  0.26003730  0.37511796  0.00690662  1
  O  O217  1  0.23671205  0.33912146  0.49123998  1
  O  O218  1  0.26684008  0.86643621  -0.02946802  1
  O  O219  1  0.25038640  0.86928733  0.47965972  1
  O  O220  1  0.75144328  0.35561949  -0.00966568  1
  O  O221  1  0.74293884  0.37513996  0.51771191  1
  O  O222  1  0.80196899  0.89113530  0.05844310  1
  O  O223  1  0.76057428  0.86320755  0.49741933  1
  O  O224  1  0.14069302  0.47332954  0.25644551  1
  O  O225  1  0.14235083  0.47797451  0.75955353  1
  O  O226  1  0.12028092  1.00143974  0.24347989  1
  O  O227  1  0.13569427  1.00769877  0.73861394  1
  O  O228  1  0.62101037  0.49336285  0.23016636  1
  O  O229  1  0.63553663  0.49393785  0.74580745  1
  O  O230  1  0.62220319  0.98290647  0.23330037  1
  O  O231  1  0.62776589  0.99906389  0.73494047  1
  O  O232  1  0.41946944  0.07861778  0.21268218  1
  O  O233  1  0.35437015  -0.00144158  0.74934473  1
  O  O234  1  0.36003315  0.50611995  0.23979425  1
  O  O235  1  0.36119202  0.46742934  0.73458260  1
  O  O236  1  0.87303210  -0.00491715  0.26310752  1
  O  O237  1  0.86356865  0.01181212  0.73417347  1
  O  O238  1  0.87110953  0.51517473  0.27667020  1
  O  O239  1  0.85982197  0.48503112  0.76075896  1
  O  O240  1  0.10639726  0.37402325  0.37376438  1
  O  O241  1  0.10472245  0.37691503  0.89504451  1
  O  O242  1  0.10669258  0.88850129  0.36222782  1
  O  O243  1  0.12490392  0.87576354  0.88367876  1
  O  O244  1  0.62522803  0.39832709  0.35624436  1
  O  O245  1  0.62270733  0.37582112  0.86538663  1
  O  O246  1  0.62420958  0.86636058  0.36474464  1
  O  O247  1  0.62144056  0.88239803  0.85795091  1
  O  O248  1  0.39951880  0.11225155  0.14242455  1
  O  O249  1  0.32598935  0.15885818  0.61806627  1
  O  O250  1  0.36978925  0.63021389  0.11901284  1
  O  O251  1  0.28445418  0.71303095  0.59192759  1
  O  O252  1  0.88872496  0.13540060  0.12750809  1
  O  O253  1  0.86729935  0.13387331  0.63416345  1
  O  O254  1  0.85710862  0.61787032  0.15147710  1
  O  O255  1  0.88504753  0.62798511  0.62620243  1
  O  O256  1  0.24993711  0.26477984  0.11278015  1
  O  O257  1  0.27024059  0.21627042  0.60366370  1
  O  O258  1  0.25419961  0.74379423  0.14023743  1
  O  O259  1  0.23242938  0.74135044  0.63481746  1
  O  O260  1  0.74232718  0.26213559  0.11791799  1
  O  O261  1  0.74615270  0.26107272  0.63121471  1
  O  O262  1  0.74570181  0.75175767  0.09840779  1
  O  O263  1  0.74911841  0.74733475  0.61108293  1
  O  O264  1  0.25069621  0.22929362  0.38163822  1
  O  O265  1  0.24889753  0.24301751  0.89131222  1
  O  O266  1  0.29372964  0.71075063  0.40047621  1
  O  O267  1  0.24791540  0.66619733  0.83314118  1
  O  O268  1  0.73845127  0.24756526  0.37649312  1
  O  O269  1  0.74532950  0.24355747  0.86803651  1
  O  O270  1  0.74431045  0.74131322  0.38594514  1
  O  O271  1  0.73588488  0.77217244  0.89567977  1
  O  O272  1  0.01769680  0.12882791  -0.00612875  1
  O  O273  1  0.00219322  0.11104426  0.49809089  1
  O  O274  1  0.00247831  0.60406220  0.01549465  1
  O  O275  1  0.00018621  0.62688655  0.51215751  1
  O  O276  1  0.50697969  0.15042780  -0.01025608  1
  O  O277  1  0.49182743  0.10577498  0.47286625  1
  O  O278  1  0.49675091  0.60908483  -0.01275331  1
  O  O279  1  0.52486799  0.62041452  0.50701798  1
  O  O280  1  0.49569805  0.41012487  0.50373096  1
  O  O281  1  0.49188050  0.37010414  0.99252240  1
  O  O282  1  0.50483683  0.87865973  0.48442753  1
  O  O283  1  0.47097801  0.87548498  1.00195821  1
  O  O284  1  1.00010571  0.37640623  0.49456733  1
  O  O285  1  0.98031112  0.36218111  0.98847999  1
  O  O286  1  0.98742542  0.88198334  0.49858131  1
  O  O287  1  1.01464366  0.88661156  1.00254313  1
  O  O288  1  0.48737802  0.52951273  0.39250163  1
  O  O289  1  0.51361276  0.48624944  0.88922601  1
  O  O290  1  0.50136546  0.98025459  0.37983323  1
  O  O291  1  0.47533488  1.02259217  0.85233549  1
  O  O292  1  0.99018353  0.48985024  0.38050395  1
  O  O293  1  0.98415068  0.48643800  0.86507379  1
  O  O294  1  0.98808848  0.99137217  0.39087237  1
  O  O295  1  1.01391901  0.99686474  0.89502041  1
  O  O296  1  0.01736295  0.00257055  0.11286467  1
  O  O297  1  0.00731198  -0.00261943  0.61404680  1
  O  O298  1  -0.04478444  0.48055416  0.10562995  1
  O  O299  1  -0.00622428  0.51909007  0.65494474  1
  O  O300  1  0.50420886  -0.02009675  0.12674901  1
  O  O301  1  0.50519748  0.00031528  0.60776626  1
  O  O302  1  0.51548191  0.49881712  0.10826478  1
  O  O303  1  0.51801860  0.49974869  0.63131066  1
  O  O304  1  0.25648218  0.36973565  0.23595643  1
  O  O305  1  0.23793942  0.37487380  0.75218108  1
  O  O306  1  0.23882042  0.86234985  0.28126820  1
  O  O307  1  0.24203859  0.87962623  0.76490537  1
  O  O308  1  0.75323683  0.37124476  0.23603638  1
  O  O309  1  0.73809332  0.37707805  0.74854286  1
  O  O310  1  0.74134049  0.86380257  0.25489294  1
  O  O311  1  0.74646436  0.91143204  0.76509024  1
  O  O312  1  0.25208004  0.13890388  0.25701081  1
  O  O313  1  0.23761763  0.14162853  0.76214121  1
  O  O314  1  0.22928158  0.59982536  0.25734218  1
  O  O315  1  0.25138696  0.57014949  0.69375363  1
  O  O316  1  0.72980905  0.10215613  0.20274154  1
  O  O317  1  0.74637784  0.10498365  0.75488929  1
  O  O318  1  0.74792024  0.62772532  0.27225299  1
  O  O319  1  0.75213613  0.60838970  0.74070665  1
  O  O320  1  0.36127263  0.10715726  0.37064541  1
  O  O321  1  0.35233953  0.12060335  0.87854659  1
  O  O322  1  0.35349728  0.66818167  0.37678547  1
  O  O323  1  0.28082341  0.71423690  0.88562501  1
  O  O324  1  0.87356886  0.10553170  0.38111612  1
  O  O325  1  0.88515060  0.10503964  0.85970157  1
  O  O326  1  0.86681658  0.61821378  0.37754352  1
  O  O327  1  0.88568497  0.60569433  0.86798615  1
  O  O328  1  0.13423087  0.37718820  0.12834258  1
  O  O329  1  0.12170595  0.38407313  0.62752701  1
  O  O330  1  0.13480034  0.89324154  0.14583828  1
  O  O331  1  0.12017913  0.89145683  0.61754356  1
  O  O332  1  0.63383987  0.37978390  0.13358667  1
  O  O333  1  0.63474917  0.38716318  0.63628094  1
  O  O334  1  0.62769285  0.87057681  0.14062177  1
  O  O335  1  0.62814831  0.89229495  0.63592343  1
  O  O336  1  0.13004479  0.27288781  0.24915926  1
  O  O337  1  0.12920388  0.26798588  0.73459630  1
  O  O338  1  0.11594157  0.77183260  0.24521446  1
  O  O339  1  0.18249259  0.70222971  0.79720245  1
  O  O340  1  0.61932017  0.27387447  0.25246105  1
  O  O341  1  0.61678192  0.26669103  0.74365182  1
  O  O342  1  0.62858499  0.75370987  0.25497416  1
  O  O343  1  0.64846771  0.77889447  0.75534596  1
  O  O344  1  0.45063657  0.25856188  0.17885189  1
  O  O345  1  0.38378656  0.25433750  0.75824119  1
  O  O346  1  0.40908714  0.76718416  0.20606383  1
  O  O347  1  0.37478196  0.79451051  0.69861770  1
  O  O348  1  0.87887729  0.25034254  0.24952702  1
  O  O349  1  0.86958048  0.22668554  0.74576096  1
  O  O350  1  0.87498205  0.72685160  0.26427133  1
  O  O351  1  0.85314587  0.75942642  0.76730990  1
  O  O352  1  0.39048192  0.53887911  0.52703473  1
  O  O353  1  0.39225253  0.48655455  1.00327428  1
  O  O354  1  0.38431219  0.99750161  0.51118240  1
  O  O355  1  0.36231573  0.99670641  0.98234796  1
  O  O356  1  0.86999438  0.50321304  0.48825727  1
  O  O357  1  0.85618969  0.47835481  0.97574489  1
  O  O358  1  0.88123304  0.99209640  0.50373246  1
  O  O359  1  0.90465088  1.01309842  1.00142631  1
  O  O360  1  0.12569287  0.01243157  0.01491609  1
  O  O361  1  0.10931517  0.00409710  0.50626487  1
  O  O362  1  0.16283311  0.53872758  -0.00753182  1
  O  O363  1  0.15871440  0.51612235  0.50604677  1
  O  O364  1  0.63373164  -0.04411445  0.02553360  1
  O  O365  1  0.61535241  -0.00538106  0.50710415  1
  O  O366  1  0.61687291  0.49330703  0.00727131  1
  O  O367  1  0.62637043  0.50696382  0.51643072  1
  O  O368  1  0.37284914  0.37612941  0.11295927  1
  O  O369  1  0.34778081  0.38084908  0.59757970  1
  O  O370  1  0.35534126  0.90015945  0.10987268  1
  O  O371  1  0.36801443  0.85066870  0.65155697  1
  O  O372  1  0.85470973  0.36955695  0.09899680  1
  O  O373  1  0.85808949  0.35680955  0.63774635  1
  O  O374  1  0.91136361  0.79087343  0.11671400  1
  O  O375  1  0.87616989  0.87605796  0.61261305  1
  O  O376  1  0.11591557  0.12489150  0.39119632  1
  O  O377  1  0.14464577  0.11819605  0.89703764  1
  O  O378  1  0.10358354  0.61781264  0.39292497  1
  O  O379  1  0.03067995  0.63690156  0.95771136  1
  O  O380  1  0.63752634  0.12277123  0.35381808  1
  O  O381  1  0.62365471  0.08587590  0.90274274  1
  O  O382  1  0.63846233  0.62863956  0.38771423  1
  O  O383  1  0.62043837  0.65951540  0.85089438  1
