# generated using pymatgen
data_VZnO4
_symmetry_space_group_name_H-M   'P 1'
_cell_length_a   16.89573733
_cell_length_b   16.87631836
_cell_length_c   16.92995348
_cell_angle_alpha   90.00926547
_cell_angle_beta   90.18790945
_cell_angle_gamma   89.97487373
_symmetry_Int_Tables_number   1
_chemical_formula_structural   VZnO4
_chemical_formula_sum   'V64 Zn64 O256'
_cell_volume   4827.34391628
_cell_formula_units_Z   64
loop_
 _symmetry_equiv_pos_site_id
 _symmetry_equiv_pos_as_xyz
  1  'x, y, z'
loop_
 _atom_site_type_symbol
 _atom_site_label
 _atom_site_symmetry_multiplicity
 _atom_site_fract_x
 _atom_site_fract_y
 _atom_site_fract_z
 _atom_site_occupancy
  V  V0  1  0.25824390  0.49429229  0.25182593  1
  V  V1  1  -0.00388673  0.37654018  0.87424774  1
  V  V2  1  0.73480971  0.24910599  0.49713006  1
  V  V3  1  0.74822740  0.86164499  0.10453060  1
  V  V4  1  0.36024027  0.00103965  0.38634386  1
  V  V5  1  0.50071489  0.12049107  0.62207417  1
  V  V6  1  0.23555814  0.14689221  0.38541664  1
  V  V7  1  0.65498039  0.49054708  0.14135464  1
  V  V8  1  0.50741370  -0.00017300  0.50104087  1
  V  V9  1  -0.00452703  0.62692048  0.13737907  1
  V  V10  1  0.22974120  -0.00126908  0.74468119  1
  V  V11  1  0.38925827  0.75342787  0.61873407  1
  V  V12  1  0.72451504  0.62024626  0.90579469  1
  V  V13  1  0.01250921  -0.01041858  0.51291071  1
  V  V14  1  0.37775941  0.62618376  0.76479785  1
  V  V15  1  0.37334850  0.37425091  0.48820427  1
  V  V16  1  0.14625465  0.40113223  0.75244680  1
  V  V17  1  0.24949435  0.24589522  0.01750640  1
  V  V18  1  0.87167771  0.10933882  0.24680865  1
  V  V19  1  0.00377551  -0.01412706  -0.00182852  1
  V  V20  1  0.25873389  0.75999620  0.49561600  1
  V  V21  1  0.25623536  0.62042193  0.37835533  1
  V  V22  1  0.37341155  0.75445259  0.11179143  1
  V  V23  1  0.24352814  0.87889840  0.10981727  1
  V  V24  1  -0.00080877  0.38318382  0.36959474  1
  V  V25  1  0.76122362  0.61238089  0.37018733  1
  V  V26  1  0.13118739  0.88245848  0.24478094  1
  V  V27  1  0.87419346  0.73541271  0.60380784  1
  V  V28  1  0.35951368  0.25963435  0.62394446  1
  V  V29  1  0.61519397  0.62335549  0.50196378  1
  V  V30  1  -0.00978024  0.74058660  0.25604977  1
  V  V31  1  0.13406474  0.49035449  0.14022255  1
  V  V32  1  0.00521158  0.50081193  0.01286870  1
  V  V33  1  0.50849123  0.48556087  0.46121343  1
  V  V34  1  -0.01240501  0.87668267  0.37819063  1
  V  V35  1  0.50087011  0.87550498  0.37075455  1
  V  V36  1  0.76198184  0.87662611  0.63839927  1
  V  V37  1  0.37029124  -0.01156833  0.87968039  1
  V  V38  1  0.87890148  0.52267764  0.88600936  1
  V  V39  1  0.23964104  0.88274834  0.62071452  1
  V  V40  1  0.62051157  0.23141732  0.88981107  1
  V  V41  1  0.86545729  0.38038065  0.53946216  1
  V  V42  1  0.77518814  0.13351477  0.85431228  1
  V  V43  1  0.37179530  0.11689820  0.24765634  1
  V  V44  1  0.38695900  0.63883283  0.25172221  1
  V  V45  1  0.63311335  0.74969848  0.36392700  1
  V  V46  1  0.32548118  0.41936464  -0.04040901  1
  V  V47  1  0.88180490  -0.02419664  0.86130732  1
  V  V48  1  0.75618940  0.24106957  0.00703208  1
  V  V49  1  0.35971449  0.12590972  0.75624933  1
  V  V50  1  0.00194978  0.75212741  0.73961328  1
  V  V51  1  0.50519571  0.24935785  0.27505484  1
  V  V52  1  0.50488102  0.24878111  0.75219276  1
  V  V53  1  0.39051970  0.25581779  0.12592255  1
  V  V54  1  0.50742995  0.49563575  0.03656434  1
  V  V55  1  0.86939332  0.37165573  0.01857302  1
  V  V56  1  0.65672032  0.35845764  0.26495836  1
  V  V57  1  0.11331351  0.12725735  0.02418558  1
  V  V58  1  0.14481708  0.63329663  0.00825340  1
  V  V59  1  0.51145584  0.38117457  0.88139001  1
  V  V60  1  0.12908079  0.25172732  0.86996014  1
  V  V61  1  0.12470127  0.74636821  0.37569030  1
  V  V62  1  0.51373312  0.76622946  0.76328760  1
  V  V63  1  0.60661837  -0.01066137  0.09809365  1
  Zn  Zn64  1  0.19141204  0.17454599  0.19317436  1
  Zn  Zn65  1  0.17970659  0.20138593  0.69131019  1
  Zn  Zn66  1  0.19173785  0.68876556  0.18827133  1
  Zn  Zn67  1  0.20512207  0.67653697  0.67681548  1
  Zn  Zn68  1  0.68486628  0.18505352  0.19076999  1
  Zn  Zn69  1  0.70181891  0.17299824  0.65803577  1
  Zn  Zn70  1  0.69223808  0.68165740  0.19311731  1
  Zn  Zn71  1  0.68233101  0.70034248  0.67565006  1
  Zn  Zn72  1  0.31630677  0.30514484  0.31104723  1
  Zn  Zn73  1  0.31095452  0.31237225  0.81741371  1
  Zn  Zn74  1  0.31433722  0.82121762  0.30944704  1
  Zn  Zn75  1  0.32589315  0.82212450  0.79281903  1
  Zn  Zn76  1  0.83813527  0.29804432  0.33858547  1
  Zn  Zn77  1  0.72646795  0.36345651  0.67735177  1
  Zn  Zn78  1  0.80487943  0.81169947  0.30571137  1
  Zn  Zn79  1  0.81203822  0.78892172  0.80553820  1
  Zn  Zn80  1  0.19307149  0.42578957  0.42755630  1
  Zn  Zn81  1  0.15890911  0.48906669  0.89859473  1
  Zn  Zn82  1  0.17883270  0.93805176  0.43585902  1
  Zn  Zn83  1  0.21207278  0.96910896  0.95539758  1
  Zn  Zn84  1  0.69585300  0.43556039  0.43689979  1
  Zn  Zn85  1  0.72655219  0.40056909  0.88129344  1
  Zn  Zn86  1  0.68165025  0.91698686  0.46598219  1
  Zn  Zn87  1  0.70366620  0.95083080  0.93424729  1
  Zn  Zn88  1  0.30847490  0.06436583  0.06972000  1
  Zn  Zn89  1  0.30831495  0.07268446  0.56227919  1
  Zn  Zn90  1  0.32563296  0.56507556  0.07359234  1
  Zn  Zn91  1  0.35567381  0.57954492  0.53819135  1
  Zn  Zn92  1  0.81477018  0.04758691  0.04982972  1
  Zn  Zn93  1  0.78332792  0.04809507  0.53092717  1
  Zn  Zn94  1  0.81376329  0.57254352  0.06465350  1
  Zn  Zn95  1  0.78681901  0.56526229  0.56866741  1
  Zn  Zn96  1  0.43441830  0.43151388  0.21052719  1
  Zn  Zn97  1  0.42782937  0.43321824  0.70072253  1
  Zn  Zn98  1  0.45870876  0.89628123  0.16705150  1
  Zn  Zn99  1  0.42677274  0.93658980  0.68210589  1
  Zn  Zn100  1  0.93477539  0.43806859  0.19816467  1
  Zn  Zn101  1  0.87244516  0.41213734  0.74808251  1
  Zn  Zn102  1  0.93662063  0.91437577  0.17526320  1
  Zn  Zn103  1  0.94029842  0.91891060  0.68789130  1
  Zn  Zn104  1  0.06329999  0.05755087  0.31839268  1
  Zn  Zn105  1  0.05809406  0.06079744  0.81313418  1
  Zn  Zn106  1  0.06720191  0.55868287  0.32199333  1
  Zn  Zn107  1  0.09430285  0.61662226  0.80045443  1
  Zn  Zn108  1  0.52912309  0.03081744  0.27980605  1
  Zn  Zn109  1  0.54835516  0.06073073  0.82357600  1
  Zn  Zn110  1  0.58240335  0.56300403  0.28960231  1
  Zn  Zn111  1  0.52954842  0.59081205  0.83124245  1
  Zn  Zn112  1  0.42826294  0.18433982  0.44232274  1
  Zn  Zn113  1  0.43182126  0.17923799  0.94091206  1
  Zn  Zn114  1  0.44775893  0.68796705  0.43204223  1
  Zn  Zn115  1  0.46802861  0.69622322  0.95173783  1
  Zn  Zn116  1  0.95070369  0.22036841  0.48146862  1
  Zn  Zn117  1  0.94124851  0.19144856  0.93909740  1
  Zn  Zn118  1  0.92064197  0.54368563  0.44677886  1
  Zn  Zn119  1  0.96147187  0.70414397  0.93448281  1
  Zn  Zn120  1  0.07318173  0.32079146  0.06308746  1
  Zn  Zn121  1  0.08019531  0.38562625  0.54811250  1
  Zn  Zn122  1  0.05588570  0.81124643  0.05671829  1
  Zn  Zn123  1  0.05976077  0.79993150  0.55848323  1
  Zn  Zn124  1  0.57389975  0.32011345  0.06835781  1
  Zn  Zn125  1  0.57420172  0.30831830  0.56048823  1
  Zn  Zn126  1  0.58605470  0.78088376  0.09400412  1
  Zn  Zn127  1  0.57256368  0.81470332  0.55213998  1
  O  O128  1  0.12016228  0.11840037  0.12296592  1
  O  O129  1  0.07789721  0.13994302  0.65906444  1
  O  O130  1  0.12155807  0.61502352  0.12444478  1
  O  O131  1  0.15413611  0.58104797  0.61508500  1
  O  O132  1  0.62254317  0.09201874  0.15254306  1
  O  O133  1  0.59740907  0.11962025  0.64122302  1
  O  O134  1  0.62607823  0.58910848  0.17323116  1
  O  O135  1  0.61571915  0.63488659  0.60026586  1
  O  O136  1  0.38208603  0.36167404  0.39001969  1
  O  O137  1  0.38668996  0.36499358  0.89223439  1
  O  O138  1  0.38306314  0.89486682  0.36970138  1
  O  O139  1  0.37034087  0.88802417  0.87226349  1
  O  O140  1  0.88952708  0.38671014  0.39146937  1
  O  O141  1  0.89096888  0.39456457  0.89843779  1
  O  O142  1  0.88990677  0.86475907  0.36898422  1
  O  O143  1  0.86665848  0.87715009  0.86782155  1
  O  O144  1  0.25891479  0.00116255  0.37995928  1
  O  O145  1  0.24826319  -0.00645019  0.84728076  1
  O  O146  1  0.24307261  0.51432318  0.36844141  1
  O  O147  1  0.27278007  0.48439235  0.90618553  1
  O  O148  1  0.67754382  0.09663246  0.40005819  1
  O  O149  1  0.77765616  0.02310618  0.87446873  1
  O  O150  1  0.74709160  0.51273823  0.36987030  1
  O  O151  1  0.76898125  0.51472200  0.89328826  1
  O  O152  1  0.24292697  0.50455741  0.14182040  1
  O  O153  1  0.18955168  0.52518930  0.57483190  1
  O  O154  1  0.24757900  0.98040830  0.12165276  1
  O  O155  1  0.25337856  0.99000186  0.62584287  1
  O  O156  1  0.75331411  0.49659244  0.12667246  1
  O  O157  1  0.72277561  0.49496064  0.64642522  1
  O  O158  1  0.73934191  0.98155527  0.10422787  1
  O  O159  1  0.77035040  0.97797173  0.62106418  1
  O  O160  1  0.00835540  0.38394101  0.27014096  1
  O  O161  1  -0.01480715  0.38348508  0.77502396  1
  O  O162  1  0.00611702  0.85814281  0.25673569  1
  O  O163  1  0.01666290  0.85072475  0.75070757  1
  O  O164  1  0.49677456  0.35025106  0.25768029  1
  O  O165  1  0.48390368  0.35326037  0.76930163  1
  O  O166  1  0.51045539  0.91010345  0.27221844  1
  O  O167  1  0.49184364  0.86584124  0.73919570  1
  O  O168  1  0.48320979  0.13585439  0.25564460  1
  O  O169  1  0.47906803  0.13244586  0.74748669  1
  O  O170  1  0.48352721  0.62321877  0.26682339  1
  O  O171  1  0.49373798  0.65203520  0.74213485  1
  O  O172  1  0.97545500  0.11132878  0.25727748  1
  O  O173  1  1.02504934  0.12088970  0.71017092  1
  O  O174  1  1.00912509  0.63007321  0.24927157  1
  O  O175  1  0.99497874  0.56749567  0.66885709  1
  O  O176  1  0.35881683  0.23597802  0.01616427  1
  O  O177  1  0.38390971  0.26211524  0.51726567  1
  O  O178  1  0.37771674  0.74006910  0.01394605  1
  O  O179  1  0.36675096  0.74908163  0.50197715  1
  O  O180  1  0.87025297  0.26217636  0.00096320  1
  O  O181  1  0.86074710  0.27005683  0.52814974  1
  O  O182  1  0.95163320  0.78118998  0.01234493  1
  O  O183  1  0.88187590  0.74515073  0.50818572  1
  O  O184  1  0.07001904  0.20707856  0.51813596  1
  O  O185  1  0.12875696  0.24327698  1.00048004  1
  O  O186  1  0.13957643  0.75302542  0.48414919  1
  O  O187  1  0.12492701  0.73092494  1.00752689  1
  O  O188  1  0.63401444  0.24698988  0.48048329  1
  O  O189  1  0.63554988  0.25041667  0.99396188  1
  O  O190  1  0.59072103  0.72739610  0.47443695  1
  O  O191  1  0.56709106  0.71696795  1.00652790  1
  O  O192  1  0.49086150  0.24913320  0.11666978  1
  O  O193  1  0.49381215  0.24252781  0.64153504  1
  O  O194  1  0.47561341  0.78264675  0.13546668  1
  O  O195  1  0.48854873  0.76199719  0.61014642  1
  O  O196  1  1.03969286  0.25648374  0.16892749  1
  O  O197  1  1.11290203  0.25740863  0.55484828  1
  O  O198  1  1.01040865  0.73533045  0.14740528  1
  O  O199  1  0.98845929  0.74634570  0.62633399  1
  O  O200  1  -0.03665366  0.27445264  0.38224648  1
  O  O201  1  0.01251303  0.27176517  0.89031358  1
  O  O202  1  0.01653929  0.75307870  0.36974733  1
  O  O203  1  0.01205058  0.69977617  0.83490401  1
  O  O204  1  0.50093787  0.24122553  0.37333480  1
  O  O205  1  0.50501270  0.24855042  0.87590042  1
  O  O206  1  0.48652974  0.77519644  0.36740526  1
  O  O207  1  0.50357579  0.76416533  0.86283701  1
  O  O208  1  0.24666483  0.12925554  0.48553502  1
  O  O209  1  0.22994695  0.13857415  1.00691864  1
  O  O210  1  0.26188290  0.63485926  0.48407504  1
  O  O211  1  0.24375713  0.62236843  1.02003881  1
  O  O212  1  0.75382041  0.15469044  0.55344817  1
  O  O213  1  0.77211880  0.13856939  0.98329402  1
  O  O214  1  0.72131174  0.62056231  0.48731506  1
  O  O215  1  0.74040116  0.63489277  1.00479785  1
  O  O216  1  0.25507154  0.35763136  0.00580140  1
  O  O217  1  0.27379225  0.38547463  0.49884863  1
  O  O218  1  0.22874616  0.87006954  0.01035794  1
  O  O219  1  0.25184394  0.86637805  0.50068610  1
  O  O220  1  0.76457426  0.36207710  -0.00879772  1
  O  O221  1  0.75266311  0.36184790  0.50290582  1
  O  O222  1  0.74622064  0.86989945  0.00202605  1
  O  O223  1  0.76771203  0.98085079  0.44170794  1
  O  O224  1  0.13957763  0.50629872  0.24667884  1
  O  O225  1  0.12923830  0.50178183  0.77838466  1
  O  O226  1  0.11117878  0.98040112  0.24815225  1
  O  O227  1  0.13133547  1.00452579  0.74356432  1
  O  O228  1  0.64291356  0.46793054  0.25215274  1
  O  O229  1  0.68011732  0.53198076  0.70542819  1
  O  O230  1  0.62671222  1.03054150  0.20965999  1
  O  O231  1  0.60680758  1.00001692  0.73781854  1
  O  O232  1  0.38158822  0.01639525  0.26496958  1
  O  O233  1  0.36720649  0.01393535  0.75671750  1
  O  O234  1  0.36251030  0.51639455  0.24567380  1
  O  O235  1  0.38716273  0.52758036  0.73814811  1
  O  O236  1  0.87881834  0.00429284  0.23374633  1
  O  O237  1  0.89241544  -0.00694244  0.76184635  1
  O  O238  1  0.86543289  0.50662267  0.24936857  1
  O  O239  1  0.89090644  0.52117660  0.78741194  1
  O  O240  1  0.09408094  0.36991008  0.42111489  1
  O  O241  1  0.11154019  0.37936139  0.87164755  1
  O  O242  1  0.12000914  0.86480147  0.36460109  1
  O  O243  1  0.16367012  0.80624196  0.86292374  1
  O  O244  1  0.63678423  0.36520304  0.36299747  1
  O  O245  1  0.61406080  0.35633187  0.87526120  1
  O  O246  1  0.61075064  0.86199279  0.38867671  1
  O  O247  1  0.63166202  0.93608900  0.77653252  1
  O  O248  1  0.36383190  0.13201483  0.14220098  1
  O  O249  1  0.37797027  0.13985833  0.63296533  1
  O  O250  1  0.37664383  0.64251818  0.14144364  1
  O  O251  1  0.36901020  0.64807390  0.62498492  1
  O  O252  1  0.87245365  0.11064369  0.13962809  1
  O  O253  1  0.89164040  0.19790865  0.66168941  1
  O  O254  1  0.89662430  0.62099230  0.12973405  1
  O  O255  1  0.85658687  0.63430241  0.62230279  1
  O  O256  1  0.24613542  0.24953700  0.12015189  1
  O  O257  1  0.25990505  0.25065038  0.62666494  1
  O  O258  1  0.26171542  0.76022396  0.13128963  1
  O  O259  1  0.25187031  0.75654632  0.60523474  1
  O  O260  1  0.74141985  0.23585204  0.10533888  1
  O  O261  1  0.67820334  0.28154756  0.62063787  1
  O  O262  1  0.70704066  0.76235038  0.11663254  1
  O  O263  1  0.76442297  0.75771379  0.62399112  1
  O  O264  1  0.24308999  0.24798286  0.37595107  1
  O  O265  1  0.23363579  0.25792869  0.89079794  1
  O  O266  1  0.24699091  0.74854296  0.38198427  1
  O  O267  1  0.22666999  0.76881768  0.86477603  1
  O  O268  1  0.77099797  0.23146932  0.40406034  1
  O  O269  1  0.73160673  0.23721695  0.88275020  1
  O  O270  1  0.73354582  0.75903245  0.38057816  1
  O  O271  1  0.75469367  0.70174650  0.85222816  1
  O  O272  1  0.00998597  0.13037695  0.00663605  1
  O  O273  1  -0.03069962  0.10026651  0.49847163  1
  O  O274  1  0.01029825  0.61208522  0.02201639  1
  O  O275  1  -0.00521537  0.59082160  0.53802140  1
  O  O276  1  0.49998564  0.12572100  0.00946897  1
  O  O277  1  0.49331423  0.12295998  0.51654798  1
  O  O278  1  0.48421173  0.58465388  -0.00216146  1
  O  O279  1  0.49970955  0.59826680  0.48425050  1
  O  O280  1  0.50409224  0.38491347  0.50261628  1
  O  O281  1  0.50846218  0.38796425  0.99130868  1
  O  O282  1  0.49893948  0.89262628  0.49067648  1
  O  O283  1  0.61330154  0.93825467  0.85493282  1
  O  O284  1  0.96807220  0.38293852  0.53442719  1
  O  O285  1  0.99441554  0.38443324  1.00978881  1
  O  O286  1  1.00416044  0.87879654  0.48733745  1
  O  O287  1  1.03521504  0.89362525  0.97327990  1
  O  O288  1  0.50836554  0.48625007  0.36302522  1
  O  O289  1  0.51070471  0.47793904  0.85983151  1
  O  O290  1  0.49056220  1.00464057  0.39068067  1
  O  O291  1  0.46663249  1.01718507  0.88696880  1
  O  O292  1  1.00166417  0.49375523  0.38566806  1
  O  O293  1  1.00044726  0.49650752  0.90510101  1
  O  O294  1  1.00176663  0.97985020  0.37874540  1
  O  O295  1  0.98690975  1.00988985  0.87959280  1
  O  O296  1  -0.00356591  -0.02453716  0.09935027  1
  O  O297  1  0.00324007  -0.02183011  0.61117339  1
  O  O298  1  0.01322974  0.50665641  0.13273113  1
  O  O299  1  -0.00872064  0.53957176  0.59943227  1
  O  O300  1  0.50503076  -0.01696467  0.10935645  1
  O  O301  1  0.48061333  0.01160116  0.61310917  1
  O  O302  1  0.49531231  0.49385748  0.13660139  1
  O  O303  1  0.54153249  0.46900494  0.66044002  1
  O  O304  1  0.26100452  0.39546415  0.26595935  1
  O  O305  1  0.24642891  0.38851841  0.75759318  1
  O  O306  1  0.23417696  0.87727909  0.25049199  1
  O  O307  1  0.24698801  0.88584206  0.73142538  1
  O  O308  1  0.75521863  0.33738821  0.26261616  1
  O  O309  1  0.76748058  0.38032382  0.77930565  1
  O  O310  1  0.75892874  0.87356192  0.22322333  1
  O  O311  1  0.75340302  0.86635321  0.73859622  1
  O  O312  1  0.26397922  0.13249875  0.26674692  1
  O  O313  1  0.25218679  0.11355826  0.73165079  1
  O  O314  1  0.25888812  0.62194169  0.26285644  1
  O  O315  1  0.27535569  0.64581057  0.76085824  1
  O  O316  1  0.76594742  0.11114560  0.23815882  1
  O  O317  1  0.74706203  0.13907886  0.75828318  1
  O  O318  1  0.76274570  0.64307134  0.27239647  1
  O  O319  1  0.71369397  0.59683202  0.73421606  1
  O  O320  1  0.36141929  0.12028195  0.37212492  1
  O  O321  1  0.35961865  0.13495500  0.85710757  1
  O  O322  1  0.36279962  0.63167315  0.36743278  1
  O  O323  1  0.40319936  0.63111380  0.86417005  1
  O  O324  1  0.85558273  0.09205834  0.34630196  1
  O  O325  1  0.87446354  0.15069555  0.85415182  1
  O  O326  1  0.85805555  0.62552463  0.39996196  1
  O  O327  1  0.88412839  0.61891294  0.91384934  1
  O  O328  1  0.12773509  0.39099703  0.13410508  1
  O  O329  1  0.11705364  0.39343149  0.65676836  1
  O  O330  1  0.13086495  0.85962386  0.13800402  1
  O  O331  1  0.14155792  0.86763863  0.61301640  1
  O  O332  1  0.63442434  0.37751887  0.14500233  1
  O  O333  1  0.58713845  0.40949004  0.64983617  1
  O  O334  1  0.62824351  0.88706753  0.11833340  1
  O  O335  1  0.67129124  0.86607708  0.57077128  1
  O  O336  1  0.08964646  0.24477995  0.22392540  1
  O  O337  1  0.13218977  0.27618277  0.76668869  1
  O  O338  1  0.12500587  0.75493416  0.26375206  1
  O  O339  1  0.10216444  0.69725527  0.71883535  1
  O  O340  1  0.61250402  0.25020796  0.24771726  1
  O  O341  1  0.60407808  0.24200745  0.76593107  1
  O  O342  1  0.61837729  0.75135900  0.26547908  1
  O  O343  1  0.61279869  0.75978425  0.73954995  1
  O  O344  1  0.38697600  0.24138414  0.24319898  1
  O  O345  1  0.37068994  0.24217030  0.74317509  1
  O  O346  1  0.37308472  0.74187948  0.25321153  1
  O  O347  1  0.38761023  0.74846028  0.73343704  1
  O  O348  1  0.87471503  0.21268389  0.25290554  1
  O  O349  1  0.92627299  0.23945038  0.71021754  1
  O  O350  1  0.89294456  0.74435272  0.26103717  1
  O  O351  1  0.89665394  0.74303026  0.73960747  1
  O  O352  1  0.39850461  0.48494743  0.49926922  1
  O  O353  1  0.38130486  0.47539364  1.02713839  1
  O  O354  1  0.37748535  1.00957134  0.48869538  1
  O  O355  1  0.33065492  1.00801718  0.97374286  1
  O  O356  1  0.84692887  0.48505189  0.51354178  1
  O  O357  1  0.88938845  0.49207924  1.01290262  1
  O  O358  1  0.90850139  1.04406118  0.49525643  1
  O  O359  1  0.89365061  0.99695229  0.98307051  1
  O  O360  1  0.11667833  0.02615583  -0.01496011  1
  O  O361  1  0.11092064  0.00659666  0.49693201  1
  O  O362  1  0.11616782  0.49894588  0.02164354  1
  O  O363  1  0.13836181  0.49265746  0.51705987  1
  O  O364  1  0.62744967  0.00793520  0.00056534  1
  O  O365  1  0.60520391  0.00917151  0.50355722  1
  O  O366  1  0.61348672  0.49624440  0.03914402  1
  O  O367  1  0.61174153  0.50582631  0.48811412  1
  O  O368  1  0.37468135  0.35304932  0.13699636  1
  O  O369  1  0.37885234  0.36255571  0.62708103  1
  O  O370  1  0.35368956  0.86710258  0.12465152  1
  O  O371  1  0.35684584  0.85967024  0.62398120  1
  O  O372  1  0.87945924  0.37319426  0.11770144  1
  O  O373  1  0.84458987  0.38539568  0.63971351  1
  O  O374  1  0.85162715  0.85569394  0.12790675  1
  O  O375  1  0.86739934  0.85822208  0.62081801  1
  O  O376  1  0.13729215  0.12646622  0.36313870  1
  O  O377  1  0.11216616  0.15189420  0.86358893  1
  O  O378  1  0.14049408  0.63899697  0.37153311  1
  O  O379  1  0.13375346  0.60388014  0.90756611  1
  O  O380  1  0.62692122  0.11625187  0.35142150  1
  O  O381  1  0.62228614  0.13034924  0.87791152  1
  O  O382  1  0.63261278  0.63521897  0.36983379  1
  O  O383  1  0.62722831  0.60286972  0.88621605  1
