# generated using pymatgen
data_VZnO4
_symmetry_space_group_name_H-M   'P 1'
_cell_length_a   17.03749423
_cell_length_b   16.99778752
_cell_length_c   16.97498079
_cell_angle_alpha   90.15280259
_cell_angle_beta   90.17927686
_cell_angle_gamma   90.47149269
_symmetry_Int_Tables_number   1
_chemical_formula_structural   VZnO4
_chemical_formula_sum   'V64 Zn64 O256'
_cell_volume   4915.74112405
_cell_formula_units_Z   64
loop_
 _symmetry_equiv_pos_site_id
 _symmetry_equiv_pos_as_xyz
  1  'x, y, z'
loop_
 _atom_site_type_symbol
 _atom_site_label
 _atom_site_symmetry_multiplicity
 _atom_site_fract_x
 _atom_site_fract_y
 _atom_site_fract_z
 _atom_site_occupancy
  V  V0  1  0.71123072  0.70018871  0.48830954  1
  V  V1  1  0.49280665  0.52032854  0.51853873  1
  V  V2  1  0.02259567  0.74886932  0.26666888  1
  V  V3  1  0.37277464  0.37264414  0.52849998  1
  V  V4  1  0.52077392  -0.00300680  0.01234897  1
  V  V5  1  0.26049186  0.49869013  0.25636193  1
  V  V6  1  -0.00303355  0.14705989  0.62225653  1
  V  V7  1  0.26386344  0.37522370  0.10354748  1
  V  V8  1  0.88315761  0.37667332  0.00501324  1
  V  V9  1  0.74773632  0.35547036  0.62102945  1
  V  V10  1  0.74865990  0.12744919  0.87343429  1
  V  V11  1  0.62880130  0.26603542  0.89022731  1
  V  V12  1  0.38466090  0.88335466  0.49147732  1
  V  V13  1  -0.01046657  0.85652802  0.87585183  1
  V  V14  1  0.00121299  0.00267000  0.00660108  1
  V  V15  1  0.13350623  0.87282625  0.21093227  1
  V  V16  1  0.01459271  0.49916385  -0.01438072  1
  V  V17  1  0.76090176  0.40376280  0.13207764  1
  V  V18  1  0.00926204  0.15310017  0.12293652  1
  V  V19  1  0.52916842  0.89013061  0.87514195  1
  V  V20  1  0.09798442  0.86654034  0.74141099  1
  V  V21  1  0.01024529  0.62175328  0.13744152  1
  V  V22  1  0.72499163  0.49938933  0.29701218  1
  V  V23  1  0.01490728  0.49939335  0.51220977  1
  V  V24  1  0.77682677  -0.01358718  0.24937470  1
  V  V25  1  0.88407569  0.14277460  0.25027032  1
  V  V26  1  0.74301227  0.88830246  0.61447925  1
  V  V27  1  0.76874785  0.24317296  0.01313987  1
  V  V28  1  0.12349706  0.27586664  0.88993134  1
  V  V29  1  0.13929938  0.49964488  0.12524369  1
  V  V30  1  0.13780291  0.63858294  -0.00822967  1
  V  V31  1  0.23997211  0.07458610  0.86237280  1
  V  V32  1  0.38591566  0.76409703  0.14369826  1
  V  V33  1  0.13760699  0.61090739  0.51429450  1
  V  V34  1  0.59057578  0.51847898  0.13396505  1
  V  V35  1  0.24524610  0.66198849  0.86002147  1
  V  V36  1  0.09592341  0.00330594  0.61301013  1
  V  V37  1  0.89722037  0.53153591  0.37137134  1
  V  V38  1  0.24632207  0.75615248  0.49990530  1
  V  V39  1  0.24579608  0.49860056  0.75626525  1
  V  V40  1  0.73301180  0.50369645  0.72406755  1
  V  V41  1  0.26025085  0.63012818  0.37708061  1
  V  V42  1  0.00229728  0.36863674  0.37463055  1
  V  V43  1  0.38361677  0.12580133  0.76401904  1
  V  V44  1  0.88960322  0.61425585  0.75656656  1
  V  V45  1  0.24797305  0.00284948  0.22912736  1
  V  V46  1  0.86924114  0.73509121  0.13959402  1
  V  V47  1  0.34858390  0.87851391  0.00071417  1
  V  V48  1  0.88430812  0.89552165  0.49992779  1
  V  V49  1  0.37890372  0.25528057  0.16274199  1
  V  V50  1  0.37646922  0.48554206  0.38475988  1
  V  V51  1  0.63301693  0.87411052  0.21198886  1
  V  V52  1  0.88424785  0.14794713  0.75195211  1
  V  V53  1  0.88059017  0.00267232  0.86804835  1
  V  V54  1  0.60240617  0.37265971  0.74989158  1
  V  V55  1  0.36555029  0.01089984  0.37091795  1
  V  V56  1  0.83840993  0.50515746  0.89286830  1
  V  V57  1  0.37642730  0.77064714  0.64246837  1
  V  V58  1  0.23862287  0.89249668  0.62243927  1
  V  V59  1  0.14533656  0.24406779  0.37401610  1
  V  V60  1  0.13432134  0.37031903  0.25294171  1
  V  V61  1  0.49232438  0.13333104  0.13259685  1
  V  V62  1  0.24583750  0.24814781  0.52759359  1
  V  V63  1  0.51857830  0.87487674  0.36043774  1
  Zn  Zn64  1  0.20366845  0.19249508  0.18292594  1
  Zn  Zn65  1  0.18840797  0.16331924  0.69971872  1
  Zn  Zn66  1  0.19522815  0.68162658  0.19128966  1
  Zn  Zn67  1  0.18929416  0.70076913  0.68312015  1
  Zn  Zn68  1  0.65892167  0.04879364  0.12653645  1
  Zn  Zn69  1  0.68221367  0.18989158  0.70752796  1
  Zn  Zn70  1  0.55380797  0.68817293  0.20573271  1
  Zn  Zn71  1  0.74318308  0.71374114  0.68948742  1
  Zn  Zn72  1  0.32344349  0.30913942  0.31377356  1
  Zn  Zn73  1  0.29936353  0.30905140  0.70932594  1
  Zn  Zn74  1  0.30396240  0.81957300  0.31167506  1
  Zn  Zn75  1  0.28769070  0.86623324  0.81792541  1
  Zn  Zn76  1  0.81659409  0.32576467  0.30488284  1
  Zn  Zn77  1  0.80684387  0.32239061  0.81353223  1
  Zn  Zn78  1  0.71704506  0.71123721  0.28028733  1
  Zn  Zn79  1  0.82763526  0.81888386  0.79348424  1
  Zn  Zn80  1  0.19708848  0.42852238  0.44497597  1
  Zn  Zn81  1  0.20185959  0.45154982  0.92236131  1
  Zn  Zn82  1  0.19302450  0.96502974  0.44735879  1
  Zn  Zn83  1  0.16704590  0.91913469  0.93651406  1
  Zn  Zn84  1  0.70504890  0.48808210  0.47947413  1
  Zn  Zn85  1  0.67209324  0.43335629  0.96783018  1
  Zn  Zn86  1  0.73950585  0.87330038  0.39524234  1
  Zn  Zn87  1  0.69382032  0.95211520  0.94267111  1
  Zn  Zn88  1  0.17873225  0.06945638  0.05019328  1
  Zn  Zn89  1  0.31279884  0.05966209  0.56782398  1
  Zn  Zn90  1  0.35839047  0.65838297  -0.00345340  1
  Zn  Zn91  1  0.33061229  0.57945365  0.57900200  1
  Zn  Zn92  1  0.83307280  0.06293281  0.06606552  1
  Zn  Zn93  1  0.82724453  0.05195956  0.57713084  1
  Zn  Zn94  1  0.82549322  0.57717346  0.07091133  1
  Zn  Zn95  1  0.84644025  0.59940497  0.54522197  1
  Zn  Zn96  1  0.43570992  0.42282111  0.19536872  1
  Zn  Zn97  1  0.41884091  0.45799326  0.69559432  1
  Zn  Zn98  1  0.43440744  0.94199582  0.18733664  1
  Zn  Zn99  1  0.46893520  0.92633928  0.67766749  1
  Zn  Zn100  1  0.94801629  0.43990254  0.19422830  1
  Zn  Zn101  1  0.90453004  0.46373594  0.65136682  1
  Zn  Zn102  1  0.93976230  0.90995820  0.17883395  1
  Zn  Zn103  1  0.92569812  0.93861251  0.68576126  1
  Zn  Zn104  1  0.09795781  0.08223289  0.27233660  1
  Zn  Zn105  1  0.05642449  0.05379049  0.80023862  1
  Zn  Zn106  1  0.08065614  0.56016757  0.32306195  1
  Zn  Zn107  1  0.07878204  0.56210948  0.80220762  1
  Zn  Zn108  1  0.55131981  0.03553438  0.28897378  1
  Zn  Zn109  1  0.52119979  0.11767648  0.88729918  1
  Zn  Zn110  1  0.56165054  0.52712335  0.31632617  1
  Zn  Zn111  1  0.61429334  0.59189803  0.80439874  1
  Zn  Zn112  1  0.41811309  0.18974182  0.44996764  1
  Zn  Zn113  1  0.36495751  0.09507447  0.99372700  1
  Zn  Zn114  1  0.47028612  0.66819381  0.38659505  1
  Zn  Zn115  1  0.41043416  0.75793410  0.85051900  1
  Zn  Zn116  1  0.99553846  0.14941641  0.41009541  1
  Zn  Zn117  1  0.95143626  0.18792390  0.93567272  1
  Zn  Zn118  1  0.88238957  0.74457987  0.36628812  1
  Zn  Zn119  1  0.92692440  0.67616182  0.95421317  1
  Zn  Zn120  1  0.07536771  0.31935323  0.05593454  1
  Zn  Zn121  1  0.04905945  0.29678481  0.53960873  1
  Zn  Zn122  1  0.04891546  0.80987179  0.05462597  1
  Zn  Zn123  1  0.06489490  0.80786003  0.54517372  1
  Zn  Zn124  1  0.60655726  0.26293853  0.10738996  1
  Zn  Zn125  1  0.58908734  0.37201901  0.53466069  1
  Zn  Zn126  1  0.50926519  0.77766814  0.01838419  1
  Zn  Zn127  1  0.56013168  0.80834606  0.55393592  1
  O  O128  1  0.11723844  0.13429703  0.12171167  1
  O  O129  1  0.10414301  0.11198446  0.63952176  1
  O  O130  1  0.13358079  0.61527689  0.11241554  1
  O  O131  1  0.15166994  0.61777225  0.61266204  1
  O  O132  1  0.59761225  0.14416211  0.11582200  1
  O  O133  1  0.62456163  0.10820533  0.64219835  1
  O  O134  1  0.60813096  0.61685122  0.12842956  1
  O  O135  1  0.55180663  0.66681501  0.67179418  1
  O  O136  1  0.36201386  0.38375372  0.39661169  1
  O  O137  1  0.42555464  0.47205589  0.87713642  1
  O  O138  1  0.36409768  0.88500257  0.38760649  1
  O  O139  1  0.37073739  0.86381094  0.89513323  1
  O  O140  1  0.90340739  0.36739624  0.36977285  1
  O  O141  1  0.85855711  0.39935499  0.89003774  1
  O  O142  1  0.86265766  0.84768408  0.40419750  1
  O  O143  1  0.88319064  0.89027742  0.86214235  1
  O  O144  1  0.25950721  0.00154021  0.36708043  1
  O  O145  1  0.24095360  -0.02860583  0.86109694  1
  O  O146  1  0.25862855  0.50255765  0.37375813  1
  O  O147  1  0.25727252  0.52656772  0.85917209  1
  O  O148  1  0.75141587  -0.02021461  0.34726218  1
  O  O149  1  0.76904624  0.01736140  0.88572934  1
  O  O150  1  0.79881371  0.48856758  0.38169010  1
  O  O151  1  0.74352431  0.51492836  0.91842061  1
  O  O152  1  0.25019526  0.48716010  0.13727961  1
  O  O153  1  0.31523135  0.52245350  0.67879780  1
  O  O154  1  0.24990839  1.00741264  0.13074918  1
  O  O155  1  0.22693420  0.99439541  0.61494214  1
  O  O156  1  0.74878579  0.50214526  0.10745175  1
  O  O157  1  0.73372893  0.48995255  0.62684772  1
  O  O158  1  0.76171078  1.00608432  0.13079062  1
  O  O159  1  0.75020218  0.98793593  0.63316099  1
  O  O160  1  0.02338840  0.38096604  0.26360463  1
  O  O161  1  -0.03433533  0.40399215  0.75420417  1
  O  O162  1  0.02609983  0.85653917  0.23633350  1
  O  O163  1  -0.00938039  0.86811567  0.75481950  1
  O  O164  1  0.42011688  0.32192597  0.24250219  1
  O  O165  1  0.50536064  0.38836851  0.75079355  1
  O  O166  1  0.51995138  0.88617911  0.25094756  1
  O  O167  1  0.49616007  0.89273779  0.78134683  1
  O  O168  1  0.48997741  0.11584845  0.23144985  1
  O  O169  1  0.48300207  0.12826556  0.78077115  1
  O  O170  1  0.53174191  0.63130494  0.29972918  1
  O  O171  1  0.52158427  0.63755582  0.73301768  1
  O  O172  1  1.00557669  0.13087980  0.22832279  1
  O  O173  1  0.98839226  0.12996966  0.74389046  1
  O  O174  1  1.04186069  0.63673340  0.24119151  1
  O  O175  1  0.98798975  0.61522951  0.75893600  1
  O  O176  1  0.36509617  0.28210529  -0.06388525  1
  O  O177  1  0.36233860  0.26526470  0.51006754  1
  O  O178  1  0.38798559  0.77195327  0.01702171  1
  O  O179  1  0.35988202  0.78026652  0.50922829  1
  O  O180  1  0.87817650  0.26867427  -0.01343822  1
  O  O181  1  0.75035311  0.16533327  0.45353678  1
  O  O182  1  0.85159077  0.68575988  0.04000844  1
  O  O183  1  0.91584821  0.71029426  0.55044773  1
  O  O184  1  0.14393749  0.25629969  0.48983316  1
  O  O185  1  0.14062828  0.25821378  0.98921371  1
  O  O186  1  0.14050499  0.73380031  0.50621955  1
  O  O187  1  0.11827918  0.73423939  1.00235287  1
  O  O188  1  0.57989348  0.25643091  0.46928140  1
  O  O189  1  0.65945523  0.25926814  0.99887005  1
  O  O190  1  0.61436094  0.72066366  0.50042175  1
  O  O191  1  0.64552016  0.73924681  1.01919202  1
  O  O192  1  0.49208845  0.24613931  0.13273312  1
  O  O193  1  0.52662052  0.19516638  0.58027486  1
  O  O194  1  0.48786006  0.74129576  0.12782495  1
  O  O195  1  0.47350798  0.81338657  0.63048101  1
  O  O196  1  1.00489500  0.25196969  0.11596868  1
  O  O197  1  1.01419248  0.24643803  0.63210250  1
  O  O198  1  1.00125031  0.72631302  0.12055343  1
  O  O199  1  0.97325678  0.72039602  0.59712743  1
  O  O200  1  0.02344867  0.26720883  0.39039662  1
  O  O201  1  0.02782466  0.24299976  0.87495467  1
  O  O202  1  0.01981221  0.75019270  0.36330545  1
  O  O203  1  -0.02834733  0.75934489  0.88758091  1
  O  O204  1  0.52626997  0.24201960  0.41788102  1
  O  O205  1  0.53648451  0.23585384  0.90547893  1
  O  O206  1  0.48677753  0.78067274  0.37300305  1
  O  O207  1  0.51127862  0.78356424  0.89917464  1
  O  O208  1  0.26546182  0.14892227  0.51759943  1
  O  O209  1  0.25301203  0.09872202  0.97093028  1
  O  O210  1  0.25726513  0.63471099  0.49823197  1
  O  O211  1  0.24041909  0.63447645  0.98227674  1
  O  O212  1  0.74043340  0.12790440  0.51551391  1
  O  O213  1  0.77666051  0.13872886  0.98471423  1
  O  O214  1  0.74077942  0.59909096  0.49232172  1
  O  O215  1  0.67117656  0.68240733  0.98203279  1
  O  O216  1  0.25261688  0.39188490  0.00751726  1
  O  O217  1  0.25950795  0.36415369  0.51500698  1
  O  O218  1  0.24943432  0.87191052  -0.00013319  1
  O  O219  1  0.23074120  0.87097688  0.50550137  1
  O  O220  1  0.76838678  0.36870717  0.01866961  1
  O  O221  1  0.70798031  0.37787143  0.52351272  1
  O  O222  1  0.75783347  0.83979098  -0.03609530  1
  O  O223  1  0.76515524  0.87971458  0.50967356  1
  O  O224  1  0.14225366  0.49213741  0.24517919  1
  O  O225  1  0.14668890  0.50154945  0.73680381  1
  O  O226  1  0.13043860  0.97676262  0.23890856  1
  O  O227  1  0.10341967  0.97795700  0.72731091  1
  O  O228  1  0.63485335  0.48415343  0.22659119  1
  O  O229  1  0.63524090  0.48187336  0.76560042  1
  O  O230  1  0.63520450  0.99208973  0.22875059  1
  O  O231  1  0.58241858  1.05118361  0.67839932  1
  O  O232  1  0.35574474  -0.00455820  0.25711172  1
  O  O233  1  0.39120106  0.01535653  0.71137246  1
  O  O234  1  0.36728984  0.48659727  0.27222889  1
  O  O235  1  0.42982252  0.51419610  0.81764381  1
  O  O236  1  0.87582053  -0.03169688  0.24750566  1
  O  O237  1  0.87857769  0.01276738  0.76379310  1
  O  O238  1  0.90742126  0.51304312  0.27317909  1
  O  O239  1  0.83319852  0.50847841  0.77861776  1
  O  O240  1  0.13258434  0.36613941  0.36795675  1
  O  O241  1  0.12661776  0.37678415  0.88142587  1
  O  O242  1  0.06295314  0.92746688  0.38465992  1
  O  O243  1  0.09935907  0.86807911  0.85288179  1
  O  O244  1  0.71163247  0.30099413  0.35006174  1
  O  O245  1  0.62809141  0.37018603  0.88056637  1
  O  O246  1  0.61578053  0.88117771  0.37963307  1
  O  O247  1  0.62891390  0.89267578  0.87097440  1
  O  O248  1  0.38518601  0.15757204  0.10537862  1
  O  O249  1  0.38826085  0.07914362  0.65561303  1
  O  O250  1  0.34308370  0.65899370  0.11763868  1
  O  O251  1  0.38410194  0.67384193  0.62583152  1
  O  O252  1  0.90212015  0.12578381  0.13463821  1
  O  O253  1  0.88379265  0.13108289  0.64131020  1
  O  O254  1  0.91184211  0.60557133  0.15019722  1
  O  O255  1  0.87059618  0.57726565  0.65652173  1
  O  O256  1  0.26575568  0.26880042  0.12119620  1
  O  O257  1  0.22922434  0.25191556  0.62951506  1
  O  O258  1  0.28127683  0.71963711  0.12054724  1
  O  O259  1  0.25767087  0.76960864  0.61681831  1
  O  O260  1  0.77180574  0.23132492  0.10812494  1
  O  O261  1  0.73720652  0.25605668  0.63094948  1
  O  O262  1  0.78091380  0.72155115  0.18077858  1
  O  O263  1  0.75860484  0.72919001  0.57433441  1
  O  O264  1  0.24637237  0.24722194  0.38277902  1
  O  O265  1  0.22065526  0.23001208  0.85708037  1
  O  O266  1  0.26245940  0.73650102  0.38348457  1
  O  O267  1  0.22974534  0.75952354  0.85711665  1
  O  O268  1  0.68661410  0.22963741  0.31661214  1
  O  O269  1  0.74867645  0.24435570  0.88155455  1
  O  O270  1  0.74371592  0.74196181  0.39379221  1
  O  O271  1  0.76235352  0.79098948  0.90725633  1
  O  O272  1  -0.00076184  0.11350635  0.01509848  1
  O  O273  1  -0.00964312  0.14012974  0.52218886  1
  O  O274  1  0.01288624  0.60909430  0.01316518  1
  O  O275  1  0.03417677  0.60883083  0.50287218  1
  O  O276  1  0.48371205  0.10266387  0.00051450  1
  O  O277  1  0.48524562  0.14447225  0.54520867  1
  O  O278  1  0.50863310  0.61841981  -0.07046681  1
  O  O279  1  0.48726818  0.61594829  0.48952496  1
  O  O280  1  0.47520848  0.38499398  0.51558860  1
  O  O281  1  0.41561532  0.33036370  0.95456018  1
  O  O282  1  0.48624700  0.88409496  0.48825346  1
  O  O283  1  0.50969686  0.89360801  1.00094425  1
  O  O284  1  1.01863598  0.38919074  0.48480309  1
  O  O285  1  0.99674686  0.39499620  1.01056119  1
  O  O286  1  0.98175492  0.86708248  0.50581384  1
  O  O287  1  1.00098486  0.88225659  0.97879994  1
  O  O288  1  0.47876853  0.49156317  0.39124537  1
  O  O289  1  0.56790777  0.56859947  0.90873355  1
  O  O290  1  0.47651264  0.98219383  0.36115260  1
  O  O291  1  0.51088181  0.99725297  0.90190400  1
  O  O292  1  1.00751587  0.49345849  0.38419298  1
  O  O293  1  1.01536355  0.50261564  0.88798935  1
  O  O294  1  1.01802579  0.98147826  0.36563253  1
  O  O295  1  0.99010244  0.99745747  0.87955287  1
  O  O296  1  -0.00856790  -0.01825479  0.10372916  1
  O  O297  1  -0.00569469  0.00867548  0.61977054  1
  O  O298  1  0.02703395  0.50565397  0.13040915  1
  O  O299  1  0.00888424  0.48467443  0.61030432  1
  O  O300  1  0.49194570  0.01510302  0.11707478  1
  O  O301  1  0.54942858  0.00185808  0.62616489  1
  O  O302  1  0.49293241  0.50842743  0.15989740  1
  O  O303  1  0.47297786  0.52257334  0.61789105  1
  O  O304  1  0.24773264  0.38286056  0.25049756  1
  O  O305  1  0.27083365  0.40053088  0.76641539  1
  O  O306  1  0.23636389  0.88356339  0.24582509  1
  O  O307  1  0.22236448  0.87667418  0.72510436  1
  O  O308  1  0.77906832  0.41741873  0.24078464  1
  O  O309  1  0.74404394  0.38459695  0.73654280  1
  O  O310  1  0.73658923  0.88096519  0.23228885  1
  O  O311  1  0.75693944  0.83066863  0.70884495  1
  O  O312  1  0.21708891  0.09959371  0.25106968  1
  O  O313  1  0.26038646  0.09912819  0.75814465  1
  O  O314  1  0.24920149  0.61322197  0.26811658  1
  O  O315  1  0.23826485  0.63511675  0.76064829  1
  O  O316  1  0.78947076  0.09987256  0.24982683  1
  O  O317  1  0.76690183  0.13299466  0.76703180  1
  O  O318  1  0.73740207  0.59598584  0.27919714  1
  O  O319  1  0.71231127  0.60879658  0.73663688  1
  O  O320  1  0.38557327  0.10874208  0.38200936  1
  O  O321  1  0.35445594  0.10420983  0.86592301  1
  O  O322  1  0.36316719  0.60613862  0.38317025  1
  O  O323  1  0.35152994  0.66334286  0.87905604  1
  O  O324  1  0.91135831  0.11853856  0.34587949  1
  O  O325  1  0.88054994  0.12199685  0.86492481  1
  O  O326  1  0.89007008  0.63118059  0.38259760  1
  O  O327  1  0.87922280  0.60412083  0.87391230  1
  O  O328  1  0.14178654  0.38093148  0.13191339  1
  O  O329  1  0.02547961  0.36595044  0.73809481  1
  O  O330  1  0.13110217  0.86913199  0.11244121  1
  O  O331  1  0.11670876  0.88558221  0.61900803  1
  O  O332  1  0.67653188  0.34889366  0.14235272  1
  O  O333  1  0.61968689  0.36244183  0.64947317  1
  O  O334  1  0.62320644  0.86891403  0.11660477  1
  O  O335  1  0.64462111  0.86487865  0.60507295  1
  O  O336  1  0.14254713  0.25977466  0.26258813  1
  O  O337  1  0.18014463  0.24986578  0.78674907  1
  O  O338  1  0.13421857  0.76429375  0.24061963  1
  O  O339  1  0.10593672  0.76870794  0.71825740  1
  O  O340  1  0.61595848  0.22655609  0.29284307  1
  O  O341  1  0.62582878  0.26617946  0.77536662  1
  O  O342  1  0.62772807  0.77069893  0.24505887  1
  O  O343  1  0.63490013  0.75609170  0.76466191  1
  O  O344  1  0.33289460  0.21029767  0.24034449  1
  O  O345  1  0.36263109  0.22149514  0.73969476  1
  O  O346  1  0.37680244  0.76497739  0.24344458  1
  O  O347  1  0.36455400  0.78450892  0.74377545  1
  O  O348  1  0.86817628  0.24170435  0.25177671  1
  O  O349  1  0.87856021  0.24654726  0.76208555  1
  O  O350  1  0.91699651  0.74174564  0.24769324  1
  O  O351  1  0.85137962  0.70894275  0.75461165  1
  O  O352  1  0.36939571  0.49221764  0.50195162  1
  O  O353  1  0.46807050  0.59456383  0.99284391  1
  O  O354  1  0.36278848  0.99220081  0.48759215  1
  O  O355  1  0.37582305  0.97615731  1.00912871  1
  O  O356  1  0.90900934  0.51617344  0.49192924  1
  O  O357  1  0.89123423  0.50173942  0.99399216  1
  O  O358  1  0.88067165  0.99635426  0.49301265  1
  O  O359  1  0.89054694  1.00468307  0.98217547  1
  O  O360  1  0.10639257  -0.00437083  -0.00540276  1
  O  O361  1  0.11357202  0.00706337  0.51299778  1
  O  O362  1  0.12386644  0.50544855  0.00605803  1
  O  O363  1  0.13191436  0.50236370  0.50327456  1
  O  O364  1  0.62438021  0.00647667  0.01687714  1
  O  O365  1  0.60404772  0.07086183  0.46663884  1
  O  O366  1  0.60309957  0.46668453  0.04699719  1
  O  O367  1  0.59084162  0.49240314  0.51613928  1
  O  O368  1  0.36757636  0.36836094  0.11301980  1
  O  O369  1  0.36964861  0.37116543  0.63104703  1
  O  O370  1  0.37269160  0.86795901  0.12213747  1
  O  O371  1  0.34728015  0.89243745  0.60858521  1
  O  O372  1  0.87303716  0.39048248  0.11895742  1
  O  O373  1  0.84683328  0.37484858  0.61433674  1
  O  O374  1  0.88303008  0.83099380  0.11521781  1
  O  O375  1  0.86613074  0.87869742  0.60883479  1
  O  O376  1  0.10963346  0.14496590  0.37218672  1
  O  O377  1  0.14123201  0.09752058  0.86046677  1
  O  O378  1  0.15422527  0.61528712  0.39367944  1
  O  O379  1  0.13032042  0.62730796  0.88539667  1
  O  O380  1  0.61686742  0.09277728  0.39826952  1
  O  O381  1  0.64857466  0.12797083  0.87572492  1
  O  O382  1  0.65470636  0.48411197  0.37065294  1
  O  O383  1  0.62034614  0.71584277  0.82543542  1
