# generated using pymatgen
data_VZnO4
_symmetry_space_group_name_H-M   'P 1'
_cell_length_a   17.05199073
_cell_length_b   17.06015111
_cell_length_c   16.99291259
_cell_angle_alpha   90.56419349
_cell_angle_beta   89.87923243
_cell_angle_gamma   89.78887559
_symmetry_Int_Tables_number   1
_chemical_formula_structural   VZnO4
_chemical_formula_sum   'V64 Zn64 O256'
_cell_volume   4943.11577700
_cell_formula_units_Z   64
loop_
 _symmetry_equiv_pos_site_id
 _symmetry_equiv_pos_as_xyz
  1  'x, y, z'
loop_
 _atom_site_type_symbol
 _atom_site_label
 _atom_site_symmetry_multiplicity
 _atom_site_fract_x
 _atom_site_fract_y
 _atom_site_fract_z
 _atom_site_occupancy
  V  V0  1  0.00501312  0.87099714  0.38272128  1
  V  V1  1  -0.01485293  0.61063054  0.12712715  1
  V  V2  1  0.49710365  0.40864214  0.88640613  1
  V  V3  1  0.36898938  0.47877256  0.37277748  1
  V  V4  1  0.60052432  0.86911184  0.26644395  1
  V  V5  1  0.34430034  0.36557690  -0.00011314  1
  V  V6  1  0.12394179  -0.00357917  0.63905472  1
  V  V7  1  0.11828378  0.48976070  0.12236183  1
  V  V8  1  0.00426721  0.00643482  0.50305099  1
  V  V9  1  -0.00532715  0.48280586  -0.01883794  1
  V  V10  1  0.62256701  0.11029351  0.46767949  1
  V  V11  1  0.36895012  0.00488726  0.85913169  1
  V  V12  1  0.10798651  0.26006169  0.86490290  1
  V  V13  1  0.24367531  0.62668222  0.38268758  1
  V  V14  1  0.62437730  0.01208942  0.62247066  1
  V  V15  1  0.61572724  0.21939809  0.88704587  1
  V  V16  1  0.03422560  0.62640572  0.62519507  1
  V  V17  1  0.61829677  0.87374170  0.74879338  1
  V  V18  1  0.39876465  0.66954950  0.25764560  1
  V  V19  1  0.11466989  0.37537289  0.74071579  1
  V  V20  1  0.12191389  0.63579905  0.00011549  1
  V  V21  1  0.11750548  0.36536715  0.25129500  1
  V  V22  1  0.49453192  0.01600862  0.01530702  1
  V  V23  1  0.75222439  0.23207967  0.52215464  1
  V  V24  1  0.08647065  -0.03124525  0.13361831  1
  V  V25  1  0.00995544  -0.01863664  -0.03554553  1
  V  V26  1  0.74887102  0.47877207  0.26661037  1
  V  V27  1  0.24414205  0.49710219  0.24224896  1
  V  V28  1  0.88409506  0.60478499  0.27680567  1
  V  V29  1  0.35598400  0.53187886  0.89090686  1
  V  V30  1  0.49994326  0.74037420  0.73269437  1
  V  V31  1  -0.01108951  0.37933452  0.38594902  1
  V  V32  1  0.62409858  0.50834575  0.12688540  1
  V  V33  1  0.74667976  0.36748697  0.10114753  1
  V  V34  1  0.61809612  0.62385802  0.51173881  1
  V  V35  1  0.24786442  -0.00379398  0.22123986  1
  V  V36  1  0.36001615  0.63222871  0.72680564  1
  V  V37  1  0.26486513  0.23642624  0.49810114  1
  V  V38  1  -0.00306162  0.14028746  0.63205853  1
  V  V39  1  0.24795930  0.11557964  0.36181350  1
  V  V40  1  0.75727928  0.74719333  0.49927847  1
  V  V41  1  0.50268649  0.88064057  0.87924010  1
  V  V42  1  -0.00353733  0.75129210  0.24888638  1
  V  V43  1  0.85025396  0.49007353  0.86747377  1
  V  V44  1  0.25821339  0.48906317  0.74036893  1
  V  V45  1  0.25283787  0.14821069  0.85548514  1
  V  V46  1  0.73882570  0.62693206  0.37405078  1
  V  V47  1  0.11638164  0.24536657  0.38725629  1
  V  V48  1  0.27037715  0.36655627  0.61119375  1
  V  V49  1  0.89477780  0.13540879  0.27550134  1
  V  V50  1  0.48635733  0.26113993  0.23785114  1
  V  V51  1  0.87793258  0.87693626  0.50174329  1
  V  V52  1  0.86905503  0.14437864  0.75252375  1
  V  V53  1  0.75806972  0.86670832  0.63294669  1
  V  V54  1  0.80426963  0.85249507  0.11216493  1
  V  V55  1  0.11710803  0.73278375  0.39485264  1
  V  V56  1  0.76420406  -0.00238409  0.75646116  1
  V  V57  1  0.01893864  0.75434942  0.75255899  1
  V  V58  1  0.89841049  0.25431042  0.11145352  1
  V  V59  1  0.00785478  0.50065783  0.50929454  1
  V  V60  1  0.85878483  0.62883932  0.74835918  1
  V  V61  1  0.12299009  0.13524680  0.00332933  1
  V  V62  1  0.76297322  0.11170671  0.91219476  1
  V  V63  1  0.25479331  0.87159568  0.60759416  1
  Zn  Zn64  1  0.06499913  0.18854592  0.19004244  1
  Zn  Zn65  1  0.18628578  0.19026818  0.68178437  1
  Zn  Zn66  1  0.16686143  0.67510927  0.19441495  1
  Zn  Zn67  1  0.19587757  0.71048599  0.67839484  1
  Zn  Zn68  1  0.74771571  0.16709351  0.16662640  1
  Zn  Zn69  1  0.65182068  0.21555087  0.70474314  1
  Zn  Zn70  1  0.67999229  0.70666934  0.16415587  1
  Zn  Zn71  1  0.68670740  0.68877859  0.68868906  1
  Zn  Zn72  1  0.29793898  0.31030719  0.31138601  1
  Zn  Zn73  1  0.34668323  0.33039253  0.81133125  1
  Zn  Zn74  1  0.27761271  0.81064144  0.22033437  1
  Zn  Zn75  1  0.34369734  0.84508704  0.75520160  1
  Zn  Zn76  1  0.81633613  0.29318090  0.31553848  1
  Zn  Zn77  1  0.78301709  0.29976728  0.84400017  1
  Zn  Zn78  1  0.82301941  0.80059021  0.31324203  1
  Zn  Zn79  1  0.88302779  0.79134827  0.84728950  1
  Zn  Zn80  1  0.18606958  0.43315505  0.43895296  1
  Zn  Zn81  1  0.18575198  0.44416381  0.92943447  1
  Zn  Zn82  1  0.21748472  0.89905434  0.38959122  1
  Zn  Zn83  1  0.18502998  0.92498639  0.80011536  1
  Zn  Zn84  1  0.71368471  0.45533363  0.46728035  1
  Zn  Zn85  1  0.67886336  0.45845546  0.94294122  1
  Zn  Zn86  1  0.68324962  0.92544876  0.44673206  1
  Zn  Zn87  1  0.72402379  0.90496225  0.92790546  1
  Zn  Zn88  1  0.27392072  0.00413462  0.01303260  1
  Zn  Zn89  1  0.22822517  0.02222097  0.50688593  1
  Zn  Zn90  1  0.30574189  0.66811602  0.08111270  1
  Zn  Zn91  1  0.31188943  0.55342548  0.55739265  1
  Zn  Zn92  1  0.86670003  0.05011106  0.07895599  1
  Zn  Zn93  1  0.81341434  0.06094542  0.56876979  1
  Zn  Zn94  1  0.81806474  0.53845109  0.06849899  1
  Zn  Zn95  1  0.82740026  0.56348216  0.55895952  1
  Zn  Zn96  1  0.42682251  0.45310612  0.17179542  1
  Zn  Zn97  1  0.48969687  0.24067905  0.75617013  1
  Zn  Zn98  1  0.45664382  0.97736167  0.21875296  1
  Zn  Zn99  1  0.43301499  0.96462351  0.67195467  1
  Zn  Zn100  1  0.93390757  0.42631508  0.19179679  1
  Zn  Zn101  1  0.95078740  0.47220439  0.70075201  1
  Zn  Zn102  1  0.90641496  0.93829047  0.21341414  1
  Zn  Zn103  1  0.94194816  0.93264273  0.68697583  1
  Zn  Zn104  1  0.06554840  0.05496311  0.31551406  1
  Zn  Zn105  1  0.06064244  0.07936875  0.80617646  1
  Zn  Zn106  1  0.06482721  0.55142621  0.31998331  1
  Zn  Zn107  1  0.08026358  0.55995686  0.80697025  1
  Zn  Zn108  1  0.61936882  0.05751209  0.26144053  1
  Zn  Zn109  1  0.57585764  0.05558584  0.82144770  1
  Zn  Zn110  1  0.54864368  0.55412497  0.27697279  1
  Zn  Zn111  1  0.54680461  0.55818196  0.80536386  1
  Zn  Zn112  1  0.43511034  0.16029349  0.42210792  1
  Zn  Zn113  1  0.42458069  0.18622083  0.94537985  1
  Zn  Zn114  1  0.44912579  0.60035334  0.42794429  1
  Zn  Zn115  1  0.41341436  0.72020450  0.90511035  1
  Zn  Zn116  1  0.93360209  0.19947923  0.45697348  1
  Zn  Zn117  1  0.93926904  0.18083570  0.92780076  1
  Zn  Zn118  1  0.93880012  0.68501550  0.45360845  1
  Zn  Zn119  1  0.97884050  0.65090229  0.90812069  1
  Zn  Zn120  1  0.07511495  0.31361176  0.05187240  1
  Zn  Zn121  1  0.07168018  0.31922205  0.56295615  1
  Zn  Zn122  1  0.01582576  0.80965428  0.05888767  1
  Zn  Zn123  1  0.06338721  0.81417040  0.57070646  1
  Zn  Zn124  1  0.56974020  0.32868733  0.04808323  1
  Zn  Zn125  1  0.56504758  0.25730685  0.56690081  1
  Zn  Zn126  1  0.67714091  0.99327810  0.10529595  1
  Zn  Zn127  1  0.57800308  0.80260682  0.56606373  1
  O  O128  1  0.12721333  0.14697290  0.10283325  1
  O  O129  1  0.10174609  0.11583834  0.64124396  1
  O  O130  1  0.10492603  0.60500657  0.12263828  1
  O  O131  1  0.13173773  0.62852502  0.61979966  1
  O  O132  1  0.66853523  0.09332130  0.16680924  1
  O  O133  1  0.63411283  0.10893375  0.62980188  1
  O  O134  1  0.64766848  0.60498347  0.14482617  1
  O  O135  1  0.63094427  0.62707300  0.61159994  1
  O  O136  1  0.36205754  0.38093714  0.37844926  1
  O  O137  1  0.36384182  0.41067894  0.90044693  1
  O  O138  1  0.36805828  0.79233119  0.44693479  1
  O  O139  1  0.39490978  0.88999282  0.84872661  1
  O  O140  1  0.89279598  0.36114829  0.37538616  1
  O  O141  1  0.84827904  0.38953701  0.85984540  1
  O  O142  1  0.89201552  0.86531669  0.39087013  1
  O  O143  1  0.80986281  0.83648844  0.90862374  1
  O  O144  1  0.22089182  0.01820035  0.38966325  1
  O  O145  1  0.26961059  -0.01006899  0.84958444  1
  O  O146  1  0.25415016  0.50406309  0.37003671  1
  O  O147  1  0.25298567  0.50776463  0.85717956  1
  O  O148  1  0.77886593  -0.01224995  0.37940601  1
  O  O149  1  0.74724969  -0.00047434  0.86099056  1
  O  O150  1  0.75249523  0.51140209  0.37325459  1
  O  O151  1  0.75555750  0.51465949  0.88068328  1
  O  O152  1  0.22883944  0.49957523  0.14014106  1
  O  O153  1  0.25850818  0.48185982  0.62986774  1
  O  O154  1  0.22935158  0.98651415  0.12032931  1
  O  O155  1  0.22373995  1.01203483  0.62209883  1
  O  O156  1  0.75091039  0.47955173  0.14367215  1
  O  O157  1  0.74751227  0.47988433  0.57857417  1
  O  O158  1  0.79952687  0.97001070  0.12453582  1
  O  O159  1  0.74758116  0.98711990  0.63545384  1
  O  O160  1  0.01071627  0.38087320  0.26902605  1
  O  O161  1  0.01703724  0.38632483  0.73544841  1
  O  O162  1  -0.01363786  0.85415911  0.26528763  1
  O  O163  1  0.00080499  0.85158383  0.73680142  1
  O  O164  1  0.48041266  0.36602170  0.24843181  1
  O  O165  1  0.46952226  0.35743831  0.80226948  1
  O  O166  1  0.50009204  0.88070579  0.25811479  1
  O  O167  1  0.51680509  0.88075474  0.74005655  1
  O  O168  1  0.47896355  0.16431313  0.20296319  1
  O  O169  1  0.57442617  0.15612894  0.77214866  1
  O  O170  1  0.49713689  0.65612744  0.27462630  1
  O  O171  1  0.49443960  0.63902730  0.74193345  1
  O  O172  1  1.00044149  0.12701764  0.25430183  1
  O  O173  1  0.98136461  0.13426100  0.74333748  1
  O  O174  1  0.99000816  0.60520809  0.24787058  1
  O  O175  1  1.01564053  0.62252556  0.73458499  1
  O  O176  1  0.36262858  0.26691137  -0.00708333  1
  O  O177  1  0.36317366  0.23402126  0.48423866  1
  O  O178  1  0.36941795  0.73402244  0.00763636  1
  O  O179  1  0.38732285  0.75132996  0.50271020  1
  O  O180  1  0.89898634  0.24770592  0.01198936  1
  O  O181  1  0.85252162  0.24456635  0.51974461  1
  O  O182  1  0.79620105  0.66977924  -0.02356147  1
  O  O183  1  0.86655870  0.75933889  0.50506653  1
  O  O184  1  0.13712528  0.25606995  0.48780940  1
  O  O185  1  0.12708058  0.24326274  0.97799175  1
  O  O186  1  0.11700985  0.74386257  0.49298844  1
  O  O187  1  0.09251428  0.72895676  1.01708940  1
  O  O188  1  0.63151692  0.21555544  0.49050821  1
  O  O189  1  0.62861972  0.26115087  0.97788949  1
  O  O190  1  0.64874463  0.74097228  0.50043645  1
  O  O191  1  0.60252718  0.70436003  0.97715862  1
  O  O192  1  0.50396512  0.28137433  0.13705601  1
  O  O193  1  0.55536212  0.27654852  0.67091441  1
  O  O194  1  0.41149914  0.79797568  0.06716623  1
  O  O195  1  0.49930569  0.76038897  0.63440718  1
  O  O196  1  1.00114509  0.26002784  0.12561196  1
  O  O197  1  1.00453554  0.23629208  0.61323660  1
  O  O198  1  0.99699824  0.72815885  0.14740092  1
  O  O199  1  1.01149288  0.73263033  0.63422492  1
  O  O200  1  0.01216762  0.26142429  0.39491977  1
  O  O201  1  0.01027300  0.25531545  0.86813980  1
  O  O202  1  0.00452891  0.74904341  0.38101324  1
  O  O203  1  -0.00835043  0.75122843  0.85799361  1
  O  O204  1  0.47283566  0.23671251  0.33784246  1
  O  O205  1  0.51293715  0.22770514  0.88269326  1
  O  O206  1  0.47697714  0.87279329  0.42990625  1
  O  O207  1  0.49366952  0.77206316  0.84559561  1
  O  O208  1  0.24217654  0.13659313  0.49007535  1
  O  O209  1  0.21730320  0.09776055  0.96668653  1
  O  O210  1  0.25564147  0.62003616  0.48038382  1
  O  O211  1  0.22035858  0.63258151  1.01225360  1
  O  O212  1  0.74720594  0.12704269  0.50254092  1
  O  O213  1  0.76970354  0.08168459  1.00434888  1
  O  O214  1  0.75438206  0.62927718  0.48904445  1
  O  O215  1  0.74882596  0.61998117  1.01785843  1
  O  O216  1  0.24359348  0.37712014  -0.00039042  1
  O  O217  1  0.25130872  0.36220273  0.50627351  1
  O  O218  1  0.23762291  0.87896648  -0.00016067  1
  O  O219  1  0.25174074  0.90386390  0.50366399  1
  O  O220  1  0.75061410  0.38603807  0.00340111  1
  O  O221  1  0.72706556  0.33994837  0.47516330  1
  O  O222  1  0.72842180  0.90145408  0.04230867  1
  O  O223  1  0.75946253  0.86726041  0.50939348  1
  O  O224  1  0.12403955  0.48626454  0.24423056  1
  O  O225  1  0.14639791  0.48396430  0.75213590  1
  O  O226  1  0.12224278  1.00191379  0.22915237  1
  O  O227  1  0.11857258  0.99709115  0.74213932  1
  O  O228  1  0.64809704  0.49747623  0.25656165  1
  O  O229  1  0.60328369  0.48724589  0.73009464  1
  O  O230  1  0.75712917  1.03102442  0.32531123  1
  O  O231  1  0.63790750  0.98791975  0.73943663  1
  O  O232  1  0.34524502  0.00122964  0.22609322  1
  O  O233  1  0.40813960  0.02267311  0.76608639  1
  O  O234  1  0.34862048  0.48400484  0.25301604  1
  O  O235  1  0.35863330  0.51996630  0.75272925  1
  O  O236  1  0.87100533  0.04074156  0.24689378  1
  O  O237  1  0.86273497  -0.01730174  0.75193665  1
  O  O238  1  0.86445641  0.50092825  0.25455362  1
  O  O239  1  0.86492548  0.50593606  0.75884005  1
  O  O240  1  0.11791711  0.36350103  0.36905106  1
  O  O241  1  0.13124690  0.36618167  0.85816244  1
  O  O242  1  0.11045085  0.85153733  0.38141001  1
  O  O243  1  0.15706646  0.86347953  0.89577259  1
  O  O244  1  0.54511847  0.38144640  0.44407306  1
  O  O245  1  0.59658694  0.42168951  0.87565353  1
  O  O246  1  0.62965819  0.87956066  0.36479589  1
  O  O247  1  0.61932332  0.88029322  0.85560037  1
  O  O248  1  0.30436447  0.16010552  0.11168626  1
  O  O249  1  0.40841538  0.16042618  0.62857689  1
  O  O250  1  0.37420156  0.63025564  0.16755212  1
  O  O251  1  0.37572845  0.61731318  0.62933462  1
  O  O252  1  0.86501956  0.15322249  0.13036234  1
  O  O253  1  0.88420937  0.11964492  0.64283571  1
  O  O254  1  0.88393188  0.60699854  0.13762548  1
  O  O255  1  0.88004798  0.61009782  0.64714497  1
  O  O256  1  0.26718207  0.22162328  0.11400889  1
  O  O257  1  0.24942657  0.25230710  0.60709597  1
  O  O258  1  0.23994484  0.74053832  0.14491894  1
  O  O259  1  0.24770250  0.77248700  0.59706711  1
  O  O260  1  0.74456965  0.26790991  0.11499286  1
  O  O261  1  0.72605680  0.24584422  0.61903567  1
  O  O262  1  0.75686673  0.76371347  0.11065801  1
  O  O263  1  0.74896580  0.76338785  0.61979636  1
  O  O264  1  0.24012950  0.23746114  0.37844612  1
  O  O265  1  0.25349624  0.24637966  0.86691375  1
  O  O266  1  0.22367034  0.73306935  0.36888151  1
  O  O267  1  0.22282256  0.84037068  0.93530988  1
  O  O268  1  0.74027187  0.28450880  0.41425414  1
  O  O269  1  0.77354597  0.21128199  0.91986986  1
  O  O270  1  0.76432360  0.73432102  0.38408208  1
  O  O271  1  0.76012055  0.71372434  0.92866844  1
  O  O272  1  0.02668559  0.11888550  -0.02892879  1
  O  O273  1  -0.01601387  0.10992096  0.51951714  1
  O  O274  1  -0.00221626  0.60226930  0.01300582  1
  O  O275  1  0.00265935  0.61687478  0.51839121  1
  O  O276  1  0.48494261  0.11570087  0.00878793  1
  O  O277  1  0.52077361  0.11193862  0.47278178  1
  O  O278  1  0.57578616  0.64538113  -0.05937568  1
  O  O279  1  0.52126837  0.64803625  0.49384353  1
  O  O280  1  0.50251329  0.34242451  0.48857296  1
  O  O281  1  0.48781023  0.37054236  0.98181293  1
  O  O282  1  0.50354016  0.88118148  0.49784562  1
  O  O283  1  0.50058304  0.86598590  0.97370959  1
  O  O284  1  1.00461992  0.38332410  0.49591196  1
  O  O285  1  1.00531815  0.38617445  0.99841774  1
  O  O286  1  0.99522620  0.88143903  0.50203481  1
  O  O287  1  1.00927438  0.88209780  0.97351445  1
  O  O288  1  0.46826140  0.50981948  0.34986615  1
  O  O289  1  0.46775978  0.51315214  0.87600850  1
  O  O290  1  0.50961277  1.05477165  0.28122644  1
  O  O291  1  0.50468404  0.99209787  0.88579015  1
  O  O292  1  1.00169013  0.48467029  0.38715176  1
  O  O293  1  1.00650304  0.49335689  0.88145294  1
  O  O294  1  1.01170527  0.98685644  0.39433286  1
  O  O295  1  1.02588609  0.99236656  0.86541933  1
  O  O296  1  -0.01355954  -0.01582505  0.14322077  1
  O  O297  1  0.00601562  -0.00067693  0.62080814  1
  O  O298  1  0.00135805  0.49430455  0.12065121  1
  O  O299  1  0.01584791  0.51142324  0.61927129  1
  O  O300  1  0.45980904  -0.00953899  0.10595879  1
  O  O301  1  0.52553359  -0.00357178  0.62108636  1
  O  O302  1  0.52590399  0.50478443  0.16361234  1
  O  O303  1  0.55865110  0.47376899  0.66349430  1
  O  O304  1  0.22650735  0.38448898  0.25971638  1
  O  O305  1  0.26492130  0.38479411  0.74041991  1
  O  O306  1  0.23994864  0.90134096  0.27433554  1
  O  O307  1  0.23853479  0.86246182  0.72274645  1
  O  O308  1  0.75465140  0.38074873  0.27041300  1
  O  O309  1  0.74884440  0.39466051  0.68506076  1
  O  O310  1  0.82058213  0.86220627  0.22087355  1
  O  O311  1  0.74159048  0.87773583  0.73831065  1
  O  O312  1  0.23373397  0.10134405  0.25975394  1
  O  O313  1  0.24708409  0.12967979  0.75682126  1
  O  O314  1  0.22901462  0.60048070  0.26403690  1
  O  O315  1  0.25726826  0.62712450  0.73053984  1
  O  O316  1  0.78871755  0.18663394  0.27519365  1
  O  O317  1  0.76536260  0.10402318  0.74836955  1
  O  O318  1  0.77183922  0.62010292  0.27057497  1
  O  O319  1  0.75975531  0.63759022  0.75445630  1
  O  O320  1  0.34727281  0.11439808  0.36836470  1
  O  O321  1  0.35344630  0.11774370  0.88136578  1
  O  O322  1  0.35334317  0.62950261  0.35313071  1
  O  O323  1  0.36662491  0.63189543  0.85271925  1
  O  O324  1  0.89800403  0.13064740  0.37488397  1
  O  O325  1  0.87116132  0.11560695  0.85850364  1
  O  O326  1  0.88662366  0.61035220  0.37679722  1
  O  O327  1  0.88779498  0.60675498  0.85554750  1
  O  O328  1  0.11536891  0.37764728  0.14121236  1
  O  O329  1  0.14373941  0.36634121  0.63980017  1
  O  O330  1  0.09497903  0.87118060  0.12740681  1
  O  O331  1  0.13460332  0.89159008  0.61677346  1
  O  O332  1  0.64084699  0.38749058  0.11962515  1
  O  O333  1  0.58866984  0.42616545  0.61504617  1
  O  O334  1  0.64191784  0.94640007  0.21329911  1
  O  O335  1  0.64043417  0.88101279  0.62740124  1
  O  O336  1  0.12334461  0.26194569  0.26103268  1
  O  O337  1  0.12703380  0.26594230  0.75386828  1
  O  O338  1  0.09622000  0.72901472  0.26973531  1
  O  O339  1  0.11846332  0.74566048  0.75544240  1
  O  O340  1  0.58571156  0.25986771  0.26250871  1
  O  O341  1  0.67330745  0.27301065  0.81527154  1
  O  O342  1  0.63008366  0.77858032  0.23133860  1
  O  O343  1  0.61330254  0.76363696  0.74054698  1
  O  O344  1  0.38017700  0.26922246  0.23668789  1
  O  O345  1  0.37864522  0.23677337  0.75970147  1
  O  O346  1  0.37520789  0.76646545  0.26045211  1
  O  O347  1  0.38506525  0.73950124  0.73884042  1
  O  O348  1  0.89854106  0.24597944  0.24191490  1
  O  O349  1  0.85093993  0.23996427  0.75927351  1
  O  O350  1  0.89623147  0.71798626  0.26791013  1
  O  O351  1  0.89220484  0.72842406  0.74955757  1
  O  O352  1  0.37766684  0.51324378  0.47237987  1
  O  O353  1  0.35088446  0.54819883  0.98523265  1
  O  O354  1  0.37715350  1.09717049  0.61328672  1
  O  O355  1  0.38009660  0.99452839  0.96896015  1
  O  O356  1  0.90432235  0.49895086  0.50522700  1
  O  O357  1  0.88616622  0.49782223  0.97998087  1
  O  O358  1  0.88689622  0.98501091  0.51063303  1
  O  O359  1  0.91626205  1.01140187  0.98613952  1
  O  O360  1  0.09777466  0.00665267  0.03134303  1
  O  O361  1  0.10491737  0.00872258  0.51683998  1
  O  O362  1  0.11247622  0.50042456  0.00755049  1
  O  O363  1  0.11082006  0.49581135  0.49396002  1
  O  O364  1  0.59426807  -0.00009451  0.02361055  1
  O  O365  1  0.64209495  0.00856664  0.51183962  1
  O  O366  1  0.61901776  0.50881444  0.02701678  1
  O  O367  1  0.62523580  0.52610010  0.48680891  1
  O  O368  1  0.37355157  0.40514229  0.08856732  1
  O  O369  1  0.36494354  0.36090319  0.61709629  1
  O  O370  1  0.36546060  0.84854077  0.09151327  1
  O  O371  1  0.35520228  0.89366160  0.63282578  1
  O  O372  1  0.86265282  0.35773783  0.13149239  1
  O  O373  1  0.78764236  0.41323148  0.62635990  1
  O  O374  1  0.89515982  0.83590943  0.07748410  1
  O  O375  1  0.86233586  0.87536265  0.61943199  1
  O  O376  1  0.12309126  0.14313374  0.37071423  1
  O  O377  1  0.13367872  0.15227153  0.85753154  1
  O  O378  1  0.12785121  0.62438006  0.38289370  1
  O  O379  1  0.10313132  0.62355926  0.89782599  1
  O  O380  1  0.64334817  0.09837140  0.37139242  1
  O  O381  1  0.65378492  0.11765533  0.89699439  1
  O  O382  1  0.64209078  0.63185996  0.37347308  1
  O  O383  1  0.61936568  0.61975123  0.87557730  1
