# generated using pymatgen
data_VZnO4
_symmetry_space_group_name_H-M   'P 1'
_cell_length_a   17.07549931
_cell_length_b   17.14536787
_cell_length_c   16.89545561
_cell_angle_alpha   91.20615051
_cell_angle_beta   90.40397777
_cell_angle_gamma   90.90072205
_symmetry_Int_Tables_number   1
_chemical_formula_structural   VZnO4
_chemical_formula_sum   'V64 Zn64 O256'
_cell_volume   4944.56832111
_cell_formula_units_Z   64
loop_
 _symmetry_equiv_pos_site_id
 _symmetry_equiv_pos_as_xyz
  1  'x, y, z'
loop_
 _atom_site_type_symbol
 _atom_site_label
 _atom_site_symmetry_multiplicity
 _atom_site_fract_x
 _atom_site_fract_y
 _atom_site_fract_z
 _atom_site_occupancy
  V  V0  1  0.24801890  0.37235652  0.11239666  1
  V  V1  1  0.38860785  0.36375715  0.00059559  1
  V  V2  1  0.85302731  0.25384869  0.13726454  1
  V  V3  1  0.12965432  0.63386167  -0.00886081  1
  V  V4  1  0.40119543  -0.00907243  0.37008068  1
  V  V5  1  0.58786822  0.37361608  0.23459697  1
  V  V6  1  0.72268489  0.00326441  0.24826430  1
  V  V7  1  0.73846123  0.86036987  0.11252907  1
  V  V8  1  0.68755269  0.13416628  0.51468625  1
  V  V9  1  0.37368787  0.00327702  0.86511479  1
  V  V10  1  0.37174005  0.26638060  0.62113166  1
  V  V11  1  0.78025723  0.88735856  0.62660339  1
  V  V12  1  0.74163322  0.09104739  0.88208777  1
  V  V13  1  0.85196260  0.38288961  0.50152917  1
  V  V14  1  0.86707297  0.61907688  0.76048458  1
  V  V15  1  -0.00629136  0.38687523  0.38963460  1
  V  V16  1  0.49645143  0.52944969  0.02009963  1
  V  V17  1  0.26631083  0.91127979  0.62308683  1
  V  V18  1  0.00522660  0.75669371  0.25383656  1
  V  V19  1  0.36076117  0.62964586  0.25641490  1
  V  V20  1  0.35766104  0.74398937  0.11927457  1
  V  V21  1  -0.00611209  0.62370696  0.12486758  1
  V  V22  1  0.25333950  0.63422855  0.86157865  1
  V  V23  1  0.01294611  0.87900068  0.88490951  1
  V  V24  1  0.11867737  0.89229650  0.73997674  1
  V  V25  1  0.01000165  0.73811085  0.76089209  1
  V  V26  1  0.89460491  0.73722200  0.61903212  1
  V  V27  1  0.87763082  0.74391293  0.11569268  1
  V  V28  1  0.90299166  0.12705758  0.25172564  1
  V  V29  1  0.62798510  0.00219182  0.62833169  1
  V  V30  1  0.86683560  0.51836808  0.36518418  1
  V  V31  1  0.12402659  0.49883653  0.11935671  1
  V  V32  1  -0.00585756  0.49478138  -0.00932795  1
  V  V33  1  0.23444119  0.73321295  0.51575985  1
  V  V34  1  0.62275202  0.85819470  0.26792091  1
  V  V35  1  0.85740940  0.37180008  0.01532528  1
  V  V36  1  0.24904117  0.88482469  0.12753596  1
  V  V37  1  0.73804930  0.65342576  0.88095266  1
  V  V38  1  0.88983972  0.25692435  0.62011508  1
  V  V39  1  0.37467235  0.86468489  -0.01105009  1
  V  V40  1  0.72711645  0.63756522  0.37286783  1
  V  V41  1  0.62702340  0.13819724  0.01604888  1
  V  V42  1  0.37783955  0.50633341  0.87701669  1
  V  V43  1  0.64173501  0.50298085  0.12308006  1
  V  V44  1  0.12957383  0.88262934  0.25964246  1
  V  V45  1  0.50726503  -0.00593903  0.00179943  1
  V  V46  1  0.49619142  0.60508482  0.64999319  1
  V  V47  1  0.24087039  0.51100651  0.25496110  1
  V  V48  1  0.11925229  0.27350901  0.41726812  1
  V  V49  1  -0.00548253  0.35153582  0.87640003  1
  V  V50  1  0.12600350  0.12584716  -0.00876148  1
  V  V51  1  0.73358643  0.75098566  0.50823916  1
  V  V52  1  0.50331552  0.85417181  0.40509127  1
  V  V53  1  0.88533253  -0.03295731  0.36120343  1
  V  V54  1  0.01646488  -0.00824500  0.49462972  1
  V  V55  1  0.49935819  0.74257581  0.23623803  1
  V  V56  1  0.63365091  0.49641086  0.60804157  1
  V  V57  1  0.14255647  0.36167895  0.75430161  1
  V  V58  1  0.63286827  0.86473427  0.73735053  1
  V  V59  1  0.02457763  0.26651472  0.24666849  1
  V  V60  1  0.21559419  0.13802101  0.37137253  1
  V  V61  1  0.61503511  0.37701643  0.76679467  1
  V  V62  1  0.88259393  0.88508067  -0.00289730  1
  V  V63  1  0.49664904  0.13428115  0.61683699  1
  Zn  Zn64  1  0.25171334  0.16841709  0.16565049  1
  Zn  Zn65  1  0.17677153  0.26661644  0.62267511  1
  Zn  Zn66  1  0.17928136  0.69055449  0.18291137  1
  Zn  Zn67  1  0.18995572  0.68660783  0.69017373  1
  Zn  Zn68  1  0.66777209  0.19387464  0.20444703  1
  Zn  Zn69  1  0.69700825  0.18165089  0.71151885  1
  Zn  Zn70  1  0.69674875  0.68573085  0.18296466  1
  Zn  Zn71  1  0.69421558  0.67383232  0.67935609  1
  Zn  Zn72  1  0.26708144  0.33622656  0.31542413  1
  Zn  Zn73  1  0.49927032  0.24285338  0.76108852  1
  Zn  Zn74  1  0.31716185  0.82357053  0.31081782  1
  Zn  Zn75  1  0.28112923  0.83901762  0.81963433  1
  Zn  Zn76  1  0.83815065  0.27277958  0.33876358  1
  Zn  Zn77  1  0.81414335  0.29425860  0.83888299  1
  Zn  Zn78  1  0.80657666  0.78342398  0.30200080  1
  Zn  Zn79  1  0.82230634  0.81265563  0.80584735  1
  Zn  Zn80  1  0.15218978  0.49134072  0.43289727  1
  Zn  Zn81  1  0.22232188  0.41389357  0.90195901  1
  Zn  Zn82  1  0.20052121  0.94889544  0.44240436  1
  Zn  Zn83  1  0.19847022  0.93125448  0.94047201  1
  Zn  Zn84  1  0.68971735  0.45169085  0.42449680  1
  Zn  Zn85  1  0.66875059  0.47620954  0.91376112  1
  Zn  Zn86  1  0.73889220  0.95734168  0.45948615  1
  Zn  Zn87  1  0.68241760  0.92099084  0.92899319  1
  Zn  Zn88  1  0.35879233  0.03767702  0.08555454  1
  Zn  Zn89  1  0.28382224  0.10709827  0.57222589  1
  Zn  Zn90  1  0.30601429  0.56624221  0.05513884  1
  Zn  Zn91  1  0.34163201  0.58244891  0.53497688  1
  Zn  Zn92  1  0.80529794  0.05531704  0.07746119  1
  Zn  Zn93  1  0.87812700  0.06452748  0.55928016  1
  Zn  Zn94  1  0.80651570  0.56021710  0.02997152  1
  Zn  Zn95  1  0.81270443  0.56846280  0.55521382  1
  Zn  Zn96  1  0.42321849  0.44952037  0.18132093  1
  Zn  Zn97  1  0.41444241  0.45837401  0.66906327  1
  Zn  Zn98  1  0.44525125  0.92992788  0.18670294  1
  Zn  Zn99  1  0.45364293  0.94519349  0.67984504  1
  Zn  Zn100  1  0.93610002  0.43503582  0.19581239  1
  Zn  Zn101  1  0.91430562  0.42710174  0.70263051  1
  Zn  Zn102  1  0.94830429  0.93186842  0.17474071  1
  Zn  Zn103  1  0.95126281  0.93684185  0.68614856  1
  Zn  Zn104  1  0.06817683  0.05706490  0.31662994  1
  Zn  Zn105  1  0.03592765  0.05462543  0.80909860  1
  Zn  Zn106  1  0.04747196  0.55909712  0.29989124  1
  Zn  Zn107  1  0.06094569  0.55477438  0.81219995  1
  Zn  Zn108  1  0.56052276  0.05827666  0.43740922  1
  Zn  Zn109  1  0.54313395  0.08720478  0.83029248  1
  Zn  Zn110  1  0.57622107  0.58016295  0.26169650  1
  Zn  Zn111  1  0.55805814  0.56619663  0.82362184  1
  Zn  Zn112  1  0.39533229  0.16767898  0.45908033  1
  Zn  Zn113  1  0.43292846  0.17609626  0.94213305  1
  Zn  Zn114  1  0.42986544  0.69882244  0.43235427  1
  Zn  Zn115  1  0.44287853  0.68970241  0.93313292  1
  Zn  Zn116  1  0.93997526  0.19080204  0.44349793  1
  Zn  Zn117  1  0.93641037  0.18393275  0.96519260  1
  Zn  Zn118  1  0.96026354  0.68490646  0.43485009  1
  Zn  Zn119  1  0.94005650  0.69068757  0.93798635  1
  Zn  Zn120  1  0.06409840  0.31690260  0.06059447  1
  Zn  Zn121  1  0.04893953  0.38412512  0.58970405  1
  Zn  Zn122  1  0.06588919  0.81117249  0.06531836  1
  Zn  Zn123  1  0.06332225  0.81699833  0.55318701  1
  Zn  Zn124  1  0.58778826  0.33313400  0.03365243  1
  Zn  Zn125  1  0.60908045  0.28927947  0.61230687  1
  Zn  Zn126  1  0.55003128  0.79279355  0.04177131  1
  Zn  Zn127  1  0.55219651  0.78827403  0.60463790  1
  O  O128  1  0.15416934  0.12581038  0.09180952  1
  O  O129  1  0.10242351  0.13426981  0.63246651  1
  O  O130  1  0.11331220  0.62040840  0.11022058  1
  O  O131  1  0.12014533  0.59929638  0.62734541  1
  O  O132  1  0.61998054  0.13158841  0.11604899  1
  O  O133  1  0.67425629  0.09808895  0.62999704  1
  O  O134  1  0.62576411  0.60458592  0.15141739  1
  O  O135  1  0.61338698  0.60180185  0.63388019  1
  O  O136  1  0.34224245  0.39309157  0.39992391  1
  O  O137  1  0.36390059  0.40026032  0.90480960  1
  O  O138  1  0.40452566  0.87420164  0.36965010  1
  O  O139  1  0.37767168  0.84565596  0.89019049  1
  O  O140  1  0.88172474  0.36931506  0.38506391  1
  O  O141  1  0.88068350  0.35940960  0.91036552  1
  O  O142  1  0.87664724  0.87164603  0.33945064  1
  O  O143  1  0.88560883  0.86829505  0.89240392  1
  O  O144  1  0.17963028  0.04436447  0.36177612  1
  O  O145  1  0.27690464  -0.04524937  0.86165079  1
  O  O146  1  0.23123165  0.50647410  0.35421220  1
  O  O147  1  0.26972715  0.51968766  0.89296746  1
  O  O148  1  0.76223576  -0.02146438  0.34088038  1
  O  O149  1  0.75964405  -0.00660752  0.88770501  1
  O  O150  1  0.75536590  0.53015595  0.37170517  1
  O  O151  1  0.76128870  0.53946580  0.91839765  1
  O  O152  1  0.23208208  0.50370044  0.12166748  1
  O  O153  1  0.16268913  0.54467588  0.59579831  1
  O  O154  1  0.26680368  0.98212759  0.13208517  1
  O  O155  1  0.25488266  1.01027009  0.61898679  1
  O  O156  1  0.73857793  0.50539414  0.10884654  1
  O  O157  1  0.73330910  0.51402994  0.61724954  1
  O  O158  1  0.75709695  0.96864872  0.14907419  1
  O  O159  1  0.80477471  0.98167584  0.62139454  1
  O  O160  1  -0.00211804  0.36861343  0.26875435  1
  O  O161  1  -0.03981874  0.36181830  0.78281919  1
  O  O162  1  0.01519625  0.86201496  0.23667665  1
  O  O163  1  0.00783001  0.86495235  0.76779063  1
  O  O164  1  0.49169715  0.39056055  0.24957429  1
  O  O165  1  0.51788833  0.36203901  0.77784169  1
  O  O166  1  0.51541463  0.85875001  0.24286103  1
  O  O167  1  0.53168162  0.86467583  0.69490834  1
  O  O168  1  0.46577792  0.15303849  0.20999444  1
  O  O169  1  0.52585961  0.11836751  0.71549746  1
  O  O170  1  0.47863075  0.63758838  0.24936423  1
  O  O171  1  0.49778285  0.62372487  0.74918222  1
  O  O172  1  1.00492540  0.14467117  0.26230388  1
  O  O173  1  1.04424846  0.13353274  0.67482880  1
  O  O174  1  1.00537542  0.63823349  0.23276994  1
  O  O175  1  0.99577690  0.63502137  0.76292424  1
  O  O176  1  0.38258388  0.26596631  -0.01108023  1
  O  O177  1  0.39509891  0.26083647  0.51714732  1
  O  O178  1  0.37622274  0.75394635  0.01542300  1
  O  O179  1  0.33835022  0.76794267  0.47141878  1
  O  O180  1  0.87813685  0.25647056  0.03223141  1
  O  O181  1  0.87681433  0.27027037  0.51004516  1
  O  O182  1  0.88397168  0.76064780  0.01155182  1
  O  O183  1  0.90150775  0.73245770  0.51733507  1
  O  O184  1  0.11623757  0.27299678  0.51725483  1
  O  O185  1  0.11384737  0.22894440  0.99935416  1
  O  O186  1  0.13442549  0.74500155  0.50608881  1
  O  O187  1  0.10865841  0.72938866  0.99465163  1
  O  O188  1  0.67821252  0.23206296  0.54601515  1
  O  O189  1  0.62479607  0.23629506  0.99969561  1
  O  O190  1  0.63800839  0.75311332  0.52427355  1
  O  O191  1  0.53890986  0.74508887  0.94074698  1
  O  O192  1  0.44168299  0.18780285  0.15247898  1
  O  O193  1  0.50066527  0.24255070  0.62331406  1
  O  O194  1  0.48335557  0.75125705  0.13420174  1
  O  O195  1  0.48887773  0.69282794  0.60099075  1
  O  O196  1  1.01608718  0.26150887  0.14435475  1
  O  O197  1  0.98251105  0.29466784  0.63470517  1
  O  O198  1  0.99415205  0.73926155  0.12354365  1
  O  O199  1  0.99726714  0.74875339  0.64001396  1
  O  O200  1  0.00743103  0.27121863  0.38145121  1
  O  O201  1  -0.00930835  0.25365145  0.89154223  1
  O  O202  1  -0.00359977  0.75081343  0.35222004  1
  O  O203  1  0.00033250  0.75789848  0.86597389  1
  O  O204  1  0.41523838  0.24420421  0.31958287  1
  O  O205  1  0.50477958  0.19133651  0.85966905  1
  O  O206  1  0.49464733  0.75519610  0.35630676  1
  O  O207  1  0.44088580  0.76172010  0.76858472  1
  O  O208  1  0.27921455  0.13611445  0.45471654  1
  O  O209  1  0.22038661  0.14675534  0.95589929  1
  O  O210  1  0.25030265  0.63279688  0.49893122  1
  O  O211  1  0.23098039  0.63182377  0.99970786  1
  O  O212  1  0.78584491  0.11902818  0.51070963  1
  O  O213  1  0.73012195  0.10441251  1.00960657  1
  O  O214  1  0.75154307  0.64122836  0.48635394  1
  O  O215  1  0.75028389  0.64863779  0.98863425  1
  O  O216  1  0.24621413  0.37515372  0.00792465  1
  O  O217  1  0.29863963  0.41267685  0.46280280  1
  O  O218  1  0.26518525  0.87238798  0.01373459  1
  O  O219  1  0.22864562  0.87572550  0.53253325  1
  O  O220  1  0.76257231  0.37550854  0.00998777  1
  O  O221  1  0.75536734  0.37464425  0.48000605  1
  O  O222  1  0.76305330  0.87395175  0.01122424  1
  O  O223  1  0.76625008  0.85678015  0.51575324  1
  O  O224  1  0.13123760  0.51679079  0.23145038  1
  O  O225  1  0.07631416  0.46594705  0.73867135  1
  O  O226  1  0.11260471  0.97831706  0.24072908  1
  O  O227  1  0.11896372  0.98895902  0.76080944  1
  O  O228  1  0.62661814  0.48225550  0.23488889  1
  O  O229  1  0.62690811  0.47840493  0.79744899  1
  O  O230  1  0.62586931  0.96582233  0.24895012  1
  O  O231  1  0.63049576  0.98432119  0.73078546  1
  O  O232  1  0.39214397  -0.00651985  0.26926421  1
  O  O233  1  0.39897782  -0.00551012  0.76689183  1
  O  O234  1  0.35529002  0.52225886  0.24117597  1
  O  O235  1  0.38763161  0.49015567  0.78026286  1
  O  O236  1  0.88548251  0.02320117  0.26042574  1
  O  O237  1  0.94736138  0.03338627  0.74842534  1
  O  O238  1  0.86773246  0.49201443  0.26672627  1
  O  O239  1  0.87653792  0.52158447  0.75061952  1
  O  O240  1  0.10529896  0.38568700  0.39840487  1
  O  O241  1  0.09816085  0.37699034  0.86251595  1
  O  O242  1  0.14119367  0.88189832  0.35871574  1
  O  O243  1  0.11797384  0.87456086  0.87404387  1
  O  O244  1  0.63872563  0.37421527  0.34274313  1
  O  O245  1  0.65214608  0.35899226  0.88014579  1
  O  O246  1  0.61672303  0.85662824  0.36837774  1
  O  O247  1  0.63200006  0.86955111  0.83812704  1
  O  O248  1  0.33136802  0.14169602  0.09385184  1
  O  O249  1  0.40160382  0.11185474  0.58664627  1
  O  O250  1  0.36112476  0.64136149  0.13060425  1
  O  O251  1  0.39362088  0.56888121  0.63357315  1
  O  O252  1  0.86453592  0.13746673  0.14781499  1
  O  O253  1  0.89842186  0.16068199  0.62809602  1
  O  O254  1  0.88247282  0.63570332  0.10824667  1
  O  O255  1  0.87400382  0.63296643  0.63858772  1
  O  O256  1  0.23564193  0.27869048  0.13645483  1
  O  O257  1  0.27315452  0.21596873  0.61223415  1
  O  O258  1  0.25632784  0.75565204  0.12575998  1
  O  O259  1  0.25467220  0.74174275  0.61713125  1
  O  O260  1  0.75658957  0.25406137  0.14838288  1
  O  O261  1  0.78199758  0.26541138  0.66612994  1
  O  O262  1  0.76766219  0.75390588  0.12441232  1
  O  O263  1  0.77227192  0.74320183  0.61098906  1
  O  O264  1  0.21975973  0.27156899  0.39166404  1
  O  O265  1  0.26210519  0.16737906  0.77867563  1
  O  O266  1  0.27770798  0.76977985  0.41154570  1
  O  O267  1  0.25319865  0.73445510  0.86246873  1
  O  O268  1  0.72498581  0.27271958  0.31862082  1
  O  O269  1  0.79144435  0.20108048  0.90324706  1
  O  O270  1  0.74791359  0.74920243  0.39822226  1
  O  O271  1  0.75282193  0.75177905  0.87176709  1
  O  O272  1  0.02214495  0.11832229  0.01125939  1
  O  O273  1  -0.02657892  0.09715634  0.48653827  1
  O  O274  1  -0.00033145  0.61012655  0.00409899  1
  O  O275  1  0.04923281  0.61595885  0.46265631  1
  O  O276  1  0.51762570  0.10366292  0.00098171  1
  O  O277  1  0.55500815  0.13175656  0.53332410  1
  O  O278  1  0.49844692  0.62628542  0.02342819  1
  O  O279  1  0.45058556  0.59752414  0.47984838  1
  O  O280  1  0.48664690  0.47346903  0.42558324  1
  O  O281  1  0.48861957  0.38072664  1.00734537  1
  O  O282  1  0.50126725  0.83190877  0.50050263  1
  O  O283  1  0.47837386  0.87933301  1.01439730  1
  O  O284  1  0.98389990  0.39363541  0.49328803  1
  O  O285  1  1.00356716  0.38611516  0.99541152  1
  O  O286  1  1.00864506  0.88913855  0.48780937  1
  O  O287  1  0.99498409  0.86979550  0.99604354  1
  O  O288  1  0.45772449  0.53641275  0.40706014  1
  O  O289  1  0.48569787  0.52035114  0.90272973  1
  O  O290  1  0.51050559  0.96085821  0.40189567  1
  O  O291  1  0.48667298  0.99772189  0.89180297  1
  O  O292  1  0.98346324  0.48925815  0.36608055  1
  O  O293  1  0.99173293  0.49655708  0.89096519  1
  O  O294  1  0.98827537  0.99320642  0.37489270  1
  O  O295  1  0.99987567  0.97621130  0.88604022  1
  O  O296  1  -0.00057849  0.02133777  0.14189601  1
  O  O297  1  -0.02945863  -0.00363542  0.59105360  1
  O  O298  1  0.00820764  0.50603063  0.12890089  1
  O  O299  1  0.02403999  0.47101812  0.67301850  1
  O  O300  1  0.46919305  0.00482244  0.10546950  1
  O  O301  1  0.52635154  0.00636575  0.61035967  1
  O  O302  1  0.50174813  0.50673720  0.12199717  1
  O  O303  1  0.52133625  0.49682815  0.63762246  1
  O  O304  1  0.25246681  0.40575934  0.22996275  1
  O  O305  1  0.23305559  0.38600235  0.78856492  1
  O  O306  1  0.24000608  0.86751886  0.24001649  1
  O  O307  1  0.22629107  0.87241953  0.72247676  1
  O  O308  1  0.71240290  0.34999940  0.30320860  1
  O  O309  1  0.71645764  0.35500100  0.82371895  1
  O  O310  1  0.72490396  0.84918585  0.23844922  1
  O  O311  1  0.75434103  0.86869487  0.73074119  1
  O  O312  1  0.25217567  0.15730339  0.27789546  1
  O  O313  1  0.23940157  0.10169841  0.76041034  1
  O  O314  1  0.25050870  0.62212080  0.24105215  1
  O  O315  1  0.23921705  0.61407133  0.76348900  1
  O  O316  1  0.71996340  0.10137701  0.24458368  1
  O  O317  1  0.74306971  0.11179421  0.78363140  1
  O  O318  1  0.75964681  0.66443307  0.27757870  1
  O  O319  1  0.76257660  0.63195448  0.76175964  1
  O  O320  1  0.44257310  0.08574256  0.40215899  1
  O  O321  1  0.35935550  0.09801796  0.88999771  1
  O  O322  1  0.35781438  0.63922079  0.35419610  1
  O  O323  1  0.36421595  0.62406759  0.88228573  1
  O  O324  1  0.86666443  0.15786385  0.34598465  1
  O  O325  1  0.85024826  0.14042794  0.89877695  1
  O  O326  1  0.88755891  0.61523563  0.37386672  1
  O  O327  1  0.86813036  0.63719109  0.86507258  1
  O  O328  1  0.13061705  0.39508337  0.11614730  1
  O  O329  1  0.14864332  0.37437151  0.64555806  1
  O  O330  1  0.14507724  0.87111079  0.12146354  1
  O  O331  1  0.09363678  0.88834786  0.64286768  1
  O  O332  1  0.61689585  0.38954085  0.12894247  1
  O  O333  1  0.63241209  0.39694502  0.65752403  1
  O  O334  1  0.64065239  0.84301033  0.10140964  1
  O  O335  1  0.66523751  0.89992056  0.61901331  1
  O  O336  1  0.11978754  0.26856676  0.26560225  1
  O  O337  1  0.13680959  0.26292003  0.74414227  1
  O  O338  1  0.11215349  0.75902754  0.24174886  1
  O  O339  1  0.11106055  0.75208470  0.74464128  1
  O  O340  1  0.59345696  0.27354864  0.22681624  1
  O  O341  1  0.62381384  0.26468516  0.73095093  1
  O  O342  1  0.60602202  0.74772459  0.23841660  1
  O  O343  1  0.63542550  0.76593337  0.70515225  1
  O  O344  1  0.37106155  0.27775902  0.27209645  1
  O  O345  1  0.39246513  0.22911361  0.71510395  1
  O  O346  1  0.37669260  0.74499898  0.23991714  1
  O  O347  1  0.37698450  0.76317676  0.73465430  1
  O  O348  1  0.89685545  0.24892259  0.23776521  1
  O  O349  1  0.84189556  0.28849186  0.72363817  1
  O  O350  1  0.89398588  0.75461914  0.22647118  1
  O  O351  1  0.89166937  0.73844418  0.74408549  1
  O  O352  1  0.33315628  0.45965777  0.51606977  1
  O  O353  1  0.38862192  0.50559384  1.00998979  1
  O  O354  1  0.31225098  0.98263473  0.41459457  1
  O  O355  1  0.37774832  0.97611698  0.98345199  1
  O  O356  1  0.86235506  0.49188980  0.47778775  1
  O  O357  1  0.89047754  0.48128468  1.02042923  1
  O  O358  1  0.85538466  0.98302103  0.45732896  1
  O  O359  1  0.87567612  0.98204115  1.01721633  1
  O  O360  1  0.14125890  0.02440921  -0.01155338  1
  O  O361  1  0.11445690  0.00757556  0.50106312  1
  O  O362  1  0.10658842  0.51036165  0.01060267  1
  O  O363  1  0.11978527  0.49538824  0.54286539  1
  O  O364  1  0.60378691  -0.03001916  0.00129738  1
  O  O365  1  0.65632958  0.00986751  0.51328028  1
  O  O366  1  0.60652502  0.49773592  0.01392105  1
  O  O367  1  0.62099792  0.48031318  0.50849590  1
  O  O368  1  0.35756739  0.38320443  0.10949462  1
  O  O369  1  0.36269295  0.36410752  0.63830767  1
  O  O370  1  0.36333895  0.85941940  0.12997165  1
  O  O371  1  0.36350219  0.89417180  0.62586065  1
  O  O372  1  0.87594827  0.36290398  0.12838856  1
  O  O373  1  0.86293756  0.39452418  0.60369103  1
  O  O374  1  0.87473388  0.86208620  0.11556766  1
  O  O375  1  0.88063236  0.85012259  0.63840950  1
  O  O376  1  0.11360656  0.16855205  0.39228946  1
  O  O377  1  0.09618485  0.11934258  0.88836723  1
  O  O378  1  0.09963878  0.59726214  0.40366127  1
  O  O379  1  0.13581158  0.60924261  0.88432711  1
  O  O380  1  0.65296727  0.12514017  0.41689245  1
  O  O381  1  0.63731595  0.10093432  0.89930426  1
  O  O382  1  0.62953154  0.62375031  0.36054739  1
  O  O383  1  0.64057437  0.63520727  0.86512693  1
