# generated using pymatgen
data_VZnO4
_symmetry_space_group_name_H-M   'P 1'
_cell_length_a   17.12340014
_cell_length_b   17.03384586
_cell_length_c   16.93977108
_cell_angle_alpha   90.30678556
_cell_angle_beta   89.52780016
_cell_angle_gamma   89.98561506
_symmetry_Int_Tables_number   1
_chemical_formula_structural   VZnO4
_chemical_formula_sum   'V64 Zn64 O256'
_cell_volume   4940.70884888
_cell_formula_units_Z   64
loop_
 _symmetry_equiv_pos_site_id
 _symmetry_equiv_pos_as_xyz
  1  'x, y, z'
loop_
 _atom_site_type_symbol
 _atom_site_label
 _atom_site_symmetry_multiplicity
 _atom_site_fract_x
 _atom_site_fract_y
 _atom_site_fract_z
 _atom_site_occupancy
  V  V0  1  0.36093009  0.64878850  0.75073973  1
  V  V1  1  -0.02348729  0.36241690  0.38747128  1
  V  V2  1  0.64434052  0.50113206  0.63455015  1
  V  V3  1  0.68263493  0.69663984  0.54253864  1
  V  V4  1  0.74277980  0.55266571  0.78919893  1
  V  V5  1  0.50781291  0.88618561  0.90554307  1
  V  V6  1  0.36665621  0.15032001  0.67621678  1
  V  V7  1  -0.00669479  0.64213715  0.63312009  1
  V  V8  1  0.60766755  0.86361362  0.75242755  1
  V  V9  1  0.51700774  0.47735604  0.51077585  1
  V  V10  1  0.75932329  0.25352894  0.49892036  1
  V  V11  1  0.86160574  0.25783001  0.64822921  1
  V  V12  1  0.87560358  -0.01719150  0.88075502  1
  V  V13  1  0.22654547  0.88724032  0.14698329  1
  V  V14  1  0.85906357  0.00339157  0.37195630  1
  V  V15  1  0.61453793  0.26334726  0.38102768  1
  V  V16  1  0.37945109  0.74892142  0.13679751  1
  V  V17  1  0.37687679  0.48153088  0.86670588  1
  V  V18  1  0.63361606  0.11276649  0.50319429  1
  V  V19  1  0.75005514  0.49324531  0.24108816  1
  V  V20  1  -0.00839598  -0.00236844  0.50320607  1
  V  V21  1  -0.00898714  0.25042671  0.23598034  1
  V  V22  1  0.35575687  0.74406612  0.57073745  1
  V  V23  1  0.62966648  0.88624853  0.25033273  1
  V  V24  1  -0.00096963  0.73106452  0.24804834  1
  V  V25  1  0.50101654  0.90882005  0.36808060  1
  V  V26  1  -0.00253914  0.88079420  0.36419795  1
  V  V27  1  0.74508015  -0.03679194  0.74431676  1
  V  V28  1  0.12366910  0.74785425  0.37562261  1
  V  V29  1  0.37401621  0.35333433  -0.00982178  1
  V  V30  1  0.74784197  0.88989111  0.13029111  1
  V  V31  1  0.10061696  0.00947497  0.12666996  1
  V  V32  1  0.86230147  0.12046584  0.24346295  1
  V  V33  1  -0.00957633  0.50026939  0.51832383  1
  V  V34  1  0.85960268  0.11070180  0.75789404  1
  V  V35  1  0.49526293  0.64716993  0.61135407  1
  V  V36  1  0.75327076  0.63486752  0.36744684  1
  V  V37  1  0.75151881  0.73410923  0.00859671  1
  V  V38  1  0.88076517  0.73502567  0.12972212  1
  V  V39  1  0.12703344  0.62299414  0.50278543  1
  V  V40  1  0.51060209  0.12367541  0.13297597  1
  V  V41  1  0.32985705  0.48053818  0.35128402  1
  V  V42  1  0.35394634  0.87990550  0.00292277  1
  V  V43  1  0.10922632  0.23577939  0.85495626  1
  V  V44  1  0.36983151  0.90848533  0.47672716  1
  V  V45  1  0.60782077  0.74310095  0.36987751  1
  V  V46  1  0.11871942  0.13133070  0.49915215  1
  V  V47  1  0.23334659  0.39167163  0.09248023  1
  V  V48  1  0.14124976  0.78454333  0.86728785  1
  V  V49  1  0.59191622  0.62612805  0.02734546  1
  V  V50  1  0.61055834  0.73690055  0.88872299  1
  V  V51  1  0.00077786  0.77691466  0.75136718  1
  V  V52  1  -0.01351216  0.12020733  0.63310097  1
  V  V53  1  0.88366209  0.87192436  0.00354396  1
  V  V54  1  0.08133088  0.12654538  -0.00450123  1
  V  V55  1  0.25613641  0.47625695  0.72599173  1
  V  V56  1  0.59456417  0.48259053  0.14078383  1
  V  V57  1  0.85441307  0.37201009  -0.02451844  1
  V  V58  1  0.85105786  0.25851422  0.11718566  1
  V  V59  1  0.86438039  0.85632091  0.50858934  1
  V  V60  1  0.28518402  0.13330590  0.92031698  1
  V  V61  1  0.12284777  0.24905340  0.37668988  1
  V  V62  1  0.99858514  0.47279195  0.92389218  1
  V  V63  1  0.87929803  0.50627085  0.37307342  1
  Zn  Zn64  1  0.16168889  0.19290638  0.17846491  1
  Zn  Zn65  1  0.17467554  0.12130011  0.69631051  1
  Zn  Zn66  1  0.21444283  0.72560179  0.21332741  1
  Zn  Zn67  1  0.19056869  0.70961953  0.67784446  1
  Zn  Zn68  1  0.68860252  0.19778070  0.20006569  1
  Zn  Zn69  1  0.70334394  0.15827520  0.67576021  1
  Zn  Zn70  1  0.68707557  0.68963297  0.19565902  1
  Zn  Zn71  1  0.68501162  0.69192497  0.70251308  1
  Zn  Zn72  1  0.40415867  0.28695547  0.35078507  1
  Zn  Zn73  1  0.30260814  0.29479403  0.81085409  1
  Zn  Zn74  1  0.30219218  0.83531567  0.32455124  1
  Zn  Zn75  1  0.32757439  0.83054035  0.80974186  1
  Zn  Zn76  1  0.80733044  0.31614265  0.31296323  1
  Zn  Zn77  1  0.88728155  0.40878547  0.77850765  1
  Zn  Zn78  1  0.81743855  0.81642248  0.30970837  1
  Zn  Zn79  1  0.80210330  0.76573725  0.80722905  1
  Zn  Zn80  1  0.15743824  0.43059746  0.43527000  1
  Zn  Zn81  1  0.19509838  0.42506363  0.90370174  1
  Zn  Zn82  1  0.17924009  0.92994566  0.46712577  1
  Zn  Zn83  1  0.18359946  0.96590533  0.93656974  1
  Zn  Zn84  1  0.70232952  0.44234482  0.44433417  1
  Zn  Zn85  1  0.69066224  0.46180376  0.96761010  1
  Zn  Zn86  1  0.68712354  0.92220845  0.43933350  1
  Zn  Zn87  1  0.71221561  0.90522978  0.92289453  1
  Zn  Zn88  1  0.31518316  0.04962332  0.09526890  1
  Zn  Zn89  1  0.32681427  0.11820634  0.48324082  1
  Zn  Zn90  1  0.30490858  0.56561252  0.17132344  1
  Zn  Zn91  1  0.32141325  0.54789375  0.53814759  1
  Zn  Zn92  1  0.91554074  0.06256933  0.06332660  1
  Zn  Zn93  1  0.80363422  0.04984005  0.56457780  1
  Zn  Zn94  1  0.82916762  0.55351306  0.05445668  1
  Zn  Zn95  1  0.82022018  0.57578371  0.56318091  1
  Zn  Zn96  1  0.40761265  0.40632529  0.19086909  1
  Zn  Zn97  1  0.43199253  0.47271984  0.66560810  1
  Zn  Zn98  1  0.42994857  0.93034689  0.19088488  1
  Zn  Zn99  1  0.41560797  0.96708626  0.71388842  1
  Zn  Zn100  1  0.92084709  0.42238721  0.19993865  1
  Zn  Zn101  1  1.08105096  0.39645183  0.75930593  1
  Zn  Zn102  1  0.93362942  0.93555526  0.18877990  1
  Zn  Zn103  1  0.92998700  0.92980431  0.68499878  1
  Zn  Zn104  1  0.16283670  0.05338764  0.31828491  1
  Zn  Zn105  1  0.05290393  0.04252508  0.81687886  1
  Zn  Zn106  1  0.17989819  0.57668549  0.31997996  1
  Zn  Zn107  1  0.11807151  0.59265640  0.77207707  1
  Zn  Zn108  1  0.59154050  0.07325547  0.32113647  1
  Zn  Zn109  1  0.52174248  0.06492556  0.62079010  1
  Zn  Zn110  1  0.56416601  0.55399070  0.32258433  1
  Zn  Zn111  1  0.54261727  0.57288831  0.79789121  1
  Zn  Zn112  1  0.46193357  0.20322761  0.48658419  1
  Zn  Zn113  1  0.44191601  0.05271830  0.94820180  1
  Zn  Zn114  1  0.43407816  0.64471442  0.41500301  1
  Zn  Zn115  1  0.41748045  0.69324573  0.94648662  1
  Zn  Zn116  1  0.91399851  0.17861782  0.44915893  1
  Zn  Zn117  1  0.92270277  0.20032836  0.91856338  1
  Zn  Zn118  1  0.94274041  0.68310620  0.43539731  1
  Zn  Zn119  1  1.03091256  0.66958341  0.92814952  1
  Zn  Zn120  1  0.05151005  0.31634524  0.03764717  1
  Zn  Zn121  1  0.04214398  0.30622382  0.57089137  1
  Zn  Zn122  1  0.07546149  0.80915737  0.06339380  1
  Zn  Zn123  1  0.06459583  0.81755865  0.56007653  1
  Zn  Zn124  1  0.54822304  0.32269439  0.06562886  1
  Zn  Zn125  1  0.63092877  0.33728476  0.56369454  1
  Zn  Zn126  1  0.56029616  0.80566579  0.08078575  1
  Zn  Zn127  1  0.51059616  0.86043304  0.58539433  1
  O  O128  1  0.11120676  0.12506845  0.10340394  1
  O  O129  1  0.09268982  0.12688086  0.61049177  1
  O  O130  1  0.12120389  0.60332582  0.10830120  1
  O  O131  1  0.11367934  0.63624207  0.60721468  1
  O  O132  1  0.61657919  0.12762983  0.13553291  1
  O  O133  1  0.62223384  0.11828472  0.61727511  1
  O  O134  1  0.60991806  0.63419446  0.12824835  1
  O  O135  1  0.61011953  0.65945218  0.61451356  1
  O  O136  1  0.36555495  0.39411127  0.38143288  1
  O  O137  1  0.36849018  0.37378060  0.87495804  1
  O  O138  1  0.39606325  0.89517470  0.36003552  1
  O  O139  1  0.39714130  0.86601973  0.90138500  1
  O  O140  1  0.87177206  0.39039822  0.38290627  1
  O  O141  1  0.85626196  0.35219741  0.87652032  1
  O  O142  1  0.88229886  0.88183809  0.37812950  1
  O  O143  1  0.86334583  0.87271461  0.89759852  1
  O  O144  1  0.21991632  0.00033860  0.39212273  1
  O  O145  1  0.24493181  0.04629967  0.88640978  1
  O  O146  1  0.22400840  0.47762491  0.35303432  1
  O  O147  1  0.26677159  0.49243369  0.84318731  1
  O  O148  1  0.76350418  -0.01341793  0.37060144  1
  O  O149  1  0.76278708  -0.01731783  0.86069000  1
  O  O150  1  0.75700222  0.51144171  0.37148296  1
  O  O151  1  0.72872044  0.52926270  0.88537294  1
  O  O152  1  0.23921022  0.48867532  0.11604586  1
  O  O153  1  0.26639664  0.49776990  0.62693516  1
  O  O154  1  0.21869336  0.98925478  0.11271467  1
  O  O155  1  0.23336325  0.93594467  0.69286788  1
  O  O156  1  0.76313436  0.50739158  0.14180689  1
  O  O157  1  0.73560118  0.54776879  0.63184917  1
  O  O158  1  0.74989906  0.98438311  0.12529533  1
  O  O159  1  0.75612700  0.98179896  0.64560341  1
  O  O160  1  -0.01886061  0.35654888  0.27264321  1
  O  O161  1  0.08480855  0.35725512  0.65646720  1
  O  O162  1  -0.00533602  0.87592945  0.26255072  1
  O  O163  1  0.01221095  0.87574258  0.73865815  1
  O  O164  1  0.42481372  0.31099314  0.24427107  1
  O  O165  1  0.52126545  0.34910754  0.76375455  1
  O  O166  1  0.51510999  0.88712805  0.25610661  1
  O  O167  1  0.51070396  0.87221307  0.78203981  1
  O  O168  1  0.51840234  0.12440688  0.23876261  1
  O  O169  1  0.44147111  0.08550527  0.70859519  1
  O  O170  1  0.47115457  0.61293395  0.31330786  1
  O  O171  1  0.47812148  0.63343636  0.72168251  1
  O  O172  1  0.96972864  0.15270142  0.25973409  1
  O  O173  1  0.98312547  0.09835601  0.73567124  1
  O  O174  1  0.99410769  0.63662342  0.24903955  1
  O  O175  1  1.01645730  0.62722383  0.73218009  1
  O  O176  1  0.36535905  0.25816352  -0.01208134  1
  O  O177  1  0.36899862  0.20491722  0.42060515  1
  O  O178  1  0.37259810  0.76918961  0.02198498  1
  O  O179  1  0.36512852  0.72092075  0.47374712  1
  O  O180  1  0.87212721  0.25811623  0.00853070  1
  O  O181  1  0.86212635  0.24641095  0.53187797  1
  O  O182  1  0.86086139  0.75871123  0.01457329  1
  O  O183  1  0.88199896  0.75898779  0.49325547  1
  O  O184  1  0.09861653  0.23892385  0.49193554  1
  O  O185  1  0.10824166  0.22950107  0.98133464  1
  O  O186  1  0.10910316  0.73588347  0.48451180  1
  O  O187  1  0.10656692  0.75160011  0.97086536  1
  O  O188  1  0.64451214  0.24099727  0.50040274  1
  O  O189  1  0.62762193  0.25892881  0.99441455  1
  O  O190  1  0.63906894  0.76251272  0.47780816  1
  O  O191  1  0.63053531  0.73492648  1.01099748  1
  O  O192  1  0.51642827  0.22652166  0.11976661  1
  O  O193  1  0.50067060  0.31887673  0.69829009  1
  O  O194  1  0.47719798  0.76516402  0.14737697  1
  O  O195  1  0.47788383  0.74780164  0.59783988  1
  O  O196  1  0.99628620  0.25956130  0.13576505  1
  O  O197  1  0.97253920  0.22528957  0.62831270  1
  O  O198  1  0.98939867  0.75545887  0.13520105  1
  O  O199  1  1.00997321  0.74859013  0.63507899  1
  O  O200  1  -0.03161678  0.26158109  0.39018405  1
  O  O201  1  0.00830126  0.24480184  0.85723053  1
  O  O202  1  -0.00822993  0.75762071  0.35975861  1
  O  O203  1  0.01828404  0.75803763  0.85360819  1
  O  O204  1  0.51401327  0.26716781  0.40023788  1
  O  O205  1  0.59175997  0.22161499  0.94190652  1
  O  O206  1  0.51164332  0.74303085  0.38031287  1
  O  O207  1  0.51146116  0.75605745  0.89925099  1
  O  O208  1  0.21513150  0.12719956  0.51013173  1
  O  O209  1  0.27687350  0.12736132  1.02354282  1
  O  O210  1  0.22301018  0.60648498  0.49868652  1
  O  O211  1  0.22348213  0.65842382  0.98404571  1
  O  O212  1  0.74447682  0.13832264  0.52001295  1
  O  O213  1  0.72876578  0.12825508  0.97521297  1
  O  O214  1  0.74351812  0.63015727  0.48729824  1
  O  O215  1  0.75309519  0.63446219  1.01130805  1
  O  O216  1  0.25659979  0.37925672  -0.01191599  1
  O  O217  1  0.24613778  0.39307690  0.49895810  1
  O  O218  1  0.25783226  0.88758024  -0.01357526  1
  O  O219  1  0.28085861  0.87046709  0.44693695  1
  O  O220  1  0.75502897  0.37656667  -0.00291567  1
  O  O221  1  0.74360853  0.35529158  0.51683856  1
  O  O222  1  0.74735029  0.86097928  0.02170683  1
  O  O223  1  0.76612173  0.86761455  0.49164270  1
  O  O224  1  0.07416453  0.49508499  0.18953458  1
  O  O225  1  0.15084746  0.49053611  0.74391881  1
  O  O226  1  0.10741228  1.02795902  0.22512865  1
  O  O227  1  0.13441898  1.01906463  0.73889625  1
  O  O228  1  0.63484015  0.50755513  0.23965261  1
  O  O229  1  0.64214841  0.54329947  0.74744343  1
  O  O230  1  0.63864851  0.98472713  0.26264565  1
  O  O231  1  0.64028560  0.96724138  0.75715912  1
  O  O232  1  0.35821532  0.01493531  0.19466673  1
  O  O233  1  0.32732749  -0.06559799  0.76806158  1
  O  O234  1  0.35688113  0.49466974  0.25121218  1
  O  O235  1  0.36422889  0.51812140  0.74463971  1
  O  O236  1  0.87667889  0.01339648  0.25611372  1
  O  O237  1  0.86377499  -0.01184989  0.76062083  1
  O  O238  1  0.86401534  0.49982990  0.26447356  1
  O  O239  1  0.98966863  0.44224922  0.82200670  1
  O  O240  1  0.08973152  0.35493150  0.38322474  1
  O  O241  1  0.13663619  0.33828601  0.84709622  1
  O  O242  1  0.09872531  0.85960790  0.38743296  1
  O  O243  1  0.12932166  0.88368169  0.87624991  1
  O  O244  1  0.64504426  0.35887458  0.39097872  1
  O  O245  1  0.61256042  0.38926327  0.88487871  1
  O  O246  1  0.61241181  0.86856557  0.36723661  1
  O  O247  1  0.61577492  0.85982386  0.88759982  1
  O  O248  1  0.40977420  0.13635411  0.14620375  1
  O  O249  1  0.38861016  0.17409942  0.57674693  1
  O  O250  1  0.36261488  0.65066598  0.12330917  1
  O  O251  1  0.37952290  0.64027991  0.61293010  1
  O  O252  1  0.87049618  0.13896158  0.13619534  1
  O  O253  1  0.87274926  0.11230780  0.64026735  1
  O  O254  1  0.88187111  0.63749565  0.11565838  1
  O  O255  1  0.89489898  0.63447239  0.62672862  1
  O  O256  1  0.24242228  0.27337235  0.14483007  1
  O  O257  1  0.28806441  0.30524009  0.58710973  1
  O  O258  1  0.20652418  0.78835677  0.11841739  1
  O  O259  1  0.25928844  0.74586137  0.59536697  1
  O  O260  1  0.75321783  0.25071455  0.12289667  1
  O  O261  1  0.75787818  0.25114637  0.64074770  1
  O  O262  1  0.76186273  0.74741466  0.12460449  1
  O  O263  1  0.74120584  0.74017066  0.60820778  1
  O  O264  1  0.21643833  0.25757557  0.37278726  1
  O  O265  1  0.23978345  0.21789354  0.87477319  1
  O  O266  1  0.22036223  0.75523912  0.35956647  1
  O  O267  1  0.24077429  0.77555396  0.86156700  1
  O  O268  1  0.77266303  0.24840411  0.39872035  1
  O  O269  1  0.65487383  0.35131800  0.83862681  1
  O  O270  1  0.75812585  0.73497764  0.36518892  1
  O  O271  1  0.73348307  0.75562468  0.90521409  1
  O  O272  1  -0.02041011  0.13015779  -0.00337557  1
  O  O273  1  -0.01860000  0.11123531  0.51120056  1
  O  O274  1  0.06596834  0.60078943  0.06285951  1
  O  O275  1  0.00056644  0.61803355  0.51112977  1
  O  O276  1  0.50916893  0.10818754  0.03062031  1
  O  O277  1  0.52746985  0.11578887  0.51053719  1
  O  O278  1  0.49605414  0.63422008  0.01594889  1
  O  O279  1  0.49937754  0.61041586  0.51403892  1
  O  O280  1  0.53185515  0.37908188  0.52905312  1
  O  O281  1  0.47583919  0.36889003  0.99923667  1
  O  O282  1  0.48726946  0.88579686  0.47174568  1
  O  O283  1  0.50880387  0.87560108  1.00743342  1
  O  O284  1  0.99141501  0.39002505  0.49655212  1
  O  O285  1  0.97789998  0.38369791  0.98472524  1
  O  O286  1  0.98414725  0.88613993  0.49396857  1
  O  O287  1  0.97893527  0.86529611  1.01030632  1
  O  O288  1  0.52497314  0.48720071  0.41085321  1
  O  O289  1  0.47663029  0.49783920  0.84405012  1
  O  O290  1  0.50977980  1.00636564  0.36899748  1
  O  O291  1  0.51263646  0.98496500  0.89374284  1
  O  O292  1  0.97912586  0.48957497  0.37480894  1
  O  O293  1  1.09617096  0.47607809  0.93623014  1
  O  O294  1  0.98580419  0.98542461  0.38289697  1
  O  O295  1  0.97391362  0.98151655  0.86881563  1
  O  O296  1  -0.00488291  0.00214074  0.11938690  1
  O  O297  1  -0.01582368  0.00240494  0.60881126  1
  O  O298  1  0.01484895  0.48564533  0.14806358  1
  O  O299  1  -0.00610495  0.51055765  0.61572361  1
  O  O300  1  0.50981607  0.01951601  0.13844969  1
  O  O301  1  0.48831444  -0.04021170  0.63130933  1
  O  O302  1  0.49840495  0.47844145  0.15686813  1
  O  O303  1  0.53568243  0.52090063  0.63294355  1
  O  O304  1  0.24547984  0.33478537  0.19589345  1
  O  O305  1  0.26750602  0.37743665  0.73358606  1
  O  O306  1  0.23212880  0.89311753  0.24571192  1
  O  O307  1  0.17248070  0.93824655  0.73332445  1
  O  O308  1  0.74974117  0.39437949  0.25511091  1
  O  O309  1  0.81603870  0.49281597  0.75804088  1
  O  O310  1  0.74203609  0.86931962  0.24065970  1
  O  O311  1  0.74133612  0.85914033  0.75743425  1
  O  O312  1  0.22959040  0.12165765  0.24181976  1
  O  O313  1  0.27957672  0.10043624  0.67430594  1
  O  O314  1  0.22173583  0.61752231  0.22850400  1
  O  O315  1  0.25940727  0.63131926  0.73419807  1
  O  O316  1  0.76446309  0.13321480  0.25468427  1
  O  O317  1  0.75756073  0.09618880  0.75379269  1
  O  O318  1  0.74708822  0.61445306  0.26366998  1
  O  O319  1  0.76472457  0.65453056  0.77642162  1
  O  O320  1  0.33574028  0.10619260  0.32030124  1
  O  O321  1  0.38285888  0.12641774  0.89346518  1
  O  O322  1  0.35276188  0.55522630  0.41923312  1
  O  O323  1  0.37584072  0.64295470  0.85235284  1
  O  O324  1  0.86990693  0.10779822  0.36959772  1
  O  O325  1  0.87503757  0.10352120  0.86433579  1
  O  O326  1  0.86387153  0.61511819  0.37887646  1
  O  O327  1  0.97626533  0.57377984  0.93355450  1
  O  O328  1  0.13427807  0.37270600  0.08801113  1
  O  O329  1  0.22975707  0.33337550  0.55262727  1
  O  O330  1  0.11309564  0.89997436  0.12419490  1
  O  O331  1  0.14736194  0.88926252  0.56485043  1
  O  O332  1  0.61921982  0.38723492  0.12434711  1
  O  O333  1  0.65289033  0.40439334  0.65562444  1
  O  O334  1  0.63518871  0.86893308  0.14171406  1
  O  O335  1  0.60420617  0.84334859  0.65540499  1
  O  O336  1  0.09599722  0.24239550  0.26595598  1
  O  O337  1  0.12889078  0.20142972  0.76098222  1
  O  O338  1  0.10394909  0.74844496  0.26194238  1
  O  O339  1  0.12339831  0.75881165  0.75572357  1
  O  O340  1  0.63052962  0.24934058  0.28076525  1
  O  O341  1  0.61524448  0.20458949  0.78834363  1
  O  O342  1  0.62808399  0.76172676  0.26653615  1
  O  O343  1  0.62464020  0.75106165  0.78288815  1
  O  O344  1  0.30466956  0.15119252  0.27118242  1
  O  O345  1  0.36227464  0.22951740  0.73785878  1
  O  O346  1  0.33226328  0.76419318  0.23108066  1
  O  O347  1  0.36384094  0.74877140  0.73363793  1
  O  O348  1  0.86969446  0.25167674  0.23438167  1
  O  O349  1  0.86508013  0.21421177  0.75038334  1
  O  O350  1  0.88246325  0.75180697  0.23575362  1
  O  O351  1  0.90136713  0.76394184  0.75650792  1
  O  O352  1  0.41740704  0.48067870  0.54816040  1
  O  O353  1  0.36929015  0.50829607  0.96013052  1
  O  O354  1  0.35856409  1.00558968  0.49386716  1
  O  O355  1  0.38108917  0.98112216  1.01715911  1
  O  O356  1  0.88394883  0.50970125  0.49201336  1
  O  O357  1  0.87105567  0.47729606  0.98338808  1
  O  O358  1  0.87423999  0.99473668  0.48596813  1
  O  O359  1  0.86728461  0.98506834  0.99248777  1
  O  O360  1  0.10756722  0.02160560  0.00489486  1
  O  O361  1  0.09324649  0.01885986  0.49056859  1
  O  O362  1  0.20189164  0.61051441  -0.06515870  1
  O  O363  1  0.09723960  0.51317288  0.48910132  1
  O  O364  1  0.67802884  0.08133817  -0.04462816  1
  O  O365  1  0.64735240  0.01422744  0.49096132  1
  O  O366  1  0.61551470  0.51813311  0.03334981  1
  O  O367  1  0.63366520  0.49719668  0.52539237  1
  O  O368  1  0.35100848  0.38003009  0.09524419  1
  O  O369  1  0.44004227  0.35262509  0.66119508  1
  O  O370  1  0.34402992  0.87156671  0.12119707  1
  O  O371  1  0.37396965  0.85334499  0.56984903  1
  O  O372  1  0.87033231  0.36064228  0.11982170  1
  O  O373  1  0.88189039  0.35030496  0.67580428  1
  O  O374  1  0.86211117  0.87140140  0.12077556  1
  O  O375  1  0.87403402  0.87137148  0.60746395  1
  O  O376  1  0.10980056  0.13861486  0.38793078  1
  O  O377  1  0.10059001  0.11920499  0.88912297  1
  O  O378  1  0.11153643  0.63783350  0.38413501  1
  O  O379  1  0.13721856  0.64665622  0.86999689  1
  O  O380  1  0.63191786  0.14545453  0.39581183  1
  O  O381  1  0.54661713  0.18388012  0.79499707  1
  O  O382  1  0.63742707  0.63927879  0.37313750  1
  O  O383  1  0.60621305  0.63460559  0.90025056  1
