# generated using pymatgen
data_VZnO4
_symmetry_space_group_name_H-M   'P 1'
_cell_length_a   16.95974446
_cell_length_b   17.04098316
_cell_length_c   17.01659695
_cell_angle_alpha   89.73074887
_cell_angle_beta   89.79081722
_cell_angle_gamma   90.04471549
_symmetry_Int_Tables_number   1
_chemical_formula_structural   VZnO4
_chemical_formula_sum   'V64 Zn64 O256'
_cell_volume   4917.89028694
_cell_formula_units_Z   64
loop_
 _symmetry_equiv_pos_site_id
 _symmetry_equiv_pos_as_xyz
  1  'x, y, z'
loop_
 _atom_site_type_symbol
 _atom_site_label
 _atom_site_symmetry_multiplicity
 _atom_site_fract_x
 _atom_site_fract_y
 _atom_site_fract_z
 _atom_site_occupancy
  V  V0  1  -0.01222757  0.23872177  0.23481647  1
  V  V1  1  0.73663648  0.12719861  0.37346903  1
  V  V2  1  0.88057956  0.24031541  0.60466755  1
  V  V3  1  0.50559570  0.63693825  0.62382063  1
  V  V4  1  0.75836818  0.00117865  0.24840068  1
  V  V5  1  0.73900727  0.34533674  0.58612744  1
  V  V6  1  0.61605404  0.11680934  0.51322025  1
  V  V7  1  0.72698737  0.86565583  0.61390260  1
  V  V8  1  0.37453681  0.62800703  0.75180405  1
  V  V9  1  0.62855304  0.62642508  -0.00157720  1
  V  V10  1  0.46733644  0.90041980  0.36057417  1
  V  V11  1  0.38415098  0.52776559  0.38597922  1
  V  V12  1  0.62220194  0.87881782  0.76709833  1
  V  V13  1  0.12155217  0.75746243  0.87589928  1
  V  V14  1  0.24824966  0.50736836  0.25535109  1
  V  V15  1  0.37866969  0.36647683  0.48899545  1
  V  V16  1  0.50947023  0.37719388  0.85915347  1
  V  V17  1  0.37518903  0.11415692  0.77208714  1
  V  V18  1  0.55061066  0.12163288  0.10331116  1
  V  V19  1  0.75503290  0.75445547  -0.01257001  1
  V  V20  1  0.49194677  0.10991963  0.63285907  1
  V  V21  1  0.63429907  0.86525093  0.26633617  1
  V  V22  1  0.72478025  0.62320303  0.42324947  1
  V  V23  1  0.74092323  0.00620051  0.73176881  1
  V  V24  1  0.01856101  0.00342036  0.48988648  1
  V  V25  1  0.51145554  0.50583331  0.00516449  1
  V  V26  1  0.88804743  0.49515980  0.40930993  1
  V  V27  1  0.12150612  0.87256766  0.24286569  1
  V  V28  1  0.38437907  0.25505037  0.64710677  1
  V  V29  1  0.24824392  0.24176506  0.01367404  1
  V  V30  1  0.50790371  0.74679147  0.24536958  1
  V  V31  1  0.26243899  0.74137835  0.49746873  1
  V  V32  1  0.86050217  0.59946200  0.24393383  1
  V  V33  1  0.24966624  0.48940335  0.74529831  1
  V  V34  1  0.38338324  0.63065048  0.23022001  1
  V  V35  1  0.51144525  0.74878018  0.76520006  1
  V  V36  1  0.86560512  0.85889776  0.50389742  1
  V  V37  1  0.37497191  0.49870957  0.87294250  1
  V  V38  1  0.08855465  0.26257745  0.83789997  1
  V  V39  1  0.00290049  0.73325965  0.25310669  1
  V  V40  1  0.27114880  0.87003372  0.13629315  1
  V  V41  1  0.75225875  0.46881940  0.75219748  1
  V  V42  1  0.24096375  0.39256556  0.12790556  1
  V  V43  1  0.24711980  0.36436071  0.62603254  1
  V  V44  1  0.02586099  0.36973458  0.37527864  1
  V  V45  1  0.38649793  0.37893787  0.01764228  1
  V  V46  1  0.86605065  0.26289586  0.08221817  1
  V  V47  1  0.74988841  0.86990873  0.12602466  1
  V  V48  1  0.12350047  -0.01951371  0.65813664  1
  V  V49  1  0.89812862  0.12086751  0.73758211  1
  V  V50  1  0.00948717  0.60561914  0.12133002  1
  V  V51  1  0.73392247  0.10932853  0.87252571  1
  V  V52  1  -0.00290662  0.48743957  -0.01735600  1
  V  V53  1  0.76140254  0.61564617  0.86155823  1
  V  V54  1  0.87451410  0.74344026  0.12345146  1
  V  V55  1  0.13470458  0.61546176  -0.00482643  1
  V  V56  1  -0.00184776  0.85604576  0.37771632  1
  V  V57  1  0.49455147  0.24764443  0.25261177  1
  V  V58  1  0.51040028  0.50039615  0.51207721  1
  V  V59  1  0.26628381  0.74424307  0.00937672  1
  V  V60  1  0.27957149  0.86997758  0.63139573  1
  V  V61  1  0.62050922  0.38534286  0.28955549  1
  V  V62  1  0.00318496  -0.00411234  0.01217166  1
  V  V63  1  0.87688689  0.00256625  0.37764820  1
  Zn  Zn64  1  0.18161605  0.23333678  0.18602999  1
  Zn  Zn65  1  0.06954414  0.18026136  0.65227465  1
  Zn  Zn66  1  0.19126052  0.68281504  0.18768572  1
  Zn  Zn67  1  0.20398846  0.69743841  0.69495631  1
  Zn  Zn68  1  0.66506864  0.26850464  0.15009231  1
  Zn  Zn69  1  0.68392081  0.19841293  0.68334295  1
  Zn  Zn70  1  0.68451151  0.68152467  0.18495638  1
  Zn  Zn71  1  0.68853288  0.69571457  0.68612017  1
  Zn  Zn72  1  0.36408428  0.34028113  0.27725078  1
  Zn  Zn73  1  0.30676591  0.31171483  0.82496359  1
  Zn  Zn74  1  0.31396310  0.80562087  0.31264131  1
  Zn  Zn75  1  0.30409725  0.80368354  0.82143256  1
  Zn  Zn76  1  0.80699300  0.31825783  0.32209151  1
  Zn  Zn77  1  0.69729283  0.29824156  0.84088900  1
  Zn  Zn78  1  0.81112315  0.79386235  0.31799320  1
  Zn  Zn79  1  0.80951984  0.84167300  0.81274211  1
  Zn  Zn80  1  0.21070859  0.43023223  0.42983179  1
  Zn  Zn81  1  0.18643406  0.42460150  0.93586027  1
  Zn  Zn82  1  0.17561466  0.88064869  0.45674468  1
  Zn  Zn83  1  0.18209177  0.91007869  0.96809044  1
  Zn  Zn84  1  0.69418259  0.44098741  0.43175708  1
  Zn  Zn85  1  0.69845434  0.43818915  0.94403422  1
  Zn  Zn86  1  0.68020573  0.94277486  0.44060088  1
  Zn  Zn87  1  0.80201369  0.96168135  0.94172534  1
  Zn  Zn88  1  0.24347975  0.07532962  0.11600813  1
  Zn  Zn89  1  0.25428990  0.10191443  0.63382196  1
  Zn  Zn90  1  0.31991671  0.56044845  0.06283414  1
  Zn  Zn91  1  0.31685844  0.56477573  0.56987907  1
  Zn  Zn92  1  0.75206427  0.12071089  0.06951096  1
  Zn  Zn93  1  0.80745702  0.06219058  0.55335396  1
  Zn  Zn94  1  0.82159563  0.56516012  0.04702759  1
  Zn  Zn95  1  0.67078453  0.53645343  0.60262843  1
  Zn  Zn96  1  0.47540447  0.45645860  0.20252455  1
  Zn  Zn97  1  0.43824412  0.43884137  0.68255680  1
  Zn  Zn98  1  0.47230168  0.92887716  0.14832213  1
  Zn  Zn99  1  0.43840853  0.93662047  0.71128706  1
  Zn  Zn100  1  0.90881844  0.39605918  0.20434726  1
  Zn  Zn101  1  0.86699577  0.46346983  0.61412870  1
  Zn  Zn102  1  0.93379717  0.92364610  0.19647463  1
  Zn  Zn103  1  0.92209735  0.96806054  0.65111283  1
  Zn  Zn104  1  0.09308080  0.08179198  0.24760763  1
  Zn  Zn105  1  0.09710768  0.09108320  0.79912792  1
  Zn  Zn106  1  0.03475964  0.51330771  0.27897751  1
  Zn  Zn107  1  0.07834067  0.56160038  0.81835998  1
  Zn  Zn108  1  0.56241743  0.05803074  0.26871175  1
  Zn  Zn109  1  0.55515228  0.18756135  0.81508346  1
  Zn  Zn110  1  0.56502626  0.56501203  0.32084033  1
  Zn  Zn111  1  0.58081284  0.55897674  0.80871998  1
  Zn  Zn112  1  0.47155010  0.19680719  0.45324153  1
  Zn  Zn113  1  0.43496747  0.19510888  0.95425165  1
  Zn  Zn114  1  0.45653548  0.70824151  0.43820632  1
  Zn  Zn115  1  0.43860110  0.68216865  0.93557798  1
  Zn  Zn116  1  0.95449805  0.18907196  0.42397213  1
  Zn  Zn117  1  0.88554440  0.22720210  0.87648365  1
  Zn  Zn118  1  0.89559257  0.68702494  0.42105612  1
  Zn  Zn119  1  0.94263110  0.68118410  0.93444299  1
  Zn  Zn120  1  0.05922187  0.31261893  0.07363573  1
  Zn  Zn121  1  0.06139983  0.31809098  0.55459141  1
  Zn  Zn122  1  0.06352451  0.79406098  0.06401994  1
  Zn  Zn123  1  0.06979518  0.81070083  0.56300225  1
  Zn  Zn124  1  0.59100326  0.28689380  -0.00880781  1
  Zn  Zn125  1  0.55842834  0.30221851  0.54832592  1
  Zn  Zn126  1  0.57420103  0.80165409  0.06534444  1
  Zn  Zn127  1  0.44930964  0.82450463  0.55081538  1
  O  O128  1  0.18033538  0.12369946  0.19236240  1
  O  O129  1  0.13852706  0.08676435  0.63715916  1
  O  O130  1  0.11278652  0.62601317  0.11807762  1
  O  O131  1  0.10491783  0.62274710  0.66041738  1
  O  O132  1  0.64408832  0.09027275  0.08430710  1
  O  O133  1  0.60999994  0.12726392  0.61804061  1
  O  O134  1  0.63936765  0.62185776  0.09876128  1
  O  O135  1  0.60946385  0.63006303  0.63384336  1
  O  O136  1  0.37306536  0.38233605  0.38884665  1
  O  O137  1  0.38545889  0.38676945  0.88783863  1
  O  O138  1  0.37055288  0.90154935  0.33255454  1
  O  O139  1  0.36579848  0.88666689  0.88266857  1
  O  O140  1  0.86337884  0.40363046  0.37816233  1
  O  O141  1  0.99091415  0.39920326  0.74869926  1
  O  O142  1  0.87586578  0.86947819  0.38500304  1
  O  O143  1  0.86758791  0.88684975  0.89286606  1
  O  O144  1  0.22553218  0.04654896  0.36073420  1
  O  O145  1  0.30776232  -0.05544394  0.88930118  1
  O  O146  1  0.27388404  0.50216622  0.36355651  1
  O  O147  1  0.26855405  0.48594979  0.86490770  1
  O  O148  1  0.76106486  0.00043479  0.36887843  1
  O  O149  1  0.75217219  -0.00052850  0.83991061  1
  O  O150  1  0.76457925  0.52590976  0.40067955  1
  O  O151  1  0.75468661  0.50680340  0.86062281  1
  O  O152  1  0.26142718  0.50136004  0.14265072  1
  O  O153  1  0.26497805  0.48546588  0.63972325  1
  O  O154  1  0.24187259  0.96584498  0.12270546  1
  O  O155  1  0.23013982  0.97057543  0.63314619  1
  O  O156  1  0.75381504  0.46712528  0.05292074  1
  O  O157  1  0.74558988  0.45187338  0.62296758  1
  O  O158  1  0.77042946  0.97263905  0.14251308  1
  O  O159  1  0.74937405  0.98539861  0.62545006  1
  O  O160  1  0.00186133  0.40253185  0.26972580  1
  O  O161  1  0.00142526  0.43532719  0.68686995  1
  O  O162  1  -0.00005182  0.85320231  0.25899905  1
  O  O163  1  -0.02961401  0.82151010  0.73347159  1
  O  O164  1  0.48280321  0.35951561  0.26308076  1
  O  O165  1  0.48560195  0.37322294  0.76345361  1
  O  O166  1  0.52762442  0.87293346  0.24396688  1
  O  O167  1  0.51152742  0.85965737  0.75147988  1
  O  O168  1  0.54255432  0.15880220  0.21202278  1
  O  O169  1  0.48878269  0.13410154  0.74008508  1
  O  O170  1  0.49752523  0.64070507  0.25901765  1
  O  O171  1  0.50038552  0.63194274  0.75027104  1
  O  O172  1  0.99672962  0.13916303  0.25107887  1
  O  O173  1  1.00118453  0.11540333  0.73138099  1
  O  O174  1  0.99367906  0.61459980  0.23350839  1
  O  O175  1  1.04850188  0.61624566  0.71060022  1
  O  O176  1  0.37752698  0.27788056  0.01439002  1
  O  O177  1  0.38738696  0.26585065  0.49594962  1
  O  O178  1  0.36507399  0.72969552  0.00530681  1
  O  O179  1  0.36914320  0.74810314  0.50857614  1
  O  O180  1  0.87860671  0.26740714  -0.01507738  1
  O  O181  1  0.88394337  0.22499810  0.50498019  1
  O  O182  1  0.86756840  0.73736654  0.01546914  1
  O  O183  1  0.87193685  0.76042893  0.50438033  1
  O  O184  1  0.10219712  0.21471661  0.54756576  1
  O  O185  1  0.14838975  0.25150643  1.02982336  1
  O  O186  1  0.15057690  0.77128251  0.49791858  1
  O  O187  1  0.13281278  0.73546239  0.99797086  1
  O  O188  1  0.59219708  0.21509837  0.47760184  1
  O  O189  1  0.68852937  0.32706345  0.95210602  1
  O  O190  1  0.53469278  0.76595379  0.50002782  1
  O  O191  1  0.64417166  0.74117536  0.99844482  1
  O  O192  1  0.57269823  0.23519901  0.08824845  1
  O  O193  1  0.48484255  0.24703430  0.62240530  1
  O  O194  1  0.50237749  0.75734488  0.14503871  1
  O  O195  1  0.49106165  0.73618648  0.64509358  1
  O  O196  1  0.97218728  0.25055959  0.12231869  1
  O  O197  1  0.98160078  0.26013949  0.62322888  1
  O  O198  1  0.98710750  0.73411393  0.13043870  1
  O  O199  1  1.00387103  0.71118175  0.58432189  1
  O  O200  1  0.00167166  0.26538835  0.35257810  1
  O  O201  1  -0.01148914  0.26781247  0.85578519  1
  O  O202  1  -0.01879297  0.74959638  0.36675434  1
  O  O203  1  0.01999928  0.74286674  0.88306410  1
  O  O204  1  0.47787375  0.21520500  0.34562434  1
  O  O205  1  0.51578891  0.26960242  0.89673065  1
  O  O206  1  0.48312360  0.78302565  0.34663096  1
  O  O207  1  0.49959471  0.74641568  0.86383975  1
  O  O208  1  0.26022470  0.11902862  0.51304317  1
  O  O209  1  0.27213930  0.14553278  1.03443573  1
  O  O210  1  0.25135654  0.64209554  0.52311473  1
  O  O211  1  0.23966826  0.62998377  1.01827603  1
  O  O212  1  0.72958908  0.11775205  0.48470916  1
  O  O213  1  0.76248944  0.06902224  0.96650545  1
  O  O214  1  0.72333331  0.61981637  0.52288300  1
  O  O215  1  0.74829943  0.63584287  0.98670070  1
  O  O216  1  0.27024233  0.39605825  0.01804958  1
  O  O217  1  0.27188806  0.38337411  0.51421440  1
  O  O218  1  0.26011383  0.85525681  0.02359094  1
  O  O219  1  0.26792627  0.86738800  0.51939837  1
  O  O220  1  0.70712330  0.45324903  0.11931276  1
  O  O221  1  0.74304779  0.35466022  0.48700299  1
  O  O222  1  0.75623900  0.86299855  0.01719059  1
  O  O223  1  0.75612528  0.87950670  0.50450681  1
  O  O224  1  0.15053650  0.51488144  0.26400836  1
  O  O225  1  0.15216251  0.49905117  0.75843190  1
  O  O226  1  0.11140604  0.97100509  0.25007038  1
  O  O227  1  0.11157159  0.98880370  0.75778738  1
  O  O228  1  0.58520388  0.47908113  0.25163533  1
  O  O229  1  0.65671282  0.51295873  0.73211071  1
  O  O230  1  0.65240242  0.97539273  0.25241003  1
  O  O231  1  0.63385221  0.98024564  0.73831812  1
  O  O232  1  0.35312821  0.08874681  0.30719364  1
  O  O233  1  0.38816731  0.01450280  0.77227308  1
  O  O234  1  0.39257259  0.52169860  0.26916509  1
  O  O235  1  0.37533736  0.50286616  0.76140668  1
  O  O236  1  0.86729488  -0.01927272  0.26801118  1
  O  O237  1  0.85892056  0.01080321  0.73067078  1
  O  O238  1  0.86700615  0.50234691  0.22802417  1
  O  O239  1  0.84466601  0.50170784  0.72215626  1
  O  O240  1  0.12653430  0.37806288  0.37847105  1
  O  O241  1  0.13724355  0.34686454  0.87411594  1
  O  O242  1  0.10227946  0.86112396  0.36358514  1
  O  O243  1  0.13270848  0.85908073  0.88542100  1
  O  O244  1  0.60372856  0.38269360  0.38779229  1
  O  O245  1  0.60561663  0.40300501  0.85693005  1
  O  O246  1  0.63515519  0.86712293  0.36546983  1
  O  O247  1  0.63094418  0.87941990  0.86156568  1
  O  O248  1  0.35636303  0.07888536  0.23594695  1
  O  O249  1  0.38138652  0.13917207  0.63730764  1
  O  O250  1  0.39135518  0.61835049  0.13360115  1
  O  O251  1  0.39264487  0.61313909  0.64741235  1
  O  O252  1  0.85598805  0.14994677  0.10527415  1
  O  O253  1  0.87365500  0.12399800  0.62181513  1
  O  O254  1  0.88209361  0.62437092  0.12840475  1
  O  O255  1  0.89842238  0.66257747  0.66793891  1
  O  O256  1  0.26260508  0.28652327  0.12567470  1
  O  O257  1  0.27170958  0.26272899  0.62451761  1
  O  O258  1  0.24939933  0.75448304  0.12073739  1
  O  O259  1  0.25194916  0.76514778  0.62080531  1
  O  O260  1  0.75592557  0.23609343  0.09651325  1
  O  O261  1  0.75934972  0.24131858  0.61063396  1
  O  O262  1  0.76142474  0.74950582  0.12111989  1
  O  O263  1  0.74833564  0.76774913  0.62430518  1
  O  O264  1  0.28929180  0.22917433  0.34609589  1
  O  O265  1  0.26432681  0.25775386  0.91488101  1
  O  O266  1  0.26195416  0.75124362  0.39502193  1
  O  O267  1  0.24555944  0.75049198  0.90413163  1
  O  O268  1  0.76101646  0.22213097  0.36137304  1
  O  O269  1  0.76808697  0.20757920  0.87388423  1
  O  O270  1  0.77905409  0.70699917  0.38751496  1
  O  O271  1  0.76372349  0.75840764  0.88862707  1
  O  O272  1  0.01261588  0.09815322  0.02033474  1
  O  O273  1  0.01389124  0.09959601  0.46746536  1
  O  O274  1  0.01263468  0.61582084  0.00836361  1
  O  O275  1  -0.00519991  0.65931709  0.53251030  1
  O  O276  1  0.48874593  0.12412949  0.02338712  1
  O  O277  1  0.49631838  0.11248540  0.52373965  1
  O  O278  1  0.51908349  0.61917749  -0.01308148  1
  O  O279  1  0.49458631  0.61511176  0.51979407  1
  O  O280  1  0.48591317  0.39267154  0.51129039  1
  O  O281  1  0.49650880  0.39482565  0.99029962  1
  O  O282  1  0.46960214  0.89730092  0.46050832  1
  O  O283  1  0.49690991  0.88243305  1.04021001  1
  O  O284  1  1.00036224  0.36438917  0.47392252  1
  O  O285  1  1.01829596  0.39207826  1.00380992  1
  O  O286  1  0.99013328  0.86792618  0.48611304  1
  O  O287  1  1.00463457  0.89058958  1.01485227  1
  O  O288  1  0.49036467  0.51220321  0.39862474  1
  O  O289  1  0.49164762  0.49498689  0.87353249  1
  O  O290  1  0.50179083  0.99378038  0.33868427  1
  O  O291  1  0.47580916  0.98916366  0.95542818  1
  O  O292  1  0.99362670  0.48856222  0.38763839  1
  O  O293  1  1.00869453  0.50357897  0.88268594  1
  O  O294  1  0.98396212  0.97366650  0.37696271  1
  O  O295  1  1.00463894  0.99686201  0.90915217  1
  O  O296  1  -0.00716332  -0.01087483  0.11698898  1
  O  O297  1  0.01667790  -0.00142326  0.59873461  1
  O  O298  1  0.00366206  0.50800297  0.11541481  1
  O  O299  1  -0.12451254  0.62118839  0.61417224  1
  O  O300  1  0.51247752  0.03227196  0.15490768  1
  O  O301  1  0.49137594  0.01287148  0.63950218  1
  O  O302  1  0.50579272  0.50686930  0.10248904  1
  O  O303  1  0.50080498  0.50921273  0.61829476  1
  O  O304  1  0.26853830  0.39633818  0.24024674  1
  O  O305  1  0.26028810  0.38015324  0.73999854  1
  O  O306  1  0.22923626  0.85357697  0.24201504  1
  O  O307  1  0.26890860  0.86327863  0.73346400  1
  O  O308  1  0.72222761  0.38963806  0.28387179  1
  O  O309  1  0.75670401  0.37190207  0.77214618  1
  O  O310  1  0.74735430  0.85780455  0.24634515  1
  O  O311  1  0.73707021  0.87631462  0.73398301  1
  O  O312  1  0.21748809  0.22905322  0.33046123  1
  O  O313  1  0.27666419  0.12377821  0.74586480  1
  O  O314  1  0.27220889  0.61607840  0.24335899  1
  O  O315  1  0.26973758  0.60932267  0.74240142  1
  O  O316  1  0.75639630  0.09924919  0.25288757  1
  O  O317  1  0.73362816  0.10808039  0.74414591  1
  O  O318  1  0.76247611  0.61882918  0.24049759  1
  O  O319  1  0.75260037  0.64574757  0.76657073  1
  O  O320  1  0.32856357  0.09792981  0.47562736  1
  O  O321  1  0.38630042  0.14474915  0.86705724  1
  O  O322  1  0.38438678  0.62649502  0.38462438  1
  O  O323  1  0.38148040  0.60736232  0.86499216  1
  O  O324  1  0.87216346  0.10311860  0.37792465  1
  O  O325  1  0.87598015  0.11416876  0.83872838  1
  O  O326  1  0.88980938  0.59517668  0.35237650  1
  O  O327  1  0.86031329  0.62893947  0.88004210  1
  O  O328  1  0.14363646  0.39267265  0.12377316  1
  O  O329  1  0.14926418  0.37041333  0.61101880  1
  O  O330  1  0.11309675  0.85780856  0.14284024  1
  O  O331  1  0.10321040  0.88010954  0.64143320  1
  O  O332  1  0.65658210  0.39624936  0.11150484  1
  O  O333  1  0.63989074  0.34223505  0.61184815  1
  O  O334  1  0.64792769  0.86328024  0.13595621  1
  O  O335  1  0.63035800  0.87056215  0.61660848  1
  O  O336  1  0.08296016  0.27507614  0.21839762  1
  O  O337  1  0.10567602  0.25250173  0.73837443  1
  O  O338  1  0.10592772  0.73738698  0.24929358  1
  O  O339  1  0.14496479  0.74085262  0.77894809  1
  O  O340  1  0.60824202  0.28933294  0.24499107  1
  O  O341  1  0.63099836  0.25160528  0.76349341  1
  O  O342  1  0.61944599  0.75172872  0.25109857  1
  O  O343  1  0.61588714  0.75930472  0.75357102  1
  O  O344  1  0.40137044  0.24556720  0.21365354  1
  O  O345  1  0.37698998  0.25548448  0.74713297  1
  O  O346  1  0.38086196  0.73308731  0.24673640  1
  O  O347  1  0.38161971  0.73018148  0.76434903  1
  O  O348  1  0.88889437  0.27938886  0.24890966  1
  O  O349  1  0.87264772  0.21963852  0.72690275  1
  O  O350  1  0.88281637  0.72549553  0.24065287  1
  O  O351  1  0.91284692  0.78419066  0.75979721  1
  O  O352  1  0.37882358  0.50046150  0.49289585  1
  O  O353  1  0.38977167  0.50513711  0.98761288  1
  O  O354  1  0.34283884  1.02510687  0.46784380  1
  O  O355  1  0.32216355  1.00217242  0.93407710  1
  O  O356  1  0.88943647  0.50221328  0.50918047  1
  O  O357  1  0.89835380  0.50133741  0.99529319  1
  O  O358  1  0.88231207  0.98764259  0.48792801  1
  O  O359  1  0.90027159  0.99874524  1.00661342  1
  O  O360  1  0.10865554  -0.00981648  0.01380073  1
  O  O361  1  0.11465655  -0.02268555  0.47881085  1
  O  O362  1  0.12794643  0.51202823  -0.00715075  1
  O  O363  1  0.13998177  0.51576705  0.50027695  1
  O  O364  1  0.52571244  -0.06002837  -0.02625711  1
  O  O365  1  0.61190466  0.01930943  0.48660671  1
  O  O366  1  0.61655132  0.51164014  -0.01242459  1
  O  O367  1  0.61127080  0.49429276  0.50560900  1
  O  O368  1  0.39180496  0.40044590  0.11437578  1
  O  O369  1  0.37547272  0.36431275  0.61979555  1
  O  O370  1  0.36852809  0.87731930  0.15319390  1
  O  O371  1  0.38443082  0.88008250  0.62689254  1
  O  O372  1  0.85684010  0.35913343  0.11388370  1
  O  O373  1  0.85405254  0.34708822  0.61097776  1
  O  O374  1  0.87004057  0.84774947  0.13717337  1
  O  O375  1  0.87580093  0.87648517  0.60433719  1
  O  O376  1  0.16814140  0.09137116  0.36268248  1
  O  O377  1  0.11728058  0.16778481  0.87328393  1
  O  O378  1  0.11356202  0.57373868  0.46433959  1
  O  O379  1  0.13253151  0.63141256  0.89283002  1
  O  O380  1  0.64009984  0.11639685  0.35412641  1
  O  O381  1  0.63498696  0.12058011  0.87713501  1
  O  O382  1  0.63123831  0.62603110  0.38570507  1
  O  O383  1  0.64771722  0.62249638  0.88443131  1
