# generated using pymatgen
data_VZnO4
_symmetry_space_group_name_H-M   'P 1'
_cell_length_a   17.04536205
_cell_length_b   16.89088695
_cell_length_c   16.95021215
_cell_angle_alpha   90.76228308
_cell_angle_beta   90.64221076
_cell_angle_gamma   90.60739283
_symmetry_Int_Tables_number   1
_chemical_formula_structural   VZnO4
_chemical_formula_sum   'V64 Zn64 O256'
_cell_volume   4879.13687491
_cell_formula_units_Z   64
loop_
 _symmetry_equiv_pos_site_id
 _symmetry_equiv_pos_as_xyz
  1  'x, y, z'
loop_
 _atom_site_type_symbol
 _atom_site_label
 _atom_site_symmetry_multiplicity
 _atom_site_fract_x
 _atom_site_fract_y
 _atom_site_fract_z
 _atom_site_occupancy
  V  V0  1  0.49612719  0.23713743  0.76131691  1
  V  V1  1  0.26071042  0.62077024  0.88856281  1
  V  V2  1  -0.00646988  0.60351936  0.61833790  1
  V  V3  1  0.36114905  0.11121853  0.74410561  1
  V  V4  1  0.73609511  0.36991955  0.11685263  1
  V  V5  1  0.01171416  0.12773551  0.12763122  1
  V  V6  1  0.49552022  0.87765772  0.88344378  1
  V  V7  1  0.63303464  -0.00137300  0.15072614  1
  V  V8  1  0.12548749  0.23803323  0.88812175  1
  V  V9  1  0.62120148  0.36592123  0.26036966  1
  V  V10  1  0.09604741  0.62621822  -0.01283306  1
  V  V11  1  0.26383085  0.21684313  -0.00469098  1
  V  V12  1  0.88099305  0.87508713  -0.03053741  1
  V  V13  1  -0.00093168  0.00143126  -0.01598985  1
  V  V14  1  0.14777506  0.51173636  0.11350964  1
  V  V15  1  -0.01140175  0.24325165  0.74022119  1
  V  V16  1  0.51063534  0.50542167  -0.00688420  1
  V  V17  1  0.62616658  0.49475343  0.63194292  1
  V  V18  1  0.00885255  0.84464816  0.41529390  1
  V  V19  1  0.50268210  0.75452183  0.74882816  1
  V  V20  1  0.12237006  0.25545856  0.33083873  1
  V  V21  1  0.35686598  0.75613263  0.61466772  1
  V  V22  1  0.37619547  0.27544559  0.13389711  1
  V  V23  1  0.85021924  0.22417744  0.14089504  1
  V  V24  1  0.77855307  0.88216550  0.59669960  1
  V  V25  1  0.13526455  0.36934695  0.75532666  1
  V  V26  1  0.36535519  0.60980639  0.75308213  1
  V  V27  1  0.35536077  0.86401703  0.00206316  1
  V  V28  1  0.63639905  0.53498024  0.16329905  1
  V  V29  1  0.49460897  0.47644299  0.50594538  1
  V  V30  1  0.24155100  0.25268136  0.50693003  1
  V  V31  1  0.82498394  0.51867241  0.38259701  1
  V  V32  1  0.61915252  0.11557354  0.51526565  1
  V  V33  1  -0.00979264  0.37351137  0.37836965  1
  V  V34  1  0.62890073  0.24803062  0.89079151  1
  V  V35  1  0.10280240  0.86917289  0.25158215  1
  V  V36  1  0.14073602  0.48295751  0.62437880  1
  V  V37  1  0.12525714  -0.00963851  0.12006773  1
  V  V38  1  0.38145966  0.25596941  0.62057156  1
  V  V39  1  0.75487421  0.36424814  0.63838917  1
  V  V40  1  0.48910871  0.62291535  0.62431399  1
  V  V41  1  0.61381675  0.37581251  0.76253153  1
  V  V42  1  0.63200991  0.63763251  0.51495578  1
  V  V43  1  0.75615841  0.24735183  0.50209082  1
  V  V44  1  0.25208194  -0.00143710  0.25093875  1
  V  V45  1  0.88391049  0.38560593  0.00792764  1
  V  V46  1  0.75733008  0.75095556  -0.02583235  1
  V  V47  1  0.52666514  0.87355837  0.35917219  1
  V  V48  1  0.26338767  0.13365206  0.36529780  1
  V  V49  1  0.12686857  0.75859441  0.86875844  1
  V  V50  1  0.48037267  -0.00979740  0.49768108  1
  V  V51  1  0.41543629  0.51409421  0.34785049  1
  V  V52  1  0.35841244  -0.00072043  0.87511788  1
  V  V53  1  0.76017285  0.88063104  0.13648763  1
  V  V54  1  -0.05102000  0.63016125  0.16565590  1
  V  V55  1  0.62446373  0.90341187  0.74761117  1
  V  V56  1  0.88974691  0.04051794  0.36274642  1
  V  V57  1  -0.00364983  0.74531192  0.73476646  1
  V  V58  1  0.61070490  0.24138174  0.37728834  1
  V  V59  1  0.63130497  0.63806881  -0.04003578  1
  V  V60  1  0.14181003  0.87869709  0.72661434  1
  V  V61  1  0.63360806  0.10136142  -0.00560337  1
  V  V62  1  0.49299600  0.11747555  0.13042164  1
  V  V63  1  0.13205351  0.59909023  0.48075372  1
  Zn  Zn64  1  0.20053181  0.18070638  0.17360349  1
  Zn  Zn65  1  0.18881014  0.19185435  0.69039296  1
  Zn  Zn66  1  0.10227157  0.67146497  0.19508996  1
  Zn  Zn67  1  0.18685189  0.67661983  0.68603410  1
  Zn  Zn68  1  0.68150693  0.18789067  0.18622869  1
  Zn  Zn69  1  0.67628948  0.18799850  0.68687064  1
  Zn  Zn70  1  0.75190565  0.69060408  0.17107146  1
  Zn  Zn71  1  0.68871001  0.71720118  0.66454289  1
  Zn  Zn72  1  0.32472623  0.32386154  0.32763717  1
  Zn  Zn73  1  0.30488480  0.29405696  0.80787681  1
  Zn  Zn74  1  0.32128847  0.86720831  0.31885254  1
  Zn  Zn75  1  0.31289476  0.80147202  0.80676189  1
  Zn  Zn76  1  0.79432813  0.28789146  0.30230078  1
  Zn  Zn77  1  0.80968279  0.31030721  0.82248090  1
  Zn  Zn78  1  0.85185410  0.87748074  0.30393267  1
  Zn  Zn79  1  0.80495677  0.81236662  0.78203095  1
  Zn  Zn80  1  0.18085752  0.42043323  0.44825568  1
  Zn  Zn81  1  0.16781262  0.45292866  0.92063052  1
  Zn  Zn82  1  0.16038997  0.96767849  0.42898017  1
  Zn  Zn83  1  0.18508838  0.93714485  0.93313532  1
  Zn  Zn84  1  0.69615208  0.42890568  0.44803125  1
  Zn  Zn85  1  0.69248738  0.44840253  0.93260027  1
  Zn  Zn86  1  0.70527327  0.94473241  0.42338888  1
  Zn  Zn87  1  0.69642576  0.92313036  0.90893821  1
  Zn  Zn88  1  0.31431804  0.03853578  0.06436148  1
  Zn  Zn89  1  0.33537135  0.08636240  0.53996357  1
  Zn  Zn90  1  0.32171745  0.56862653  0.06092466  1
  Zn  Zn91  1  0.30964221  0.54786533  0.55236440  1
  Zn  Zn92  1  0.81589780  0.05634366  0.05691767  1
  Zn  Zn93  1  0.79956396  0.04856398  0.53413818  1
  Zn  Zn94  1  0.80420025  0.55819905  0.05937839  1
  Zn  Zn95  1  0.81085123  0.54320065  0.56351909  1
  Zn  Zn96  1  0.46507065  0.45002699  0.17082691  1
  Zn  Zn97  1  0.43682297  0.43072443  0.69394863  1
  Zn  Zn98  1  0.44489113  0.93220010  0.17944758  1
  Zn  Zn99  1  0.43234190  0.93584069  0.67816944  1
  Zn  Zn100  1  0.90729446  0.40441910  0.22043435  1
  Zn  Zn101  1  0.94967721  0.42605758  0.70247089  1
  Zn  Zn102  1  0.93800468  0.95129842  0.18057453  1
  Zn  Zn103  1  0.97725362  0.89205443  0.61537123  1
  Zn  Zn104  1  0.06702053  0.07286629  0.31017269  1
  Zn  Zn105  1  0.06980113  0.06075733  0.80192294  1
  Zn  Zn106  1  0.05097252  0.51919074  0.28494865  1
  Zn  Zn107  1  0.08713788  0.57492322  0.78764837  1
  Zn  Zn108  1  0.55315172  0.06039837  0.31692310  1
  Zn  Zn109  1  0.54771688  0.06401312  0.82297379  1
  Zn  Zn110  1  0.61142053  0.55109177  0.35297191  1
  Zn  Zn111  1  0.55421887  0.56394083  0.80963455  1
  Zn  Zn112  1  0.44357526  0.18182844  0.43596994  1
  Zn  Zn113  1  0.44593577  0.17279735  0.94601197  1
  Zn  Zn114  1  0.41894198  0.71501548  0.41398230  1
  Zn  Zn115  1  0.44134924  0.69067706  0.93901074  1
  Zn  Zn116  1  0.93097731  0.22885470  0.41257835  1
  Zn  Zn117  1  0.95960705  0.21852299  0.98551005  1
  Zn  Zn118  1  0.98209875  0.63285985  0.39445429  1
  Zn  Zn119  1  0.93238452  0.69360177  0.91256305  1
  Zn  Zn120  1  0.07948057  0.32396097  0.06649708  1
  Zn  Zn121  1  0.05340716  0.30313567  0.56515943  1
  Zn  Zn122  1  0.04639291  0.80200310  0.06407977  1
  Zn  Zn123  1  0.10036743  0.77489105  0.56541180  1
  Zn  Zn124  1  0.54994664  0.31389986  0.06788832  1
  Zn  Zn125  1  0.56401806  0.30080058  0.57129087  1
  Zn  Zn126  1  0.58204227  0.81864653  0.05455780  1
  Zn  Zn127  1  0.60425927  0.84551982  0.53991503  1
  O  O128  1  0.12145242  0.10392172  0.12438694  1
  O  O129  1  0.12440059  0.10972687  0.62280577  1
  O  O130  1  0.13407672  0.63263448  0.08529796  1
  O  O131  1  0.12821358  0.59532288  0.62345904  1
  O  O132  1  0.62812161  0.10887910  0.11683512  1
  O  O133  1  0.61423785  0.12326651  0.61509162  1
  O  O134  1  0.65423632  0.63431578  0.17789031  1
  O  O135  1  0.60524867  0.60243982  0.64069611  1
  O  O136  1  0.35990984  0.42675046  0.35697506  1
  O  O137  1  0.38210359  0.37611977  0.87727377  1
  O  O138  1  0.40369140  0.83327636  0.37957149  1
  O  O139  1  0.37572897  0.87799859  0.87735425  1
  O  O140  1  0.89372174  0.33016003  0.35223066  1
  O  O141  1  0.86511218  0.35429865  0.91254636  1
  O  O142  1  0.91620439  0.87924763  0.39514804  1
  O  O143  1  0.88042084  0.87458050  0.87159596  1
  O  O144  1  0.23768859  0.02210343  0.36396136  1
  O  O145  1  0.25923255  -0.00483851  0.86876075  1
  O  O146  1  0.21000749  0.46924327  0.31401625  1
  O  O147  1  0.25175706  0.51917333  0.88409227  1
  O  O148  1  0.80922182  0.00164207  0.42409003  1
  O  O149  1  0.76639267  0.03105497  0.85481801  1
  O  O150  1  0.71940507  0.52026447  0.38038345  1
  O  O151  1  0.74540581  0.47296547  0.83961173  1
  O  O152  1  0.24726086  0.50354169  0.11143276  1
  O  O153  1  0.23994794  0.48663883  0.62410580  1
  O  O154  1  0.23332443  0.99696072  0.13638099  1
  O  O155  1  0.16039126  1.05520102  0.57916414  1
  O  O156  1  0.72185109  0.49721325  0.12274665  1
  O  O157  1  0.72948940  0.48283199  0.63066757  1
  O  O158  1  0.74145209  0.99407116  0.12081384  1
  O  O159  1  0.77136006  0.98122965  0.62259570  1
  O  O160  1  0.00985406  0.41334195  0.27362463  1
  O  O161  1  0.01766953  0.35378678  0.75708110  1
  O  O162  1  0.00139186  0.87530316  0.24441118  1
  O  O163  1  0.01947660  0.85062112  0.71635381  1
  O  O164  1  0.52276987  0.37484247  0.24202941  1
  O  O165  1  0.50782799  0.35875533  0.75233662  1
  O  O166  1  0.50303771  0.88174265  0.25990532  1
  O  O167  1  0.50218735  0.86560400  0.74453420  1
  O  O168  1  0.51281204  0.12511328  0.22985997  1
  O  O169  1  0.48805218  0.13325300  0.75156920  1
  O  O170  1  0.47713584  0.68117282  0.21472932  1
  O  O171  1  0.48630003  0.63196127  0.74601112  1
  O  O172  1  1.00386117  0.12327446  0.22596111  1
  O  O173  1  1.00518326  0.14491172  0.76603599  1
  O  O174  1  0.98390644  0.61957107  0.26491813  1
  O  O175  1  1.00764600  0.62885758  0.73399125  1
  O  O176  1  0.36725645  0.23800698  0.00086243  1
  O  O177  1  0.37960495  0.23508621  0.51751489  1
  O  O178  1  0.37621770  0.76487540  -0.00637584  1
  O  O179  1  0.37604276  0.72967745  0.51870969  1
  O  O180  1  0.87049935  0.26197677  0.03862273  1
  O  O181  1  0.85308895  0.24161508  0.50316108  1
  O  O182  1  0.87089657  0.76157155  -0.01364532  1
  O  O183  1  0.84421706  0.73248878  0.50017544  1
  O  O184  1  0.14375337  0.24529955  0.51337104  1
  O  O185  1  0.15550874  0.26077631  0.99606497  1
  O  O186  1  0.14598108  0.69919713  0.49462671  1
  O  O187  1  0.10659693  0.74024072  0.97699307  1
  O  O188  1  0.62046739  0.23425464  0.49609023  1
  O  O189  1  0.61437096  0.25439244  0.99001171  1
  O  O190  1  0.63068310  0.73307969  0.55839873  1
  O  O191  1  0.64537885  0.75118809  0.98496865  1
  O  O192  1  0.47710713  0.23559070  0.11813724  1
  O  O193  1  0.48767673  0.24660179  0.64052231  1
  O  O194  1  0.49827036  0.76593129  0.11693495  1
  O  O195  1  0.48428846  0.72932216  0.63420151  1
  O  O196  1  1.02776388  0.22463091  0.09797843  1
  O  O197  1  0.99559420  0.23997096  0.63952975  1
  O  O198  1  1.00225089  0.71564554  0.13127373  1
  O  O199  1  1.01421365  0.72112824  0.62715722  1
  O  O200  1  0.02368724  0.24128912  0.32841492  1
  O  O201  1  0.02582991  0.25148915  0.90128052  1
  O  O202  1  0.00692498  0.74722435  0.39492542  1
  O  O203  1  0.01697942  0.73762167  0.84820434  1
  O  O204  1  0.51190629  0.25393060  0.38160150  1
  O  O205  1  0.50069806  0.24444698  0.86595304  1
  O  O206  1  0.51428829  0.76654954  0.37550219  1
  O  O207  1  0.48478282  0.76312386  0.85423149  1
  O  O208  1  0.25623585  0.13730321  0.47660448  1
  O  O209  1  0.25382792  0.11800071  1.00183682  1
  O  O210  1  0.22931334  0.56503133  0.47287018  1
  O  O211  1  0.26865580  0.63842516  0.98722072  1
  O  O212  1  0.73312708  0.14029012  0.51491618  1
  O  O213  1  0.73211935  0.12246902  1.00681979  1
  O  O214  1  0.72788523  0.61514002  0.52835577  1
  O  O215  1  0.74323797  0.64364148  0.99847597  1
  O  O216  1  0.35023253  0.40288400  -0.06256029  1
  O  O217  1  0.26033239  0.35160128  0.49012983  1
  O  O218  1  0.25585920  0.87113875  -0.00517172  1
  O  O219  1  0.23780700  0.88840136  0.49078559  1
  O  O220  1  0.73183979  0.38292758  0.01541793  1
  O  O221  1  0.73340597  0.35705037  0.52666784  1
  O  O222  1  0.76653185  0.87003182  -0.01673227  1
  O  O223  1  0.71889884  0.86664729  0.51060383  1
  O  O224  1  0.12920232  0.55796041  0.20941723  1
  O  O225  1  0.12890834  0.47855360  0.74820514  1
  O  O226  1  0.12285650  0.99208665  0.23783136  1
  O  O227  1  0.12032051  0.97717390  0.74545722  1
  O  O228  1  0.62401066  0.49012739  0.25596412  1
  O  O229  1  0.60919236  0.48273759  0.74656546  1
  O  O230  1  0.63922809  1.00967699  0.24846188  1
  O  O231  1  0.61276710  1.00245480  0.75334474  1
  O  O232  1  0.34963247  -0.02708963  0.25025012  1
  O  O233  1  0.37155905  0.00585174  0.75038906  1
  O  O234  1  0.43101075  0.52579463  0.24960734  1
  O  O235  1  0.38320591  0.51104960  0.75494630  1
  O  O236  1  0.87491675  -0.00634898  0.26939608  1
  O  O237  1  0.86893706  0.07486851  0.73876965  1
  O  O238  1  0.85453574  0.47655096  0.29570796  1
  O  O239  1  0.87743924  0.50061690  0.77732607  1
  O  O240  1  0.11467112  0.35560556  0.37731429  1
  O  O241  1  0.13525365  0.36331485  0.86496187  1
  O  O242  1  0.09627278  0.89050905  0.36779220  1
  O  O243  1  0.12561387  0.85932222  0.86786306  1
  O  O244  1  0.63046461  0.36613897  0.36749479  1
  O  O245  1  0.62038649  0.36240479  0.86663323  1
  O  O246  1  0.62756779  0.88390502  0.36488781  1
  O  O247  1  0.59671458  0.87712695  0.86202669  1
  O  O248  1  0.39513464  0.09651906  0.12342574  1
  O  O249  1  0.37191125  0.12591914  0.63982195  1
  O  O250  1  0.31534779  0.65969234  0.16312076  1
  O  O251  1  0.37995940  0.61080546  0.63412357  1
  O  O252  1  0.89216449  0.12677416  0.11632111  1
  O  O253  1  0.81498250  0.11166229  0.70477911  1
  O  O254  1  0.84503786  0.62965995  0.14456158  1
  O  O255  1  0.89426924  0.60262418  0.61219800  1
  O  O256  1  0.27050248  0.24510027  0.10644996  1
  O  O257  1  0.26419012  0.23776543  0.61314639  1
  O  O258  1  0.31738777  0.73238617  0.15453337  1
  O  O259  1  0.25825369  0.73471901  0.62256716  1
  O  O260  1  0.74507088  0.26419256  0.11271316  1
  O  O261  1  0.74426052  0.25779572  0.62379541  1
  O  O262  1  0.74949809  0.77905682  0.10193011  1
  O  O263  1  0.76568924  0.80711058  0.66888704  1
  O  O264  1  0.24891374  0.24855892  0.37497898  1
  O  O265  1  0.25121409  0.24523171  0.89187061  1
  O  O266  1  0.26766931  0.83715096  0.44578492  1
  O  O267  1  0.23255653  0.73521427  0.86617631  1
  O  O268  1  0.73332939  0.25790900  0.39879469  1
  O  O269  1  0.72591954  0.24786599  0.87577260  1
  O  O270  1  0.80182209  0.74602729  0.44378482  1
  O  O271  1  0.76125936  0.74766059  0.87524487  1
  O  O272  1  -0.00470990  0.10444307  0.00228157  1
  O  O273  1  -0.03541294  0.07102539  0.60393052  1
  O  O274  1  -0.00157292  0.62046055  -0.02295635  1
  O  O275  1  0.01947905  0.60676427  0.51618254  1
  O  O276  1  0.52136760  0.12155141  0.01741904  1
  O  O277  1  0.51022553  0.10275606  0.48927629  1
  O  O278  1  0.53135685  0.64173723  -0.01146201  1
  O  O279  1  0.50850736  0.61259593  0.52417228  1
  O  O280  1  0.50638176  0.37802288  0.50799489  1
  O  O281  1  0.51658650  0.40552820  1.00802313  1
  O  O282  1  0.51700142  0.88822545  0.48385451  1
  O  O283  1  0.49870247  0.86827584  0.98362280  1
  O  O284  1  0.99685866  0.31030123  0.46837178  1
  O  O285  1  0.98297698  0.37705669  1.02243005  1
  O  O286  1  1.03100171  0.85832686  0.51562288  1
  O  O287  1  0.98464476  0.87906134  1.00203969  1
  O  O288  1  0.51232071  0.50044725  0.39763397  1
  O  O289  1  0.49926713  0.51065050  0.89211591  1
  O  O290  1  0.49967796  0.98469890  0.38026802  1
  O  O291  1  0.48020052  0.98120136  0.86506303  1
  O  O292  1  0.97981053  0.46120428  0.41948546  1
  O  O293  1  0.90927415  0.54600835  0.83250386  1
  O  O294  1  0.98946776  1.03038306  0.38357090  1
  O  O295  1  1.01572849  0.99799578  0.88733300  1
  O  O296  1  0.01008666  0.00785765  0.11335993  1
  O  O297  1  -0.01275636  0.01098590  0.64684906  1
  O  O298  1  -0.01797822  0.54936230  0.12256524  1
  O  O299  1  0.01095567  0.50035064  0.64067618  1
  O  O300  1  0.52508696  0.00364204  0.12975821  1
  O  O301  1  0.49289729  -0.00968846  0.59892294  1
  O  O302  1  0.54567050  0.51928175  0.11580763  1
  O  O303  1  0.50284090  0.49633872  0.62302614  1
  O  O304  1  0.23079960  0.41952653  0.26426558  1
  O  O305  1  0.23515256  0.35608160  0.74507389  1
  O  O306  1  0.22249865  0.89319228  0.27088936  1
  O  O307  1  0.23812186  0.86868735  0.75467721  1
  O  O308  1  0.73337273  0.36838085  0.23810170  1
  O  O309  1  0.72660864  0.35784248  0.74508846  1
  O  O310  1  0.76098930  0.87160687  0.23660025  1
  O  O311  1  0.72089460  0.89443055  0.79238614  1
  O  O312  1  0.25368160  0.10998057  0.25026430  1
  O  O313  1  0.26432810  0.12986383  0.75348679  1
  O  O314  1  0.23660859  0.69109935  0.32772495  1
  O  O315  1  0.26252343  0.61884154  0.75598786  1
  O  O316  1  0.78927207  0.19185724  0.22706718  1
  O  O317  1  0.76025519  0.14667551  0.75421601  1
  O  O318  1  0.78668209  0.71662209  0.28756619  1
  O  O319  1  0.75180758  0.63394785  0.70173147  1
  O  O320  1  0.36319660  0.13740457  0.36342475  1
  O  O321  1  0.38274454  0.10534532  0.86505282  1
  O  O322  1  0.38549621  0.60565493  0.38233028  1
  O  O323  1  0.36723255  0.63490479  0.86287508  1
  O  O324  1  0.87675291  0.14013273  0.36252939  1
  O  O325  1  0.81534481  0.07564246  0.88636557  1
  O  O326  1  0.87140915  0.60943241  0.39458955  1
  O  O327  1  0.86505329  0.60854930  0.85325422  1
  O  O328  1  0.11643574  0.41645605  0.12268256  1
  O  O329  1  0.11701159  0.37463617  0.63809059  1
  O  O330  1  0.11024310  0.88185220  0.13508114  1
  O  O331  1  0.14596707  0.86425356  0.62625922  1
  O  O332  1  0.62808809  0.36463858  0.14002079  1
  O  O333  1  0.62205530  0.37871651  0.64198644  1
  O  O334  1  0.63934891  0.89275590  0.12286508  1
  O  O335  1  0.62851340  0.88315298  0.64921955  1
  O  O336  1  0.15066829  0.26509165  0.23486959  1
  O  O337  1  0.12081998  0.25122054  0.76441480  1
  O  O338  1  0.12268109  0.77041624  0.24747909  1
  O  O339  1  0.12405072  0.75124472  0.75335187  1
  O  O340  1  0.62685545  0.25312539  0.26694365  1
  O  O341  1  0.60774134  0.24959466  0.75967666  1
  O  O342  1  0.52551834  0.72808206  0.18385861  1
  O  O343  1  0.60167764  0.74866215  0.74052626  1
  O  O344  1  0.36248534  0.26881961  0.23298488  1
  O  O345  1  0.38253600  0.23844600  0.74548272  1
  O  O346  1  0.29817562  0.72746283  0.31361285  1
  O  O347  1  0.37870261  0.73610618  0.73477482  1
  O  O348  1  0.91247749  0.27936063  0.19500825  1
  O  O349  1  0.89145765  0.25777220  0.76375621  1
  O  O350  1  0.85522415  0.74918217  0.28876227  1
  O  O351  1  0.89872488  0.75246091  0.74803203  1
  O  O352  1  0.39632667  0.49145618  0.50650241  1
  O  O353  1  0.41925245  0.53371336  1.03034274  1
  O  O354  1  0.37920639  0.99562342  0.48972520  1
  O  O355  1  0.37112437  0.98686637  0.97908235  1
  O  O356  1  0.83210596  0.47075086  0.47420116  1
  O  O357  1  0.86357923  0.48651534  0.99874853  1
  O  O358  1  0.92055476  1.05354676  0.53935577  1
  O  O359  1  0.88716378  0.98778186  0.99082141  1
  O  O360  1  0.11344748  -0.01777936  0.01200685  1
  O  O361  1  0.11251132  0.02581679  0.52048198  1
  O  O362  1  0.12146089  0.51684804  0.00023967  1
  O  O363  1  0.11615412  0.47997632  0.52067463  1
  O  O364  1  0.63575501  0.00231068  -0.02351856  1
  O  O365  1  0.64078679  0.01931703  0.48964954  1
  O  O366  1  0.62912159  0.53145574  -0.01490256  1
  O  O367  1  0.61438914  0.50068296  0.52181569  1
  O  O368  1  0.39045814  0.37330799  0.11921505  1
  O  O369  1  0.37383210  0.35500020  0.63303756  1
  O  O370  1  0.37696680  0.89111021  0.09905707  1
  O  O371  1  0.36766803  0.85608201  0.62515984  1
  O  O372  1  0.84238030  0.39510809  0.12311060  1
  O  O373  1  0.85109178  0.38642456  0.65061771  1
  O  O374  1  0.86059833  0.89286720  0.11520136  1
  O  O375  1  0.87459922  0.87387625  0.57044025  1
  O  O376  1  0.14312498  0.14980718  0.35504572  1
  O  O377  1  0.13115206  0.13891935  0.87489007  1
  O  O378  1  0.09265802  0.58254523  0.38438300  1
  O  O379  1  0.13700784  0.62330310  0.88172096  1
  O  O380  1  0.62112187  0.13852013  0.37756333  1
  O  O381  1  0.61415953  0.13480787  0.88967734  1
  O  O382  1  0.61679305  0.64681826  0.41593258  1
  O  O383  1  0.63267629  0.63441616  0.86144823  1
