# generated using pymatgen
data_VZnO4
_symmetry_space_group_name_H-M   'P 1'
_cell_length_a   16.92420828
_cell_length_b   16.87027066
_cell_length_c   16.86997761
_cell_angle_alpha   90.10028563
_cell_angle_beta   89.78146010
_cell_angle_gamma   89.85112887
_symmetry_Int_Tables_number   1
_chemical_formula_structural   VZnO4
_chemical_formula_sum   'V64 Zn64 O256'
_cell_volume   4816.58933556
_cell_formula_units_Z   64
loop_
 _symmetry_equiv_pos_site_id
 _symmetry_equiv_pos_as_xyz
  1  'x, y, z'
loop_
 _atom_site_type_symbol
 _atom_site_label
 _atom_site_symmetry_multiplicity
 _atom_site_fract_x
 _atom_site_fract_y
 _atom_site_fract_z
 _atom_site_occupancy
  V  V0  1  0.00809844  0.50283980  0.02064511  1
  V  V1  1  0.14420159  0.12972239  -0.01182140  1
  V  V2  1  0.11412229  0.86825627  0.76240152  1
  V  V3  1  0.88068493  0.46283116  0.38157638  1
  V  V4  1  0.63261413  0.90053805  0.23898438  1
  V  V5  1  0.28170351  0.51179373  0.75781869  1
  V  V6  1  0.62627658  0.63679456  0.47391134  1
  V  V7  1  0.61010700  0.36789619  0.25539030  1
  V  V8  1  0.86782350  0.51084765  0.86377992  1
  V  V9  1  0.23696548  0.24635739  0.50545143  1
  V  V10  1  0.39912355  0.12843406  0.75750307  1
  V  V11  1  0.23657669  0.38567483  0.11448937  1
  V  V12  1  0.50555926  0.74280711  0.23625039  1
  V  V13  1  0.12853370  0.38948449  0.25867771  1
  V  V14  1  0.36287372  0.24167399  0.12138752  1
  V  V15  1  0.51427426  0.86613920  0.87193306  1
  V  V16  1  0.24662106  0.37933583  0.64306296  1
  V  V17  1  0.63329838  0.72850640  0.86990615  1
  V  V18  1  0.88160969  0.86012869  0.50255077  1
  V  V19  1  0.25141282  0.87406969  0.62789110  1
  V  V20  1  0.37812376  0.37604419  0.48856235  1
  V  V21  1  0.62432532  0.49353310  0.62829292  1
  V  V22  1  0.50026435  0.63088776  0.63567407  1
  V  V23  1  0.87333035  0.72832915  0.62516098  1
  V  V24  1  0.25744923  0.01330097  0.26267566  1
  V  V25  1  0.51057913  0.12736018  0.13131373  1
  V  V26  1  0.87700683  0.38546186  0.00809664  1
  V  V27  1  0.38019658  0.74542913  0.63052335  1
  V  V28  1  0.39317619  0.25143079  0.63179500  1
  V  V29  1  0.74500358  0.49609854  0.26756641  1
  V  V30  1  0.88017195  0.87986078  -0.02661591  1
  V  V31  1  0.12843466  -0.01064666  0.11458084  1
  V  V32  1  0.52286620  0.00115851  0.00468101  1
  V  V33  1  0.12806770  0.88115554  0.27390964  1
  V  V34  1  0.87476890  0.25296426  0.12454483  1
  V  V35  1  0.37561243  -0.00989381  0.88640121  1
  V  V36  1  0.12925349  0.63659452  -0.00369331  1
  V  V37  1  0.38875911  0.38790219  -0.00357981  1
  V  V38  1  0.87474173  0.25144507  0.62920532  1
  V  V39  1  0.75128711  0.73503033  0.01027165  1
  V  V40  1  0.10694973  0.00301141  0.62266948  1
  V  V41  1  0.88440129  0.00068582  0.39062937  1
  V  V42  1  0.00772056  0.25094588  0.25622313  1
  V  V43  1  0.36271385  0.59502450  0.25190051  1
  V  V44  1  0.74343209  0.88122974  0.63168113  1
  V  V45  1  0.73915266  0.12320275  0.39841563  1
  V  V46  1  0.00703888  0.37603460  0.86732114  1
  V  V47  1  0.37950710  0.88279069  0.48998164  1
  V  V48  1  -0.00416188  0.72989451  0.75355933  1
  V  V49  1  0.23891468  0.74902229  0.49186985  1
  V  V50  1  0.51863537  0.87570552  0.37310483  1
  V  V51  1  0.84952036  0.66104958  0.26875906  1
  V  V52  1  -0.00368594  0.11947048  0.10574670  1
  V  V53  1  0.74062474  0.38353566  0.12782567  1
  V  V54  1  0.00933578  0.63959738  0.14455394  1
  V  V55  1  0.57387014  0.09297599  0.48480079  1
  V  V56  1  0.49107930  0.50782461  0.47787541  1
  V  V57  1  0.74262692  0.24244701  -0.00635003  1
  V  V58  1  0.26696774  0.74881943  0.02875460  1
  V  V59  1  0.86478125  0.11318007  0.24679380  1
  V  V60  1  0.24241295  0.60491280  0.38117948  1
  V  V61  1  0.76315691  0.88899126  0.12558204  1
  V  V62  1  0.01404989  0.75956547  0.27830626  1
  V  V63  1  0.25531853  0.00388920  0.75455332  1
  Zn  Zn64  1  0.18289600  0.18377436  0.17774429  1
  Zn  Zn65  1  0.21519305  0.16421981  0.65027065  1
  Zn  Zn66  1  0.18604426  0.68171016  0.19878578  1
  Zn  Zn67  1  0.19781117  0.69498516  0.70036234  1
  Zn  Zn68  1  0.68437518  0.19101676  0.18294979  1
  Zn  Zn69  1  0.69413456  0.17103449  0.60187108  1
  Zn  Zn70  1  0.70107860  0.70535306  0.20579408  1
  Zn  Zn71  1  0.68322150  0.69539265  0.67203223  1
  Zn  Zn72  1  0.29879623  0.28604675  0.30620961  1
  Zn  Zn73  1  0.32764188  0.31799815  0.81270399  1
  Zn  Zn74  1  0.30447937  0.82176956  0.31074802  1
  Zn  Zn75  1  0.32091027  0.81635512  0.81420771  1
  Zn  Zn76  1  0.80169104  0.30363437  0.31175244  1
  Zn  Zn77  1  0.85904071  0.28273520  0.84397551  1
  Zn  Zn78  1  0.82027897  0.83037240  0.30767439  1
  Zn  Zn79  1  0.80595673  0.79535535  0.80737253  1
  Zn  Zn80  1  0.18129268  0.41343642  0.44426433  1
  Zn  Zn81  1  0.18955241  0.44144997  0.93172483  1
  Zn  Zn82  1  0.19302230  0.95045672  0.44446208  1
  Zn  Zn83  1  0.19097530  0.92654905  0.94193088  1
  Zn  Zn84  1  0.67199666  0.42519704  0.44379819  1
  Zn  Zn85  1  0.69975550  0.47471386  0.96363314  1
  Zn  Zn86  1  0.69643956  0.94096777  0.44655491  1
  Zn  Zn87  1  0.68886711  0.92392615  0.94499295  1
  Zn  Zn88  1  0.30690341  0.05913917  0.07131457  1
  Zn  Zn89  1  0.32637105  0.06255040  0.57050120  1
  Zn  Zn90  1  0.31026898  0.56069940  0.06687552  1
  Zn  Zn91  1  0.31055866  0.56296437  0.56160085  1
  Zn  Zn92  1  0.81401189  0.05932243  0.04946642  1
  Zn  Zn93  1  0.81886654  0.05532228  0.57520014  1
  Zn  Zn94  1  0.82790929  0.56997662  0.08988220  1
  Zn  Zn95  1  0.79939787  0.55885051  0.54635662  1
  Zn  Zn96  1  0.40648420  0.39598104  0.21142805  1
  Zn  Zn97  1  0.43786437  0.44822777  0.67665540  1
  Zn  Zn98  1  0.44261409  0.94183195  0.19269933  1
  Zn  Zn99  1  0.44444928  0.92734009  0.68371945  1
  Zn  Zn100  1  0.93994958  0.43860103  0.20101542  1
  Zn  Zn101  1  0.93811165  0.44182450  0.68773932  1
  Zn  Zn102  1  0.94616216  0.93561948  0.18778205  1
  Zn  Zn103  1  0.93009834  0.92742553  0.69134174  1
  Zn  Zn104  1  0.05335298  0.06189536  0.29934820  1
  Zn  Zn105  1  0.09798417  0.09389243  0.77382141  1
  Zn  Zn106  1  0.05659306  0.55981735  0.34436053  1
  Zn  Zn107  1  0.04655936  0.56861161  0.83000263  1
  Zn  Zn108  1  0.55132184  0.06172869  0.31126376  1
  Zn  Zn109  1  0.55450150  0.02225925  0.77982348  1
  Zn  Zn110  1  0.55371172  0.56048620  0.29666470  1
  Zn  Zn111  1  0.69747984  0.56784008  0.79905850  1
  Zn  Zn112  1  0.39362971  0.17219121  0.43678382  1
  Zn  Zn113  1  0.41051046  0.16985160  0.95921704  1
  Zn  Zn114  1  0.42808709  0.69599623  0.42665667  1
  Zn  Zn115  1  0.44530410  0.69083875  0.95090566  1
  Zn  Zn116  1  0.92576135  0.19803379  0.42607056  1
  Zn  Zn117  1  0.99617777  0.16200492  0.89256428  1
  Zn  Zn118  1  0.94925364  0.67628858  0.44780402  1
  Zn  Zn119  1  0.93581305  0.69283042  0.94473379  1
  Zn  Zn120  1  0.06619321  0.30714923  0.05988692  1
  Zn  Zn121  1  0.07451710  0.30070068  0.60651589  1
  Zn  Zn122  1  0.05622610  0.81368579  0.05556632  1
  Zn  Zn123  1  0.05654812  0.81444911  0.57017416  1
  Zn  Zn124  1  0.55841278  0.30968123  0.06367224  1
  Zn  Zn125  1  0.56823394  0.31526963  0.55136889  1
  Zn  Zn126  1  0.56798333  0.81365765  0.05950994  1
  Zn  Zn127  1  0.56578469  0.81169082  0.55534786  1
  O  O128  1  0.11120202  0.11788843  0.10576536  1
  O  O129  1  0.11952625  0.10557211  0.65347507  1
  O  O130  1  0.11257958  0.62596378  0.12081963  1
  O  O131  1  0.11912247  0.57328489  0.65476595  1
  O  O132  1  0.61065171  0.12754543  0.12435438  1
  O  O133  1  0.59744751  0.16775232  0.55187035  1
  O  O134  1  0.62635968  0.62011189  0.11900271  1
  O  O135  1  0.60735260  0.62960952  0.60586851  1
  O  O136  1  0.36287607  0.36268081  0.39255121  1
  O  O137  1  0.37807822  0.36503780  0.89671871  1
  O  O138  1  0.36416930  0.88081657  0.39088536  1
  O  O139  1  0.38686526  0.88468602  0.87875814  1
  O  O140  1  0.86310191  0.36197683  0.38803109  1
  O  O141  1  0.88079948  0.39486484  0.89273224  1
  O  O142  1  0.86861893  0.89091416  0.38878735  1
  O  O143  1  0.86513469  0.87216849  0.87417673  1
  O  O144  1  0.24784620  0.00831367  0.36483163  1
  O  O145  1  0.26483534  -0.01617793  0.86281027  1
  O  O146  1  0.23765874  0.50701993  0.40271573  1
  O  O147  1  0.23931570  0.49952755  0.84992034  1
  O  O148  1  0.76289237  0.01692991  0.37967104  1
  O  O149  1  0.72011662  0.02181848  0.84996315  1
  O  O150  1  0.74944331  0.48395691  0.37070616  1
  O  O151  1  0.75933538  0.50185860  0.87335388  1
  O  O152  1  0.24046908  0.48442618  0.12634722  1
  O  O153  1  0.26692938  0.48685627  0.63806476  1
  O  O154  1  0.23086572  1.00166056  0.13459817  1
  O  O155  1  0.25903625  0.98860183  0.64181617  1
  O  O156  1  0.76030535  0.48560447  0.13812145  1
  O  O157  1  0.72216439  0.49186963  0.59967873  1
  O  O158  1  0.75273710  0.98822021  0.11870986  1
  O  O159  1  0.75080190  0.98481160  0.62511279  1
  O  O160  1  0.01551090  0.35791609  0.23478569  1
  O  O161  1  0.00277668  0.38691452  0.76642413  1
  O  O162  1  0.01475822  0.86838893  0.25205338  1
  O  O163  1  0.01275699  0.87456538  0.75310692  1
  O  O164  1  0.51716135  0.39283322  0.22483343  1
  O  O165  1  0.52096898  0.36504897  0.78047132  1
  O  O166  1  0.52450279  0.86762687  0.24767112  1
  O  O167  1  0.49357034  0.86475434  0.77377805  1
  O  O168  1  0.49436337  0.11548246  0.23158351  1
  O  O169  1  0.49690320  0.12652909  0.75914061  1
  O  O170  1  0.47123079  0.63937927  0.25900343  1
  O  O171  1  0.50209538  0.63238258  0.73094292  1
  O  O172  1  0.98571204  0.13452776  0.23859754  1
  O  O173  1  1.01003865  0.16020944  0.77896708  1
  O  O174  1  1.02476261  0.64660976  0.25161444  1
  O  O175  1  1.00497142  0.62974830  0.74500831  1
  O  O176  1  0.37722621  0.26271212  0.01292915  1
  O  O177  1  0.36920455  0.25762788  0.51715421  1
  O  O178  1  0.36699381  0.73074860  0.02198990  1
  O  O179  1  0.36388258  0.76400884  0.50679873  1
  O  O180  1  0.86439948  0.26978346  0.01434207  1
  O  O181  1  0.89385189  0.24732686  0.52334299  1
  O  O182  1  0.85779600  0.76127136  -0.00506063  1
  O  O183  1  0.88372128  0.75253843  0.50434649  1
  O  O184  1  0.13718850  0.25847885  0.52488149  1
  O  O185  1  0.11853444  0.22828294  0.99499084  1
  O  O186  1  0.14128035  0.75943456  0.51305649  1
  O  O187  1  0.12602762  0.73861388  1.00257410  1
  O  O188  1  0.53858724  0.25360796  0.40148393  1
  O  O189  1  0.64383221  0.26305214  1.00194743  1
  O  O190  1  0.60655220  0.73653431  0.47949323  1
  O  O191  1  0.64245224  0.75225339  0.99417154  1
  O  O192  1  0.49150207  0.23147737  0.11515045  1
  O  O193  1  0.49063491  0.25694836  0.62088153  1
  O  O194  1  0.50665300  0.75022774  0.13498495  1
  O  O195  1  0.48715094  0.74564352  0.61499188  1
  O  O196  1  0.99109114  0.23590291  0.12477895  1
  O  O197  1  0.98100051  0.25291449  0.64129689  1
  O  O198  1  1.00108727  0.73880006  0.12853023  1
  O  O199  1  0.98522183  0.75051069  0.63388804  1
  O  O200  1  -0.00869921  0.25270440  0.35493290  1
  O  O201  1  -0.02980007  0.27583139  0.88316311  1
  O  O202  1  0.01061185  0.75605406  0.37601339  1
  O  O203  1  -0.00865859  0.74193681  0.85416682  1
  O  O204  1  0.49119521  0.24884678  0.34614205  1
  O  O205  1  0.60019293  0.23018489  0.83740953  1
  O  O206  1  0.47848710  0.77458222  0.35116835  1
  O  O207  1  0.51940222  0.75758566  0.89473966  1
  O  O208  1  0.25405375  0.14363265  0.53098693  1
  O  O209  1  0.24388552  0.12397741  0.99251296  1
  O  O210  1  0.25491975  0.63990358  0.49323321  1
  O  O211  1  0.23545150  0.63391019  1.01185515  1
  O  O212  1  0.75186477  0.12586663  0.50082494  1
  O  O213  1  0.75444426  0.14331882  1.00709778  1
  O  O214  1  0.72453958  0.62704575  0.49209525  1
  O  O215  1  0.76021319  0.63405717  1.02074705  1
  O  O216  1  0.23858863  0.37534077  0.01060821  1
  O  O217  1  0.26023283  0.36767651  0.52052453  1
  O  O218  1  0.25013405  0.84019685  -0.01482290  1
  O  O219  1  0.25718056  0.87144359  0.51210084  1
  O  O220  1  0.75871696  0.38685720  0.01533524  1
  O  O221  1  0.66812050  0.32631594  0.50076230  1
  O  O222  1  0.76150709  0.86948115  0.01179762  1
  O  O223  1  0.76924582  0.87839046  0.50821282  1
  O  O224  1  0.11553871  0.48865259  0.26220741  1
  O  O225  1  0.11664865  0.52424465  0.71006035  1
  O  O226  1  0.12437781  0.99262428  0.24209204  1
  O  O227  1  0.14058641  0.98504010  0.74754988  1
  O  O228  1  0.63999328  0.49070312  0.25264527  1
  O  O229  1  0.62585841  0.51394426  0.72836652  1
  O  O230  1  0.62765498  0.99844275  0.24563159  1
  O  O231  1  0.68162809  1.02104406  0.78621316  1
  O  O232  1  0.35528184  -0.00267530  0.24052226  1
  O  O233  1  0.37090638  0.00824505  0.75688420  1
  O  O234  1  0.37447156  0.49598236  0.25793216  1
  O  O235  1  0.38238709  0.50136767  0.76180384  1
  O  O236  1  0.87866438  0.01131551  0.25368254  1
  O  O237  1  0.86774042  0.00601678  0.75874636  1
  O  O238  1  0.85639012  0.48021426  0.26822330  1
  O  O239  1  0.88030118  0.50272455  0.76426283  1
  O  O240  1  0.12808435  0.36451684  0.35697229  1
  O  O241  1  0.10468348  0.37546467  0.88826857  1
  O  O242  1  0.12281418  0.88951519  0.37234402  1
  O  O243  1  0.13062363  0.87115216  0.86033157  1
  O  O244  1  0.61113827  0.37882418  0.35553677  1
  O  O245  1  0.54844198  0.39203864  0.84229898  1
  O  O246  1  0.62367464  0.88027809  0.36354166  1
  O  O247  1  0.61709529  0.87754782  0.87010467  1
  O  O248  1  0.37700294  0.13653881  0.11797035  1
  O  O249  1  0.37744284  0.13696082  0.64495093  1
  O  O250  1  0.35934028  0.61754519  0.15327188  1
  O  O251  1  0.38438729  0.63846499  0.61482300  1
  O  O252  1  0.88220467  0.12667796  0.12912728  1
  O  O253  1  0.87733524  0.14506843  0.62653721  1
  O  O254  1  0.89339085  0.62463644  0.16812208  1
  O  O255  1  0.87154424  0.62997350  0.60817271  1
  O  O256  1  0.25885484  0.24776528  0.12264942  1
  O  O257  1  0.26388234  0.26529582  0.63330530  1
  O  O258  1  0.24220039  0.75250866  0.12621708  1
  O  O259  1  0.25920991  0.75634007  0.61811250  1
  O  O260  1  0.75778668  0.26496419  0.12047044  1
  O  O261  1  0.77276853  0.26052460  0.60887930  1
  O  O262  1  0.74597893  0.76139090  0.11613114  1
  O  O263  1  0.77148091  0.75724196  0.62026094  1
  O  O264  1  0.23957288  0.25224186  0.40586640  1
  O  O265  1  0.22350635  0.24874284  0.85064995  1
  O  O266  1  0.24848492  0.75959753  0.39081224  1
  O  O267  1  0.29384408  0.71595257  0.87839114  1
  O  O268  1  0.74769224  0.21922190  0.36721118  1
  O  O269  1  0.76372763  0.25754738  0.89466740  1
  O  O270  1  0.77205619  0.72665542  0.29978099  1
  O  O271  1  0.74006968  0.74787180  0.88977476  1
  O  O272  1  -0.01356247  0.12425715  0.00644436  1
  O  O273  1  0.03044368  0.13501701  0.46731828  1
  O  O274  1  0.00346338  0.61944061  0.01618608  1
  O  O275  1  0.02789203  0.59909505  0.45031784  1
  O  O276  1  0.49677760  0.10648537  0.00140689  1
  O  O277  1  0.47429856  0.10085109  0.46640202  1
  O  O278  1  0.50072652  0.59421401  0.00257496  1
  O  O279  1  0.49231801  0.61637134  0.48973453  1
  O  O280  1  0.48420373  0.38478775  0.49798100  1
  O  O281  1  0.48809554  0.38381079  1.01446283  1
  O  O282  1  0.49128286  0.86808100  0.48142390  1
  O  O283  1  0.50790531  0.89143430  0.99268313  1
  O  O284  1  1.03274664  0.43582486  0.54736294  1
  O  O285  1  0.99402904  0.39002651  1.01230443  1
  O  O286  1  0.98176379  0.87545513  0.50413568  1
  O  O287  1  0.97894779  0.86313387  0.99248764  1
  O  O288  1  0.49164367  0.50032115  0.37957893  1
  O  O289  1  0.54499114  0.54493708  0.96015726  1
  O  O290  1  0.49054944  0.97112976  0.35499242  1
  O  O291  1  0.49515085  0.99044415  0.88183443  1
  O  O292  1  0.97918632  0.47334442  0.35915609  1
  O  O293  1  0.98915124  0.49186301  0.89326739  1
  O  O294  1  0.98243656  1.00625358  0.36991526  1
  O  O295  1  0.91610299  1.03000553  0.81755995  1
  O  O296  1  0.00956056  0.01421777  0.12866883  1
  O  O297  1  0.00842527  -0.00648645  0.63279996  1
  O  O298  1  -0.00349859  0.51204767  0.12477734  1
  O  O299  1  -0.00649388  0.48737359  0.59583676  1
  O  O300  1  0.49570684  0.00576134  0.11062393  1
  O  O301  1  0.53280531  -0.00794251  0.67452446  1
  O  O302  1  0.57256593  0.57952014  0.14729423  1
  O  O303  1  0.49933249  0.52053686  0.61406288  1
  O  O304  1  0.23479700  0.36309254  0.24071866  1
  O  O305  1  0.26626840  0.38781883  0.74655902  1
  O  O306  1  0.23181487  0.89039316  0.25326041  1
  O  O307  1  0.24590499  0.87282460  0.74307741  1
  O  O308  1  0.73941609  0.37669096  0.24203091  1
  O  O309  1  0.73733771  0.37326091  0.75783791  1
  O  O310  1  0.73967403  0.87684324  0.23985262  1
  O  O311  1  0.75996637  0.86886841  0.73207234  1
  O  O312  1  0.23671251  0.11205899  0.24642504  1
  O  O313  1  0.24784872  0.10548290  0.75201898  1
  O  O314  1  0.25289635  0.61469425  0.26557970  1
  O  O315  1  0.25789548  0.60929591  0.73488633  1
  O  O316  1  0.76534545  0.12585027  0.23727064  1
  O  O317  1  0.73528912  0.13806488  0.69723468  1
  O  O318  1  0.75598993  0.59941162  0.24075990  1
  O  O319  1  0.75631908  0.63468792  0.73288640  1
  O  O320  1  0.35179582  0.18608557  0.33752490  1
  O  O321  1  0.37833446  0.11134761  0.86432478  1
  O  O322  1  0.35455331  0.63190701  0.36301147  1
  O  O323  1  0.35134908  0.66382793  0.87136553  1
  O  O324  1  0.86592257  0.11915728  0.36487349  1
  O  O325  1  0.88902814  0.08800890  0.86185884  1
  O  O326  1  0.88609780  0.62286269  0.35266585  1
  O  O327  1  0.88315205  0.60762872  0.88569719  1
  O  O328  1  0.13266509  0.36350748  0.13422615  1
  O  O329  1  0.14618964  0.37532411  0.64621084  1
  O  O330  1  0.11368256  0.88949917  0.12080126  1
  O  O331  1  0.13405285  0.88552054  0.63581725  1
  O  O332  1  0.63986515  0.37889318  0.12364671  1
  O  O333  1  0.59323149  0.39649548  0.63234282  1
  O  O334  1  0.63613454  0.87744267  0.13576092  1
  O  O335  1  0.64482037  0.85719747  0.61794189  1
  O  O336  1  0.10754797  0.23471026  0.24809617  1
  O  O337  1  0.16687222  0.24397694  0.80348846  1
  O  O338  1  0.12406013  0.77074537  0.25421826  1
  O  O339  1  0.11206884  0.75857835  0.73869327  1
  O  O340  1  0.62340847  0.26702326  0.24158565  1
  O  O341  1  0.68922321  0.32169418  0.73994892  1
  O  O342  1  0.60402356  0.73131223  0.25574227  1
  O  O343  1  0.63349100  0.74442687  0.77041297  1
  O  O344  1  0.38323931  0.27926162  0.22004531  1
  O  O345  1  0.38117923  0.23823443  0.74836281  1
  O  O346  1  0.38491342  0.79003023  0.22745570  1
  O  O347  1  0.37058031  0.75324455  0.72976435  1
  O  O348  1  0.87903934  0.24294690  0.23749648  1
  O  O349  1  0.85995500  0.24972217  0.73223061  1
  O  O350  1  0.90737060  0.75647412  0.25717161  1
  O  O351  1  0.88524646  0.74345751  0.73637553  1
  O  O352  1  0.38068783  0.48731223  0.50345288  1
  O  O353  1  0.36668021  0.48836960  1.00073770  1
  O  O354  1  0.37534647  0.98104136  0.51323677  1
  O  O355  1  0.36821435  1.00315541  0.98605928  1
  O  O356  1  0.86864979  0.50470800  0.47448852  1
  O  O357  1  0.88528312  0.49756111  1.01198579  1
  O  O358  1  0.88438910  1.00747160  0.49285590  1
  O  O359  1  0.86996448  0.98128087  0.99116589  1
  O  O360  1  0.13475569  0.00359620  0.00954010  1
  O  O361  1  0.13168296  0.00173453  0.52508741  1
  O  O362  1  0.10956844  0.50877638  0.00341675  1
  O  O363  1  0.09408828  0.46907546  0.50992319  1
  O  O364  1  0.62189987  0.00522036  -0.00413557  1
  O  O365  1  0.61073055  0.00046669  0.50325524  1
  O  O366  1  0.59742163  0.50361018  0.00674640  1
  O  O367  1  0.60061376  0.50697148  0.50028784  1
  O  O368  1  0.35341323  0.36991819  0.10901490  1
  O  O369  1  0.37649376  0.36277781  0.62888547  1
  O  O370  1  0.37976470  0.84140079  0.16596527  1
  O  O371  1  0.37155732  0.86555982  0.61965346  1
  O  O372  1  0.87140034  0.36974769  0.12670533  1
  O  O373  1  0.87945004  0.35784857  0.62798726  1
  O  O374  1  0.86415141  0.87647263  0.13519183  1
  O  O375  1  0.86954698  0.87000583  0.61315884  1
  O  O376  1  0.08462389  0.12729117  0.41600441  1
  O  O377  1  0.10911456  0.10536923  0.89247028  1
  O  O378  1  0.14662626  0.63389206  0.36965586  1
  O  O379  1  0.12045090  0.62145349  0.89668499  1
  O  O380  1  0.62691510  0.11171479  0.38901613  1
  O  O381  1  0.63081144  0.16499139  0.84640368  1
  O  O382  1  0.61660422  0.61508947  0.37541706  1
  O  O383  1  0.63173105  0.62837294  0.87747010  1
