# generated using pymatgen
data_VZnO4
_symmetry_space_group_name_H-M   'P 1'
_cell_length_a   16.90064635
_cell_length_b   17.01186775
_cell_length_c   16.89313175
_cell_angle_alpha   90.52763051
_cell_angle_beta   89.82133277
_cell_angle_gamma   89.92374141
_symmetry_Int_Tables_number   1
_chemical_formula_structural   VZnO4
_chemical_formula_sum   'V64 Zn64 O256'
_cell_volume   4856.73662425
_cell_formula_units_Z   64
loop_
 _symmetry_equiv_pos_site_id
 _symmetry_equiv_pos_as_xyz
  1  'x, y, z'
loop_
 _atom_site_type_symbol
 _atom_site_label
 _atom_site_symmetry_multiplicity
 _atom_site_fract_x
 _atom_site_fract_y
 _atom_site_fract_z
 _atom_site_occupancy
  V  V0  1  0.37713125  0.26567084  0.11610117  1
  V  V1  1  0.12929326  0.34349271  0.28398924  1
  V  V2  1  0.13749571  0.62861884  0.01109784  1
  V  V3  1  0.74500318  0.86571925  0.63933598  1
  V  V4  1  0.87693195  0.73811716  0.63569446  1
  V  V5  1  0.60499839  0.88121780  0.25071851  1
  V  V6  1  0.62017193  0.16911275  -0.01007399  1
  V  V7  1  0.11822592  0.87229214  0.73794448  1
  V  V8  1  0.75222270  0.75475986  0.47542437  1
  V  V9  1  0.50591428  0.49349472  0.49476229  1
  V  V10  1  0.62549318  -0.01059369  0.64658686  1
  V  V11  1  0.13718118  -0.01105759  0.12660572  1
  V  V12  1  0.26479446  0.35566588  0.62364291  1
  V  V13  1  0.12108998  0.61627320  0.51322789  1
  V  V14  1  0.09546623  0.00976315  0.62841879  1
  V  V15  1  0.75187719  0.86923392  0.11909752  1
  V  V16  1  0.13066615  0.75700711  0.39014503  1
  V  V17  1  0.39867936  0.14058513  0.75007398  1
  V  V18  1  0.12416548  0.35824702  0.74722440  1
  V  V19  1  0.72215708  0.49646631  0.22948833  1
  V  V20  1  0.12242319  0.12631209  0.01105160  1
  V  V21  1  0.24488016  0.23570764  0.49095421  1
  V  V22  1  0.38823403  0.51676749  0.86300718  1
  V  V23  1  0.40552135  0.37669310  -0.02543828  1
  V  V24  1  0.26260366  0.75112097  0.51078970  1
  V  V25  1  0.62953704  0.51119334  0.63389719  1
  V  V26  1  0.50511662  0.86058469  0.86831234  1
  V  V27  1  -0.03260043  0.87439314  0.92416166  1
  V  V28  1  0.24620525  0.48547497  0.25237651  1
  V  V29  1  0.78488386  0.74200869  0.00911046  1
  V  V30  1  0.62096436  0.11353922  0.47423385  1
  V  V31  1  0.50000645  0.72499179  0.24220327  1
  V  V32  1  0.78087350  0.51917605  0.74103235  1
  V  V33  1  0.37767562  0.47864308  0.38399679  1
  V  V34  1  0.75872415  0.09585955  0.90184044  1
  V  V35  1  0.01255816  0.77272408  0.25859746  1
  V  V36  1  0.37911629  0.00709802  0.86861371  1
  V  V37  1  0.49777057  0.12972893  0.12395892  1
  V  V38  1  0.92739883  0.60550468  0.25413645  1
  V  V39  1  0.61239427  0.35303616  0.27615029  1
  V  V40  1  0.39569389  0.89194663  0.48952158  1
  V  V41  1  0.87691567  0.25750380  0.12982213  1
  V  V42  1  0.52214971  0.14152912  0.63113447  1
  V  V43  1  0.24724945  0.50866547  0.73965903  1
  V  V44  1  0.26544532  0.62394442  0.37805397  1
  V  V45  1  0.75407083  0.23973989  0.46982682  1
  V  V46  1  0.49878574  0.63710857  0.62624174  1
  V  V47  1  0.75471454  0.63019818  0.87768835  1
  V  V48  1  0.24398497  0.26295221  -0.01404253  1
  V  V49  1  0.23992643  0.12284427  0.85880021  1
  V  V50  1  0.50885821  -0.00181796  0.00440452  1
  V  V51  1  0.26522909  0.90938239  0.63119813  1
  V  V52  1  0.86163787  0.07325995  0.73645898  1
  V  V53  1  0.88968882  0.50492618  0.90354124  1
  V  V54  1  0.09422688  0.11614154  0.48141265  1
  V  V55  1  -0.05363117  0.45455619  0.48778142  1
  V  V56  1  0.38720163  0.75521333  0.63413018  1
  V  V57  1  0.34614081  0.88430694  0.00595376  1
  V  V58  1  0.74924320  0.35926830  0.62269843  1
  V  V59  1  -0.04646644  0.28735690  0.74993185  1
  V  V60  1  0.75406003  -0.00280439  0.24985129  1
  V  V61  1  0.62653875  0.63344735  0.47668224  1
  V  V62  1  0.36016368  0.13903190  0.25005924  1
  V  V63  1  0.16109465  0.88343873  0.26597530  1
  Zn  Zn64  1  0.18585820  0.21070584  0.17951441  1
  Zn  Zn65  1  0.19024524  0.17947216  0.68634250  1
  Zn  Zn66  1  0.14625931  0.65129146  0.22488962  1
  Zn  Zn67  1  0.24191812  0.71913683  0.73886949  1
  Zn  Zn68  1  0.67508508  0.18779641  0.19102721  1
  Zn  Zn69  1  0.70957786  0.16677662  0.70001810  1
  Zn  Zn70  1  0.68561945  0.69531493  0.19471669  1
  Zn  Zn71  1  0.68157507  0.69068912  0.69056597  1
  Zn  Zn72  1  0.32269849  0.30742840  0.31655567  1
  Zn  Zn73  1  0.31483843  0.31269401  0.80765367  1
  Zn  Zn74  1  0.33655023  0.80832909  0.32361882  1
  Zn  Zn75  1  0.26944624  0.85978658  0.84827288  1
  Zn  Zn76  1  0.79024406  0.33939131  0.28934468  1
  Zn  Zn77  1  0.77661072  0.36536215  0.83858060  1
  Zn  Zn78  1  0.80913479  0.80976519  0.28855203  1
  Zn  Zn79  1  0.81341128  0.81873652  0.81844543  1
  Zn  Zn80  1  0.19056790  0.43012378  0.45302715  1
  Zn  Zn81  1  0.18964406  0.44048098  0.91388830  1
  Zn  Zn82  1  0.19695658  0.94793584  0.45810696  1
  Zn  Zn83  1  0.14019217  0.94071535  0.93224141  1
  Zn  Zn84  1  0.74420062  0.42934006  0.42342181  1
  Zn  Zn85  1  0.75091401  0.44394780  1.02030906  1
  Zn  Zn86  1  0.68253662  0.93356975  0.42905210  1
  Zn  Zn87  1  0.68749068  0.92070500  0.94115077  1
  Zn  Zn88  1  0.30732237  0.06764183  0.05775658  1
  Zn  Zn89  1  0.34384315  0.07760527  0.55142871  1
  Zn  Zn90  1  0.30894638  0.52907046  0.05790403  1
  Zn  Zn91  1  0.31315630  0.56134954  0.56697084  1
  Zn  Zn92  1  0.78075603  0.07116965  0.09435756  1
  Zn  Zn93  1  0.79011470  0.05404862  0.54955012  1
  Zn  Zn94  1  0.82727554  0.58146235  0.08615010  1
  Zn  Zn95  1  0.81240840  0.56725558  0.54496938  1
  Zn  Zn96  1  0.43794277  0.43223695  0.19361986  1
  Zn  Zn97  1  0.42964782  0.44805726  0.67057200  1
  Zn  Zn98  1  0.42163983  0.94361164  0.18167158  1
  Zn  Zn99  1  0.44707092  0.93939825  0.68926364  1
  Zn  Zn100  1  0.98294054  0.42883866  0.17248525  1
  Zn  Zn101  1  0.94166235  0.44028761  0.65960850  1
  Zn  Zn102  1  0.93301885  0.96234462  0.13160687  1
  Zn  Zn103  1  0.93554126  0.91145873  0.67250234  1
  Zn  Zn104  1  0.05497016  0.05742659  0.27829649  1
  Zn  Zn105  1  0.04190594  0.04340336  0.81696717  1
  Zn  Zn106  1  0.06873209  0.55092883  0.34555280  1
  Zn  Zn107  1  0.05136312  0.53807028  0.79220448  1
  Zn  Zn108  1  0.54721723  0.05081502  0.29400246  1
  Zn  Zn109  1  0.57275572  0.06119631  0.82289957  1
  Zn  Zn110  1  0.55475258  0.55582784  0.30674276  1
  Zn  Zn111  1  0.56823401  0.60043258  0.81753967  1
  Zn  Zn112  1  0.43598699  0.19241724  0.44762644  1
  Zn  Zn113  1  0.44493472  0.19191715  0.93598303  1
  Zn  Zn114  1  0.44286729  0.69624105  0.43147200  1
  Zn  Zn115  1  0.37238448  0.72326808  0.89296119  1
  Zn  Zn116  1  0.92242155  0.18307311  0.58164284  1
  Zn  Zn117  1  0.94731896  0.20056867  0.92867065  1
  Zn  Zn118  1  0.93474322  0.68252321  0.43547355  1
  Zn  Zn119  1  0.94217593  0.69387877  0.82777231  1
  Zn  Zn120  1  0.06796837  0.31619130  0.05982931  1
  Zn  Zn121  1  0.06547414  0.30288363  0.57169044  1
  Zn  Zn122  1  0.06463396  0.81823929  0.08106103  1
  Zn  Zn123  1  0.05895432  0.69604363  0.67684657  1
  Zn  Zn124  1  0.60903812  0.33601708  -0.05663946  1
  Zn  Zn125  1  0.57796975  0.31413266  0.45146120  1
  Zn  Zn126  1  0.53262257  0.82615112  0.08376202  1
  Zn  Zn127  1  0.56952568  0.81640515  0.54948967  1
  O  O128  1  0.11997086  0.13656942  0.11159524  1
  O  O129  1  0.12044422  0.10895269  0.63077793  1
  O  O130  1  0.13468871  0.61356310  0.11622976  1
  O  O131  1  0.13058384  0.63415367  0.61204587  1
  O  O132  1  0.60366067  0.14664582  0.10503514  1
  O  O133  1  0.63102221  0.10849695  0.63613088  1
  O  O134  1  0.60357969  0.64641622  0.07761676  1
  O  O135  1  0.61152548  0.62728672  0.61110127  1
  O  O136  1  0.37222749  0.38100441  0.39213416  1
  O  O137  1  0.38759733  0.37571617  0.87281390  1
  O  O138  1  0.35530936  0.89356822  0.39664092  1
  O  O139  1  0.37981911  0.89852129  0.88147533  1
  O  O140  1  0.90967722  0.35107341  0.36944283  1
  O  O141  1  0.87685743  0.40793927  0.87640278  1
  O  O142  1  0.93110888  0.86803110  0.44724151  1
  O  O143  1  0.87090433  0.88315121  0.89473974  1
  O  O144  1  0.26063675  0.05505779  0.45731671  1
  O  O145  1  0.27169090  0.01960991  0.86894013  1
  O  O146  1  0.26542910  0.50474289  0.38686091  1
  O  O147  1  0.26506417  0.49197890  0.84748169  1
  O  O148  1  0.74746397  -0.00505732  0.35119034  1
  O  O149  1  0.76286316  -0.00338678  0.90058593  1
  O  O150  1  0.78077398  0.45732419  0.31029065  1
  O  O151  1  0.77948831  0.51647388  0.85267586  1
  O  O152  1  0.26185831  0.49367952  0.15316892  1
  O  O153  1  0.26687313  0.47913384  0.63266836  1
  O  O154  1  0.23194232  1.02347754  0.13530076  1
  O  O155  1  0.27851027  1.00682512  0.62506847  1
  O  O156  1  0.75604649  0.48948027  0.12682123  1
  O  O157  1  0.73782946  0.53367092  0.63501958  1
  O  O158  1  0.73051125  0.96884486  0.11699134  1
  O  O159  1  0.73847415  0.97686112  0.61742690  1
  O  O160  1  0.03600596  0.37116449  0.25250582  1
  O  O161  1  0.00773528  0.38247844  0.73571023  1
  O  O162  1  0.04203581  0.87011372  0.26637341  1
  O  O163  1  0.01849829  0.86537819  0.73719598  1
  O  O164  1  0.51589941  0.37034694  0.24617637  1
  O  O165  1  0.51554603  0.36437979  0.73645276  1
  O  O166  1  0.50209259  0.88449278  0.23839428  1
  O  O167  1  0.49725868  0.87586063  0.76908419  1
  O  O168  1  0.49670637  0.13213907  0.22612768  1
  O  O169  1  0.50705283  0.12700480  0.75145663  1
  O  O170  1  0.49860722  0.62465857  0.23732579  1
  O  O171  1  0.49248659  0.62699137  0.72376563  1
  O  O172  1  0.97600927  0.13323932  0.26728915  1
  O  O173  1  0.95103528  0.09971473  0.77608906  1
  O  O174  1  1.03028725  0.64061464  0.26448950  1
  O  O175  1  1.02158857  0.64025575  0.76623420  1
  O  O176  1  0.37218381  0.26865789  -0.01016248  1
  O  O177  1  0.33968115  0.18802633  0.51078170  1
  O  O178  1  0.35662178  0.78550685  -0.00494734  1
  O  O179  1  0.37143097  0.76308068  0.50005137  1
  O  O180  1  0.85687352  0.26558420  0.02877961  1
  O  O181  1  0.84521914  0.22765389  0.51093247  1
  O  O182  1  0.87967773  0.75119957  0.01258211  1
  O  O183  1  0.85473303  0.73903435  0.50244094  1
  O  O184  1  0.13259398  0.22366649  0.50742153  1
  O  O185  1  0.14038948  0.24202568  0.99811773  1
  O  O186  1  0.15081660  0.75199991  0.49595070  1
  O  O187  1  0.13604334  0.73053725  1.03229125  1
  O  O188  1  0.64048649  0.22710580  0.48770095  1
  O  O189  1  0.66441503  0.25404031  1.01513744  1
  O  O190  1  0.63370633  0.74008178  0.49056336  1
  O  O191  1  0.58238314  0.69520823  1.02785650  1
  O  O192  1  0.47743429  0.23555384  0.10099819  1
  O  O193  1  0.53037403  0.23575106  0.63836640  1
  O  O194  1  0.46931170  0.75602254  0.15070139  1
  O  O195  1  0.49716609  0.74688274  0.61484514  1
  O  O196  1  0.97984552  0.24683982  0.11966529  1
  O  O197  1  0.98136356  0.24811680  0.65348751  1
  O  O198  1  1.01802791  0.75391732  0.15953505  1
  O  O199  1  0.97542543  0.75172671  0.61884488  1
  O  O200  1  -0.05635074  0.28788950  0.37837085  1
  O  O201  1  -0.00893202  0.24176948  0.83049842  1
  O  O202  1  0.02933401  0.75421583  0.38651744  1
  O  O203  1  -0.00497249  0.78495541  0.88553602  1
  O  O204  1  0.48726221  0.27556421  0.39876789  1
  O  O205  1  0.55122832  0.23121201  0.92918283  1
  O  O206  1  0.43721579  0.75084693  0.32595470  1
  O  O207  1  0.47860356  0.76447695  0.88418766  1
  O  O208  1  0.21287028  0.11924470  0.47830974  1
  O  O209  1  0.23556727  0.12742226  0.97962775  1
  O  O210  1  0.25070171  0.63371750  0.49857509  1
  O  O211  1  0.24515873  0.62051954  1.02092569  1
  O  O212  1  0.73368576  0.12663742  0.48117295  1
  O  O213  1  0.72143737  0.11353875  1.00549910  1
  O  O214  1  0.73359505  0.63557080  0.49071880  1
  O  O215  1  0.76547582  0.63666033  1.00105615  1
  O  O216  1  0.24220770  0.36325258  -0.01738402  1
  O  O217  1  0.24756312  0.34992142  0.51442170  1
  O  O218  1  0.24839823  0.89900890  -0.02753326  1
  O  O219  1  0.26497174  0.87357512  0.52116105  1
  O  O220  1  0.70955182  0.38728567  -0.06553373  1
  O  O221  1  0.73750387  0.34461427  0.51128027  1
  O  O222  1  0.73900150  0.84572787  0.01015582  1
  O  O223  1  0.73819497  0.85608879  0.49831254  1
  O  O224  1  0.14415630  0.49811285  0.26952991  1
  O  O225  1  0.14172538  0.48985154  0.74443572  1
  O  O226  1  0.15005867  0.98443354  0.26835833  1
  O  O227  1  0.11027937  0.99232950  0.73504648  1
  O  O228  1  0.62093604  0.48259607  0.25189756  1
  O  O229  1  0.61499463  0.52090262  0.73211982  1
  O  O230  1  0.62585060  0.98499432  0.24143321  1
  O  O231  1  0.63231566  0.99458982  0.74615905  1
  O  O232  1  0.38464721  0.02578912  0.26352952  1
  O  O233  1  0.39261035  0.01412754  0.76449712  1
  O  O234  1  0.36542059  0.48371514  0.27297219  1
  O  O235  1  0.37236826  0.49838023  0.75512799  1
  O  O236  1  0.85236400  -0.01306645  0.23131261  1
  O  O237  1  0.86155214  -0.02536669  0.73950445  1
  O  O238  1  0.93988346  0.50677786  0.23821146  1
  O  O239  1  0.87891250  0.51635783  0.72707049  1
  O  O240  1  0.12716249  0.36893259  0.38235759  1
  O  O241  1  0.12399317  0.37742708  0.84867074  1
  O  O242  1  0.15604024  0.86530658  0.38041577  1
  O  O243  1  0.15361759  0.87926028  0.83681620  1
  O  O244  1  0.64086343  0.38002015  0.37690482  1
  O  O245  1  0.54818791  0.38775826  0.79799867  1
  O  O246  1  0.61903984  0.87440117  0.35206786  1
  O  O247  1  0.60466869  0.86522270  0.88743476  1
  O  O248  1  0.37958775  0.13228807  0.12778568  1
  O  O249  1  0.40828951  0.12274049  0.64342302  1
  O  O250  1  0.39260813  0.60995931  0.10115155  1
  O  O251  1  0.38983912  0.64335179  0.60715513  1
  O  O252  1  0.87872071  0.15462893  0.13864464  1
  O  O253  1  0.85060344  0.10812725  0.63710265  1
  O  O254  1  0.87628914  0.63696407  0.17145551  1
  O  O255  1  0.86125944  0.64047071  0.61930718  1
  O  O256  1  0.27104104  0.24208636  0.09264550  1
  O  O257  1  0.25210211  0.25091741  0.62033180  1
  O  O258  1  0.24808188  0.74849339  0.15018455  1
  O  O259  1  0.27461286  0.75052588  0.62014517  1
  O  O260  1  0.77130708  0.25022423  0.14025820  1
  O  O261  1  0.73793863  0.26477299  0.65033521  1
  O  O262  1  0.75019737  0.74678331  0.11701778  1
  O  O263  1  0.74379604  0.75655147  0.61982878  1
  O  O264  1  0.25662734  0.25432190  0.39481283  1
  O  O265  1  0.25829377  0.23466880  0.88010164  1
  O  O266  1  0.25976390  0.73550975  0.38581499  1
  O  O267  1  0.27346488  0.74789939  0.84433467  1
  O  O268  1  0.76983305  0.26144141  0.37272989  1
  O  O269  1  0.66675065  0.28403683  0.82116566  1
  O  O270  1  0.75861020  0.75637255  0.37583611  1
  O  O271  1  0.76405997  0.73822194  0.89257339  1
  O  O272  1  0.03039954  0.13025196  -0.02862429  1
  O  O273  1  0.00008465  0.13457478  0.51137302  1
  O  O274  1  0.03576290  0.61419107  0.00834293  1
  O  O275  1  0.02386999  0.63650370  0.49227994  1
  O  O276  1  0.50728923  0.11136176  0.00161562  1
  O  O277  1  0.51759046  0.13138744  0.51946455  1
  O  O278  1  0.43180613  0.64248377  0.04843529  1
  O  O279  1  0.51082810  0.62989176  0.49698713  1
  O  O280  1  0.51636090  0.39740302  0.50866421  1
  O  O281  1  0.50424394  0.37810091  0.97907329  1
  O  O282  1  0.49205493  0.86009975  0.48095916  1
  O  O283  1  0.47931498  0.88940817  1.00227663  1
  O  O284  1  0.98431219  0.36324526  0.51499521  1
  O  O285  1  0.98828643  0.29963438  0.97866916  1
  O  O286  1  0.99109244  0.89998302  0.47094739  1
  O  O287  1  0.99014558  0.88157952  1.02828971  1
  O  O288  1  0.48861739  0.49930245  0.38442557  1
  O  O289  1  0.48976916  0.52477792  0.86030968  1
  O  O290  1  0.43857993  1.01369753  0.32482789  1
  O  O291  1  0.49684761  0.99682974  0.88818381  1
  O  O292  1  0.99627669  0.49172732  0.40821051  1
  O  O293  1  0.99003478  0.51043245  0.88273064  1
  O  O294  1  0.93935731  1.01184225  0.36484010  1
  O  O295  1  1.02636598  0.95617501  0.89034558  1
  O  O296  1  0.03793128  0.00728665  0.16731981  1
  O  O297  1  -0.00383592  -0.00358814  0.62225268  1
  O  O298  1  0.03875010  0.42314194  0.07730895  1
  O  O299  1  -0.03546457  0.50975706  0.57179702  1
  O  O300  1  0.48833269  0.01678926  0.11253051  1
  O  O301  1  0.52359810  0.00186721  0.63005338  1
  O  O302  1  0.50093273  0.50021984  0.11504014  1
  O  O303  1  0.50528122  0.51598049  0.61146020  1
  O  O304  1  0.23988516  0.37856805  0.26607114  1
  O  O305  1  0.24378716  0.36915060  0.73798010  1
  O  O306  1  0.25996479  0.86433036  0.25760989  1
  O  O307  1  0.26693887  0.88410667  0.72896397  1
  O  O308  1  0.70013010  0.36975420  0.21604591  1
  O  O309  1  0.74781989  0.41739022  0.73522692  1
  O  O310  1  0.73504802  0.87650870  0.23825878  1
  O  O311  1  0.74120033  0.86284481  0.73884605  1
  O  O312  1  0.26132751  0.14203720  0.24040940  1
  O  O313  1  0.27414533  0.13407626  0.75777295  1
  O  O314  1  0.24702659  0.60915415  0.27399825  1
  O  O315  1  0.24956238  0.60657371  0.72983267  1
  O  O316  1  0.73959820  0.09541264  0.20800735  1
  O  O317  1  0.77118077  0.11395684  0.78246803  1
  O  O318  1  0.72158993  0.59773187  0.23754319  1
  O  O319  1  0.75231026  0.62651913  0.76491001  1
  O  O320  1  0.38237948  0.16000018  0.34510056  1
  O  O321  1  0.38559366  0.12189425  0.86676367  1
  O  O322  1  0.36647137  0.61587040  0.38322672  1
  O  O323  1  0.36489406  0.61048925  0.88540426  1
  O  O324  1  0.88898882  0.04812917  0.40782369  1
  O  O325  1  0.84975719  0.14107751  0.91503772  1
  O  O326  1  0.88785212  0.62441195  0.34783345  1
  O  O327  1  0.87282945  0.61784374  0.88246044  1
  O  O328  1  0.13614825  0.31359989  0.15236724  1
  O  O329  1  0.13962370  0.36874984  0.63416573  1
  O  O330  1  0.14390824  0.88460860  0.14174024  1
  O  O331  1  0.15191804  0.90697621  0.62843782  1
  O  O332  1  0.56976373  0.46163219  0.09629117  1
  O  O333  1  0.64692905  0.41014364  0.62074563  1
  O  O334  1  0.62734056  0.85187270  0.14034321  1
  O  O335  1  0.62968915  0.88064428  0.62330894  1
  O  O336  1  0.13542749  0.24242664  0.28281228  1
  O  O337  1  0.12735806  0.25811522  0.74525834  1
  O  O338  1  0.13736200  0.75715132  0.27550796  1
  O  O339  1  0.14133239  0.77228199  0.71629357  1
  O  O340  1  0.62249263  0.25186781  0.26667782  1
  O  O341  1  0.63070591  0.24236581  0.77040713  1
  O  O342  1  0.60155246  0.75010839  0.25302897  1
  O  O343  1  0.60669619  0.70031480  0.77488281  1
  O  O344  1  0.36871638  0.25638895  0.22191735  1
  O  O345  1  0.39265707  0.23895748  0.76026235  1
  O  O346  1  0.30996304  0.72323144  0.17888276  1
  O  O347  1  0.38452659  0.75379915  0.73040417  1
  O  O348  1  0.87861732  0.27771806  0.23557455  1
  O  O349  1  0.85512921  0.29385533  0.76640796  1
  O  O350  1  0.91259224  0.77479037  0.28110383  1
  O  O351  1  0.87383561  0.74975399  0.74302329  1
  O  O352  1  0.39287936  0.50425935  0.49567288  1
  O  O353  1  0.37158919  0.48001458  0.97794698  1
  O  O354  1  0.40372190  0.98902599  0.51243128  1
  O  O355  1  0.38011935  1.00752731  0.98685370  1
  O  O356  1  0.83780712  0.47673815  0.47689755  1
  O  O357  1  0.86016088  0.50091326  1.00539141  1
  O  O358  1  0.87796298  1.01412144  0.48006867  1
  O  O359  1  0.88414175  1.03856963  1.06320632  1
  O  O360  1  0.12442738  0.01070656  0.02151027  1
  O  O361  1  0.11353204  0.00939319  0.51401464  1
  O  O362  1  0.14775785  0.52572348  -0.01461682  1
  O  O363  1  0.13634176  0.51739040  0.50050261  1
  O  O364  1  0.60681094  -0.01337485  0.00249547  1
  O  O365  1  0.63138334  0.01306493  0.50129620  1
  O  O366  1  0.60876467  0.49077399  0.03808021  1
  O  O367  1  0.61513249  0.52055616  0.50380693  1
  O  O368  1  0.38543509  0.36919882  0.10300775  1
  O  O369  1  0.36645860  0.36192514  0.63055479  1
  O  O370  1  0.34897980  0.90232633  0.10692713  1
  O  O371  1  0.38125575  0.87044025  0.61663647  1
  O  O372  1  0.88600341  0.36454336  0.13057924  1
  O  O373  1  0.84662995  0.38257766  0.62022819  1
  O  O374  1  0.85201422  0.87188136  0.12884504  1
  O  O375  1  0.85215880  0.85559698  0.61835410  1
  O  O376  1  0.08773456  0.10013913  0.38330727  1
  O  O377  1  0.14123531  0.10912225  0.85279880  1
  O  O378  1  0.14440061  0.63867958  0.39101177  1
  O  O379  1  0.14330649  0.65663934  0.91216507  1
  O  O380  1  0.59907247  0.10902496  0.37760143  1
  O  O381  1  0.64900390  0.12359508  0.88643808  1
  O  O382  1  0.61701514  0.62264469  0.37835712  1
  O  O383  1  0.65831545  0.60578038  0.89499659  1
