# generated using pymatgen
data_VZnO4
_symmetry_space_group_name_H-M   'P 1'
_cell_length_a   16.92786308
_cell_length_b   16.94808826
_cell_length_c   17.00064726
_cell_angle_alpha   89.91659549
_cell_angle_beta   89.96077835
_cell_angle_gamma   90.01399896
_symmetry_Int_Tables_number   1
_chemical_formula_structural   VZnO4
_chemical_formula_sum   'V64 Zn64 O256'
_cell_volume   4877.39283482
_cell_formula_units_Z   64
loop_
 _symmetry_equiv_pos_site_id
 _symmetry_equiv_pos_as_xyz
  1  'x, y, z'
loop_
 _atom_site_type_symbol
 _atom_site_label
 _atom_site_symmetry_multiplicity
 _atom_site_fract_x
 _atom_site_fract_y
 _atom_site_fract_z
 _atom_site_occupancy
  V  V0  1  0.37601993  0.23347179  0.60730238  1
  V  V1  1  0.75852803  0.76700324  -0.01543766  1
  V  V2  1  0.00425588  0.25848377  0.24879329  1
  V  V3  1  0.53908312  0.49845621  0.54476700  1
  V  V4  1  0.36058609  0.24934879  0.12136911  1
  V  V5  1  0.87222134  0.75457518  0.61180029  1
  V  V6  1  0.11707246  0.86099430  0.74784351  1
  V  V7  1  0.25152323  0.51615258  0.74800408  1
  V  V8  1  0.87140352  0.39381513  0.50394374  1
  V  V9  1  0.00342870  0.88293359  0.89832974  1
  V  V10  1  0.24366545  0.00385652  0.76351471  1
  V  V11  1  0.83683081  0.61062197  0.25569892  1
  V  V12  1  0.48158285  0.23062098  0.74607367  1
  V  V13  1  0.12528630  0.24222758  0.39567629  1
  V  V14  1  0.88326174  -0.01238921  0.36862483  1
  V  V15  1  0.85920159  0.76569879  0.12983772  1
  V  V16  1  0.70396294  0.07133577  0.32130787  1
  V  V17  1  0.74100890  0.50703399  0.75459108  1
  V  V18  1  0.49648410  0.73459002  0.74636156  1
  V  V19  1  0.00192477  0.63190593  0.62090412  1
  V  V20  1  0.37107467  0.51026250  0.87017797  1
  V  V21  1  0.40526501  0.46933557  0.35066422  1
  V  V22  1  0.87634660  0.12617159  0.72641783  1
  V  V23  1  0.12757653  0.54111635  0.11885175  1
  V  V24  1  0.24560817  0.00816951  0.22010999  1
  V  V25  1  0.62986720  0.27037676  0.37036305  1
  V  V26  1  0.51116833  0.64227935  0.12071958  1
  V  V27  1  0.49841214  0.36437121  0.87339385  1
  V  V28  1  0.35693008  0.13676469  0.27576996  1
  V  V29  1  0.12432114  0.63352181  0.48993442  1
  V  V30  1  0.22968610  0.38153786  0.12794299  1
  V  V31  1  -0.00798117  0.73422761  0.25538230  1
  V  V32  1  0.62533455  0.87012112  0.75708396  1
  V  V33  1  0.00700070  0.50084005  -0.00758347  1
  V  V34  1  0.61687482  0.11674226  0.49920842  1
  V  V35  1  0.12102546  0.02089677  0.61960475  1
  V  V36  1  0.88570903  0.63248276  0.76197198  1
  V  V37  1  0.38720638  0.85943135  0.01538087  1
  V  V38  1  0.00651337  0.11602489  0.12541464  1
  V  V39  1  0.50097786  0.14035532  0.13577388  1
  V  V40  1  0.75469287  -0.00023204  0.75872921  1
  V  V41  1  0.64577241  0.62634531  -0.02217641  1
  V  V42  1  0.34984425  0.38380914  0.00117976  1
  V  V43  1  0.11186833  0.88866991  0.25127243  1
  V  V44  1  0.74354314  0.24522104  -0.00625305  1
  V  V45  1  0.76323104  0.23806945  0.50835010  1
  V  V46  1  -0.00952835  0.38202924  0.38206086  1
  V  V47  1  0.39241982  -0.00665471  0.87626807  1
  V  V48  1  -0.00864460  0.00548354  0.50504820  1
  V  V49  1  0.74837947  0.87723021  0.60999781  1
  V  V50  1  0.87389293  0.13323252  0.25860472  1
  V  V51  1  0.26972717  0.37469296  0.62570679  1
  V  V52  1  0.51172656  0.49933776  -0.00076681  1
  V  V53  1  0.24619405  0.86732225  0.61201273  1
  V  V54  1  0.12641320  0.74194259  0.90009128  1
  V  V55  1  0.27898083  0.65160603  0.37824267  1
  V  V56  1  0.75112630  0.36484803  0.63530014  1
  V  V57  1  0.48185049  0.85467778  0.39952977  1
  V  V58  1  0.63106128  0.74995973  0.39816984  1
  V  V59  1  0.88523219  0.46815987  0.86902562  1
  V  V60  1  0.23109403  0.49418131  0.26680566  1
  V  V61  1  0.12096898  0.24970954  0.86851435  1
  V  V62  1  0.11909016  0.49198268  0.62699454  1
  V  V63  1  0.62012793  0.35098455  0.74238199  1
  Zn  Zn64  1  0.18419767  0.19755511  0.19682646  1
  Zn  Zn65  1  0.20338098  0.18549505  0.68193205  1
  Zn  Zn66  1  0.17788184  0.68962070  0.22991147  1
  Zn  Zn67  1  0.18928915  0.69053400  0.68329089  1
  Zn  Zn68  1  0.69163395  0.20721031  0.18998756  1
  Zn  Zn69  1  0.68043829  0.17087864  0.67677734  1
  Zn  Zn70  1  0.71700097  0.64879936  0.14154157  1
  Zn  Zn71  1  0.70206867  0.69964950  0.70594625  1
  Zn  Zn72  1  0.30465670  0.31669039  0.31593251  1
  Zn  Zn73  1  0.31085390  0.32014943  0.80507135  1
  Zn  Zn74  1  0.27548120  0.85545215  0.34970011  1
  Zn  Zn75  1  0.30834744  0.80132120  0.81316966  1
  Zn  Zn76  1  0.80283181  0.30819253  0.31998747  1
  Zn  Zn77  1  0.89898854  0.25358756  0.85495581  1
  Zn  Zn78  1  0.83589706  0.77868820  0.34575937  1
  Zn  Zn79  1  0.82650268  0.81745932  0.80457054  1
  Zn  Zn80  1  0.16913631  0.42332444  0.45386706  1
  Zn  Zn81  1  0.19824881  0.57365923  0.93706660  1
  Zn  Zn82  1  0.13014269  0.90845820  0.45195603  1
  Zn  Zn83  1  0.22505554  0.89802787  0.92136473  1
  Zn  Zn84  1  0.68250255  0.42890741  0.45276088  1
  Zn  Zn85  1  0.68551236  0.43327168  0.92025219  1
  Zn  Zn86  1  0.68139484  0.92673622  0.43037657  1
  Zn  Zn87  1  0.81955445  0.93986544  0.93515336  1
  Zn  Zn88  1  0.35825630  0.04195236  0.06848460  1
  Zn  Zn89  1  0.33771341  0.02268973  0.59840541  1
  Zn  Zn90  1  0.32322518  0.66763083  0.05925947  1
  Zn  Zn91  1  0.29109609  0.52001656  0.52298532  1
  Zn  Zn92  1  0.81769315  0.06766320  0.07950601  1
  Zn  Zn93  1  0.81237811  0.05478383  0.55875570  1
  Zn  Zn94  1  0.85100228  0.58177486  0.03787219  1
  Zn  Zn95  1  0.81036403  0.55780532  0.58073072  1
  Zn  Zn96  1  0.38810726  0.50349835  0.15178954  1
  Zn  Zn97  1  0.44223747  0.44185067  0.68961526  1
  Zn  Zn98  1  0.43039493  0.95395578  0.19594412  1
  Zn  Zn99  1  0.41281948  0.89043005  0.71178968  1
  Zn  Zn100  1  0.95749618  0.45583890  0.19908246  1
  Zn  Zn101  1  0.92965302  0.44247583  0.68208465  1
  Zn  Zn102  1  0.93406638  0.94206639  0.18436472  1
  Zn  Zn103  1  0.93815225  0.93927268  0.69064489  1
  Zn  Zn104  1  0.06320592  0.06621486  0.31401246  1
  Zn  Zn105  1  0.05780494  0.05605284  0.80564126  1
  Zn  Zn106  1  0.05375780  0.55850657  0.31372593  1
  Zn  Zn107  1  0.06220107  0.56575458  0.80888645  1
  Zn  Zn108  1  0.52953104  0.08301755  0.33618602  1
  Zn  Zn109  1  0.57357293  0.04256477  0.81127082  1
  Zn  Zn110  1  0.61860598  0.57791682  0.28260587  1
  Zn  Zn111  1  0.55259707  0.56175245  0.80597542  1
  Zn  Zn112  1  0.45158673  0.21389364  0.42419443  1
  Zn  Zn113  1  0.48347657  0.15255489  0.92623080  1
  Zn  Zn114  1  0.49290180  0.63004658  0.39679422  1
  Zn  Zn115  1  0.44428108  0.69253198  0.93170616  1
  Zn  Zn116  1  0.93963349  0.18271567  0.43539245  1
  Zn  Zn117  1  0.94967535  0.06972262  0.94721649  1
  Zn  Zn118  1  0.93241283  0.66956915  0.43310181  1
  Zn  Zn119  1  0.94891151  0.69544495  0.94737532  1
  Zn  Zn120  1  0.04807730  0.31205195  0.05919301  1
  Zn  Zn121  1  0.05845355  0.31593001  0.56052004  1
  Zn  Zn122  1  0.06298814  0.80857086  0.08014671  1
  Zn  Zn123  1  0.05481349  0.81447430  0.56300976  1
  Zn  Zn124  1  0.53776556  0.29679946  0.06477865  1
  Zn  Zn125  1  0.55693103  0.30931940  0.55789401  1
  Zn  Zn126  1  0.57126583  0.81348590  -0.07194357  1
  Zn  Zn127  1  0.56355146  0.80927606  0.56906122  1
  O  O128  1  0.10521194  0.13912154  0.14003823  1
  O  O129  1  0.12458667  0.11950280  0.63085591  1
  O  O130  1  0.12719445  0.63810080  0.13700523  1
  O  O131  1  0.11249970  0.62284793  0.62288999  1
  O  O132  1  0.59710510  0.14975085  0.16226712  1
  O  O133  1  0.60594453  0.13034708  0.59869168  1
  O  O134  1  0.62119734  0.61838193  0.08721756  1
  O  O135  1  0.66276165  0.63332326  0.60567138  1
  O  O136  1  0.40196669  0.36710630  0.34737630  1
  O  O137  1  0.37577411  0.37723150  0.88388907  1
  O  O138  1  0.38033554  0.85303668  0.38973514  1
  O  O139  1  0.34584734  0.88042665  0.89000680  1
  O  O140  1  0.87691226  0.36686048  0.39811439  1
  O  O141  1  0.89278159  0.37032516  0.85616383  1
  O  O142  1  0.86843019  0.89029980  0.36226222  1
  O  O143  1  0.89936249  0.87566420  0.87491125  1
  O  O144  1  0.28466154  0.01742497  0.42887784  1
  O  O145  1  0.22908340  -0.00024130  0.86354106  1
  O  O146  1  0.21682640  0.47494396  0.36194510  1
  O  O147  1  0.25827502  0.50593789  0.86096724  1
  O  O148  1  0.76015655  0.00010304  0.37383748  1
  O  O149  1  0.75436422  -0.00412543  0.85807019  1
  O  O150  1  0.74773702  0.47033041  0.35254845  1
  O  O151  1  0.76859257  0.47957383  0.85546455  1
  O  O152  1  0.22909949  0.49512164  0.13953186  1
  O  O153  1  0.24835581  0.49791043  0.63462930  1
  O  O154  1  0.25804991  1.01136475  0.12205471  1
  O  O155  1  0.22794266  0.99279796  0.63199950  1
  O  O156  1  0.80102574  0.43858038  0.12174355  1
  O  O157  1  0.76068387  0.48094855  0.65191563  1
  O  O158  1  0.72023112  1.01745175  0.12033916  1
  O  O159  1  0.76324611  0.97930092  0.62949062  1
  O  O160  1  -0.02081650  0.36588297  0.26954089  1
  O  O161  1  -0.01348680  0.33617593  0.71176854  1
  O  O162  1  0.01091121  0.88784789  0.25585695  1
  O  O163  1  0.01524257  0.88344029  0.75822624  1
  O  O164  1  0.59081948  0.40875907  0.19723985  1
  O  O165  1  0.50512324  0.36433591  0.75479795  1
  O  O166  1  0.49021410  0.91621538  0.28933112  1
  O  O167  1  0.52529286  0.87843052  0.73658367  1
  O  O168  1  0.46233499  0.13128260  0.24893799  1
  O  O169  1  0.49842335  0.13425414  0.75283290  1
  O  O170  1  0.53612065  0.61901787  0.21592658  1
  O  O171  1  0.48743623  0.63439838  0.75117863  1
  O  O172  1  0.99074986  0.14190605  0.25122336  1
  O  O173  1  0.97781661  0.11279341  0.74917137  1
  O  O174  1  0.99075003  0.63353101  0.25296386  1
  O  O175  1  0.99130587  0.62125847  0.73595726  1
  O  O176  1  0.36767512  0.27906270  0.01715909  1
  O  O177  1  0.39156130  0.25415255  0.51090853  1
  O  O178  1  0.37435663  0.74900000  0.00170507  1
  O  O179  1  0.38541600  0.68814509  0.57748153  1
  O  O180  1  0.84518296  0.25472354  -0.02953467  1
  O  O181  1  0.86415454  0.24118565  0.50630714  1
  O  O182  1  0.86772042  0.74347514  0.01913682  1
  O  O183  1  0.87535321  0.73641202  0.51354121  1
  O  O184  1  0.11452158  0.24422874  0.49769499  1
  O  O185  1  0.11601830  0.25501106  0.97198310  1
  O  O186  1  0.12151046  0.73161930  0.50912696  1
  O  O187  1  0.12533776  0.75038818  0.99963676  1
  O  O188  1  0.62474378  0.24310124  0.48855109  1
  O  O189  1  0.64014000  0.25368278  1.01504114  1
  O  O190  1  0.63264071  0.74978203  0.49749286  1
  O  O191  1  0.64853284  0.73728045  0.98057413  1
  O  O192  1  0.46333919  0.25899028  0.14864308  1
  O  O193  1  0.48358108  0.24966421  0.63566892  1
  O  O194  1  0.50948048  0.73772715  0.11241892  1
  O  O195  1  0.51138006  0.74568373  0.64508145  1
  O  O196  1  0.99499360  0.26081876  0.14635807  1
  O  O197  1  0.99876235  0.28257977  0.66020270  1
  O  O198  1  0.97677974  0.75892021  0.14587233  1
  O  O199  1  0.99107260  0.73731218  0.62442873  1
  O  O200  1  0.00138124  0.25636435  0.37133037  1
  O  O201  1  0.01621293  0.25261870  0.86405932  1
  O  O202  1  -0.04267133  0.75438335  0.35325820  1
  O  O203  1  0.01592665  0.76345315  0.88440549  1
  O  O204  1  0.53556558  0.23965849  0.34887617  1
  O  O205  1  0.48583713  0.25959358  0.86065305  1
  O  O206  1  0.50992248  0.75456932  0.38133400  1
  O  O207  1  0.50766923  0.74751889  0.85714504  1
  O  O208  1  0.34596274  0.01098456  0.46914769  1
  O  O209  1  0.17579399  0.07678580  1.01194014  1
  O  O210  1  0.23856638  0.61870811  0.47549439  1
  O  O211  1  0.24219058  0.60046449  1.03335233  1
  O  O212  1  0.74045903  0.13595579  0.51402525  1
  O  O213  1  0.74782643  0.14143916  1.00934550  1
  O  O214  1  0.71592739  0.62777170  0.55287629  1
  O  O215  1  0.74657780  0.61599643  0.99089013  1
  O  O216  1  0.25050680  0.39199285  0.00660784  1
  O  O217  1  0.25426597  0.39807909  0.52409041  1
  O  O218  1  0.27212391  0.86538455  0.01644824  1
  O  O219  1  0.22622251  0.87420604  0.51385142  1
  O  O220  1  0.73991180  0.34951621  -0.01559702  1
  O  O221  1  0.75943137  0.36625821  0.51666573  1
  O  O222  1  0.75231889  0.86546612  -0.00817530  1
  O  O223  1  0.75055530  0.87756482  0.51085517  1
  O  O224  1  0.12771327  0.51456844  0.23655005  1
  O  O225  1  0.13966536  0.50929103  0.73847734  1
  O  O226  1  0.13412846  0.99842703  0.24858536  1
  O  O227  1  0.12729610  0.99448358  0.73848261  1
  O  O228  1  0.64063766  0.46517804  0.21016524  1
  O  O229  1  0.64084514  0.50261550  0.75833662  1
  O  O230  1  0.62319737  1.02858995  0.28189633  1
  O  O231  1  0.64320866  0.98655093  0.74263255  1
  O  O232  1  0.35264304  0.02638823  0.25214822  1
  O  O233  1  0.35431117  -0.01933712  0.76789635  1
  O  O234  1  0.34663203  0.49921506  0.26162133  1
  O  O235  1  0.36604464  0.49467461  0.76253156  1
  O  O236  1  0.88324730  0.01304912  0.26361028  1
  O  O237  1  0.86414770  0.00791623  0.74550143  1
  O  O238  1  0.87668009  0.51861810  0.24835352  1
  O  O239  1  0.88011798  0.50809489  0.76185897  1
  O  O240  1  0.09425303  0.36381976  0.39556425  1
  O  O241  1  0.11671821  0.35181895  0.85359337  1
  O  O242  1  0.15663144  0.87581003  0.34977065  1
  O  O243  1  0.11953244  0.86410098  0.86907883  1
  O  O244  1  0.61770427  0.36887458  0.38465555  1
  O  O245  1  0.60693412  0.37351987  0.85647735  1
  O  O246  1  0.60629347  0.85910180  0.38042759  1
  O  O247  1  0.63343072  0.87738275  0.85686103  1
  O  O248  1  0.35581643  0.14996863  0.10858280  1
  O  O249  1  0.36040982  0.13442658  0.61022158  1
  O  O250  1  0.40427806  0.61268854  0.12142492  1
  O  O251  1  0.37176447  0.62220738  0.60334858  1
  O  O252  1  0.88608469  0.12290248  0.15089727  1
  O  O253  1  0.87466122  0.12414466  0.62705050  1
  O  O254  1  0.84001657  0.62788876  0.14040269  1
  O  O255  1  0.88720158  0.62770708  0.63040171  1
  O  O256  1  0.24963992  0.27303579  0.12873779  1
  O  O257  1  0.26507870  0.26451561  0.62640193  1
  O  O258  1  0.27609016  0.73822710  0.16486985  1
  O  O259  1  0.25378866  0.76827133  0.63072954  1
  O  O260  1  0.75805194  0.24724732  0.09932378  1
  O  O261  1  0.74017885  0.25727176  0.61857350  1
  O  O262  1  0.75279585  0.75505900  0.10785791  1
  O  O263  1  0.76705831  0.75982097  0.62974131  1
  O  O264  1  0.22138813  0.27209578  0.37723273  1
  O  O265  1  0.22636933  0.25323832  0.87508340  1
  O  O266  1  0.24696377  0.74378359  0.36361711  1
  O  O267  1  0.22606281  0.75259701  0.87379858  1
  O  O268  1  0.74595831  0.26272195  0.40905888  1
  O  O269  1  0.71766747  0.22405878  0.89695391  1
  O  O270  1  0.72623475  0.76139265  0.36218193  1
  O  O271  1  0.77957393  0.75158315  0.88782170  1
  O  O272  1  -0.00729475  0.13891399  0.02707232  1
  O  O273  1  -0.00334216  0.10626689  0.49859346  1
  O  O274  1  -0.03472330  0.59934549  0.01119016  1
  O  O275  1  0.00425899  0.62032227  0.51428272  1
  O  O276  1  0.50536935  0.17468166  0.03611581  1
  O  O277  1  0.52091263  0.11887056  0.44982409  1
  O  O278  1  0.50896787  0.60865359  -0.00442604  1
  O  O279  1  0.49382054  0.57647157  0.49814979  1
  O  O280  1  0.50599075  0.40441729  0.51765358  1
  O  O281  1  0.50530570  0.37482475  0.98052736  1
  O  O282  1  0.49606931  0.86956335  0.49871447  1
  O  O283  1  0.48460294  0.85765074  0.98420038  1
  O  O284  1  0.97830136  0.37527431  0.50134264  1
  O  O285  1  0.99508934  0.40170339  1.01325891  1
  O  O286  1  1.02155240  0.89508095  0.49146987  1
  O  O287  1  1.01064957  0.87541004  0.99716896  1
  O  O288  1  0.49616544  0.51378300  0.34080779  1
  O  O289  1  0.48733736  0.48404431  0.87076906  1
  O  O290  1  0.48620143  0.96702810  0.35484487  1
  O  O291  1  0.48812920  0.97573278  0.85755353  1
  O  O292  1  0.99425980  0.48154471  0.37266091  1
  O  O293  1  0.99729477  0.49874845  0.88211736  1
  O  O294  1  0.99039583  1.00218565  0.38282146  1
  O  O295  1  1.01411811  0.99040979  0.88902036  1
  O  O296  1  0.00301291  0.01497978  0.13055383  1
  O  O297  1  0.00783019  -0.00302698  0.61514996  1
  O  O298  1  0.02640328  0.50628914  0.12436369  1
  O  O299  1  0.01377157  0.50597300  0.63386912  1
  O  O300  1  0.47018528  0.04097820  0.12402712  1
  O  O301  1  0.51248945  -0.00400005  0.62986926  1
  O  O302  1  0.49881890  0.48556446  0.09652254  1
  O  O303  1  0.51795954  0.50989917  0.64544708  1
  O  O304  1  0.24057769  0.38612572  0.23694972  1
  O  O305  1  0.25247578  0.38961437  0.73279099  1
  O  O306  1  0.26154881  0.91038014  0.24781673  1
  O  O307  1  0.23063610  0.88223577  0.74524570  1
  O  O308  1  0.75955380  0.42338452  0.29505150  1
  O  O309  1  0.72728301  0.36972517  0.74737405  1
  O  O310  1  0.67101359  0.88002381  0.19287555  1
  O  O311  1  0.75074856  0.88042914  0.74291892  1
  O  O312  1  0.24612021  0.11741230  0.25277436  1
  O  O313  1  0.25160649  0.10274149  0.74404403  1
  O  O314  1  0.24230148  0.60992629  0.28387890  1
  O  O315  1  0.25722244  0.61534339  0.73929181  1
  O  O316  1  0.76040050  0.12303151  0.24526364  1
  O  O317  1  0.75336039  0.10572492  0.73568534  1
  O  O318  1  0.73068891  0.60311353  0.24886158  1
  O  O319  1  0.76709494  0.61107668  0.74684063  1
  O  O320  1  0.36368925  0.15054987  0.37306769  1
  O  O321  1  0.38971575  0.09479826  0.89146561  1
  O  O322  1  0.37724050  0.65291701  0.37881746  1
  O  O323  1  0.37979917  0.60750625  0.88057665  1
  O  O324  1  0.87234825  0.11444931  0.36500283  1
  O  O325  1  0.90027570  0.13822102  0.86995830  1
  O  O326  1  0.85341197  0.63359101  0.35544250  1
  O  O327  1  0.89090607  0.63213604  0.86026141  1
  O  O328  1  0.13232839  0.37260888  0.11106146  1
  O  O329  1  0.12818047  0.39020316  0.62095482  1
  O  O330  1  0.13389719  0.85865705  0.15661853  1
  O  O331  1  0.12650494  0.87466583  0.63696355  1
  O  O332  1  0.61463489  0.35851408  0.13788471  1
  O  O333  1  0.62906842  0.36888312  0.63869614  1
  O  O334  1  0.60491810  0.98090875  0.06442135  1
  O  O335  1  0.64703718  0.86617352  0.63183090  1
  O  O336  1  0.10596058  0.25937861  0.26225412  1
  O  O337  1  0.13307518  0.23707563  0.76465704  1
  O  O338  1  0.09418131  0.75616726  0.26472813  1
  O  O339  1  0.12102918  0.75951558  0.74826979  1
  O  O340  1  0.68646934  0.27516071  0.27763158  1
  O  O341  1  0.60917760  0.24912047  0.74141371  1
  O  O342  1  0.61118504  0.84235565  0.20587998  1
  O  O343  1  0.62107510  0.75869286  0.75275531  1
  O  O344  1  0.34357146  0.23729590  0.23839074  1
  O  O345  1  0.37773282  0.24633059  0.74191102  1
  O  O346  1  0.33144634  0.76755408  0.20541360  1
  O  O347  1  0.39591095  0.77746218  0.74654633  1
  O  O348  1  0.87660895  0.23939477  0.26445851  1
  O  O349  1  0.85838673  0.22540886  0.75288662  1
  O  O350  1  0.86167877  0.73285088  0.23613036  1
  O  O351  1  0.87373053  0.73365580  0.73724402  1
  O  O352  1  0.35890989  0.50041484  0.43448143  1
  O  O353  1  0.38963032  0.48677039  0.98272203  1
  O  O354  1  0.47216007  1.02065296  0.57449302  1
  O  O355  1  0.38042221  0.97526378  0.98501333  1
  O  O356  1  0.86023046  0.49331580  0.50060229  1
  O  O357  1  0.87196037  0.48770391  0.96895753  1
  O  O358  1  0.88439431  0.99653160  0.48767840  1
  O  O359  1  0.87085187  1.01141937  1.00172883  1
  O  O360  1  0.12748172  0.02378583  0.00573619  1
  O  O361  1  0.11899227  0.01005691  0.51534252  1
  O  O362  1  0.11171071  0.51957043  0.00671691  1
  O  O363  1  0.13248636  0.51623900  0.52236777  1
  O  O364  1  0.67602612  0.00013560  0.05399532  1
  O  O365  1  0.63705701  0.01906156  0.48649678  1
  O  O366  1  0.61630208  0.49759425  -0.01603325  1
  O  O367  1  0.64082947  0.50131597  0.52271807  1
  O  O368  1  0.35385812  0.39455351  0.11239335  1
  O  O369  1  0.37129060  0.37460919  0.62762071  1
  O  O370  1  0.39664537  0.88198248  0.11485630  1
  O  O371  1  0.34813161  0.90607876  0.61786612  1
  O  O372  1  0.86283632  0.39850643  0.12948514  1
  O  O373  1  0.86485968  0.37562152  0.61482680  1
  O  O374  1  0.86086941  0.86552817  0.14080907  1
  O  O375  1  0.87893180  0.85829325  0.62552961  1
  O  O376  1  0.12049431  0.14361648  0.37355506  1
  O  O377  1  0.11366836  0.14404373  0.86895546  1
  O  O378  1  0.10330757  0.62358390  0.39307660  1
  O  O379  1  0.11914949  0.63606870  0.87878383  1
  O  O380  1  0.66023712  0.14117710  0.38127184  1
  O  O381  1  0.58400849  0.11558145  0.89187585  1
  O  O382  1  0.60922719  0.64657999  0.37178811  1
  O  O383  1  0.62398954  0.61391732  0.88072697  1
