# generated using pymatgen
data_VZnO4
_symmetry_space_group_name_H-M   'P 1'
_cell_length_a   16.94452888
_cell_length_b   16.96532363
_cell_length_c   16.92970212
_cell_angle_alpha   90.25309252
_cell_angle_beta   90.17021116
_cell_angle_gamma   89.85991306
_symmetry_Int_Tables_number   1
_chemical_formula_structural   VZnO4
_chemical_formula_sum   'V64 Zn64 O256'
_cell_volume   4866.68823696
_cell_formula_units_Z   64
loop_
 _symmetry_equiv_pos_site_id
 _symmetry_equiv_pos_as_xyz
  1  'x, y, z'
loop_
 _atom_site_type_symbol
 _atom_site_label
 _atom_site_symmetry_multiplicity
 _atom_site_fract_x
 _atom_site_fract_y
 _atom_site_fract_z
 _atom_site_occupancy
  V  V0  1  0.78847389  0.12473909  0.84852950  1
  V  V1  1  0.12412680  0.87811392  0.25515946  1
  V  V2  1  0.62407272  0.88816976  0.22793302  1
  V  V3  1  0.13736221  0.11027155  0.00336814  1
  V  V4  1  0.61400720  0.62337399  0.01431466  1
  V  V5  1  0.49953904  0.36886216  0.88370482  1
  V  V6  1  -0.00948166  0.37489694  0.87047920  1
  V  V7  1  0.76764270  0.12470584  0.37667551  1
  V  V8  1  0.86747870  0.76357311  0.11205125  1
  V  V9  1  0.49235391  0.61490159  0.62118789  1
  V  V10  1  0.89236615  0.62411226  0.76942722  1
  V  V11  1  0.50256034  0.49111010  0.01521752  1
  V  V12  1  0.36259888  0.25051360  0.11932542  1
  V  V13  1  0.14138022  0.37635192  0.75199120  1
  V  V14  1  0.83410496  0.59682242  0.24017149  1
  V  V15  1  0.37129891  -0.00429932  0.89388021  1
  V  V16  1  0.76150404  -0.00598543  0.22623586  1
  V  V17  1  0.24302154  -0.00780430  0.74920527  1
  V  V18  1  0.12508150  0.74180379  0.88644771  1
  V  V19  1  -0.01812327  0.25500446  0.23648499  1
  V  V20  1  0.03278012  0.63617989  0.10891123  1
  V  V21  1  0.14012159  0.25680091  0.89044463  1
  V  V22  1  0.36446887  0.64812846  0.76402788  1
  V  V23  1  0.76649535  0.50075885  0.75329767  1
  V  V24  1  0.33150415  0.24659322  0.60699070  1
  V  V25  1  0.63494166  0.13214976  0.50028035  1
  V  V26  1  0.25038116  0.87589490  0.61452417  1
  V  V27  1  0.75439558  0.34641053  0.63550840  1
  V  V28  1  0.62333738  -0.02167335  0.62763617  1
  V  V29  1  0.25377990  0.86927577  0.12111901  1
  V  V30  1  0.36158826  0.62302466  0.25253945  1
  V  V31  1  0.61238738  0.38422602  0.75198706  1
  V  V32  1  0.90233349  0.37762449  0.47331781  1
  V  V33  1  0.51453042  0.86719569  0.38624918  1
  V  V34  1  0.68749283  0.63388816  0.47432058  1
  V  V35  1  0.61611151  0.21996445  0.87804198  1
  V  V36  1  0.51453941  0.74145149  0.24820639  1
  V  V37  1  0.11855239  0.25515752  0.36413549  1
  V  V38  1  0.50194501  0.01607672  0.50300258  1
  V  V39  1  0.36288225  0.49141719  0.86487410  1
  V  V40  1  0.00464431  0.60782251  0.61155335  1
  V  V41  1  0.75636946  -0.01633278  0.74589315  1
  V  V42  1  0.01557848  0.76022534  0.74581640  1
  V  V43  1  0.24727181  0.00200030  0.25167634  1
  V  V44  1  0.87132325  0.74592520  0.62016666  1
  V  V45  1  0.13169169  0.48076964  0.12779816  1
  V  V46  1  0.76578533  0.24528798  -0.00826897  1
  V  V47  1  0.37787198  0.75700735  0.60012708  1
  V  V48  1  0.35326840  0.37587000  0.00509998  1
  V  V49  1  -0.00520425  0.49976163  -0.00317157  1
  V  V50  1  0.38522183  0.12315011  0.25573164  1
  V  V51  1  0.14349629  0.49651373  0.62454984  1
  V  V52  1  0.51129506  0.03480024  0.01676499  1
  V  V53  1  0.71920546  0.63030017  0.86995470  1
  V  V54  1  -0.00084506  0.74930869  0.25548037  1
  V  V55  1  0.14690081  0.12525351  0.49431156  1
  V  V56  1  0.35940353  0.12503156  0.75904977  1
  V  V57  1  0.15156412  0.74360602  0.38259712  1
  V  V58  1  0.38254243  0.75280859  0.11685503  1
  V  V59  1  -0.00299542  0.10975465  0.12052008  1
  V  V60  1  0.88363382  -0.02479911  0.40312614  1
  V  V61  1  0.49859137  0.22903315  0.73666718  1
  V  V62  1  0.07501783  -0.05452899  0.56965851  1
  V  V63  1  0.37258696  -0.01086717  0.38525900  1
  Zn  Zn64  1  0.17915877  0.18804835  0.18384661  1
  Zn  Zn65  1  0.15663908  0.17818507  0.69435329  1
  Zn  Zn66  1  0.19410997  0.69749710  0.19515399  1
  Zn  Zn67  1  0.19169441  0.68739194  0.67912900  1
  Zn  Zn68  1  0.73566032  0.17608027  0.18101731  1
  Zn  Zn69  1  0.67875284  0.17081708  0.69078482  1
  Zn  Zn70  1  0.69152097  0.69933460  0.17744529  1
  Zn  Zn71  1  0.69715661  0.64067330  0.65315872  1
  Zn  Zn72  1  0.28068858  0.29961524  0.28300866  1
  Zn  Zn73  1  0.31343728  0.31031946  0.81049348  1
  Zn  Zn74  1  0.32382624  0.81125916  0.30760908  1
  Zn  Zn75  1  0.30374163  0.82552279  0.82683101  1
  Zn  Zn76  1  0.81629934  0.30616403  0.32161059  1
  Zn  Zn77  1  0.78723307  0.33379060  0.84867982  1
  Zn  Zn78  1  0.83525598  0.84637826  0.28914641  1
  Zn  Zn79  1  0.80638113  0.80150241  0.80775135  1
  Zn  Zn80  1  0.07148217  0.45027214  0.43268813  1
  Zn  Zn81  1  0.17714413  0.44840000  0.94030057  1
  Zn  Zn82  1  0.18596709  0.93008874  0.43370995  1
  Zn  Zn83  1  0.19940704  0.92474342  0.92930504  1
  Zn  Zn84  1  0.72747627  0.45497114  0.47878167  1
  Zn  Zn85  1  0.68165485  0.43692388  0.93747687  1
  Zn  Zn86  1  0.66690203  0.97609147  0.40270550  1
  Zn  Zn87  1  0.67443932  1.04635589  0.93823966  1
  Zn  Zn88  1  0.29873699  0.06850046  0.07505751  1
  Zn  Zn89  1  0.31742775  0.06492192  0.57139799  1
  Zn  Zn90  1  0.27457860  0.59000241  0.06445717  1
  Zn  Zn91  1  0.34015910  0.54386479  0.58961771  1
  Zn  Zn92  1  0.82114439  0.05349991  0.03969884  1
  Zn  Zn93  1  0.79738332  0.03552796  0.55244775  1
  Zn  Zn94  1  0.82897022  0.60856065  0.03457786  1
  Zn  Zn95  1  0.83140403  0.54919578  0.57706688  1
  Zn  Zn96  1  0.31483281  0.45051691  0.18932246  1
  Zn  Zn97  1  0.42832235  0.42017834  0.68227726  1
  Zn  Zn98  1  0.43760179  0.93662572  0.19140160  1
  Zn  Zn99  1  0.43375144  0.93514457  0.68703498  1
  Zn  Zn100  1  0.94937458  0.44609713  0.28997123  1
  Zn  Zn101  1  0.94267964  0.42760512  0.68998210  1
  Zn  Zn102  1  0.94622406  0.93412478  0.17050280  1
  Zn  Zn103  1  0.93455292  0.93185554  0.67934912  1
  Zn  Zn104  1  0.04522573  0.07058976  0.31343556  1
  Zn  Zn105  1  0.07237848  0.06783707  0.82058080  1
  Zn  Zn106  1  0.07452389  0.57451747  0.30233265  1
  Zn  Zn107  1  0.08226474  0.56034450  0.81866877  1
  Zn  Zn108  1  0.59722279  0.10215249  0.28164489  1
  Zn  Zn109  1  0.54223909  0.03192638  0.80439486  1
  Zn  Zn110  1  0.62882465  0.58518757  0.29454530  1
  Zn  Zn111  1  0.53626538  0.56339934  0.80845674  1
  Zn  Zn112  1  0.31018048  0.18275637  0.41636726  1
  Zn  Zn113  1  0.42963141  0.18591696  0.94238053  1
  Zn  Zn114  1  0.44356720  0.68267400  0.43076281  1
  Zn  Zn115  1  0.40125992  0.65522059  0.96758846  1
  Zn  Zn116  1  0.93525385  0.20462644  0.43426086  1
  Zn  Zn117  1  0.95718312  0.18509396  0.93582613  1
  Zn  Zn118  1  0.89025438  0.65616990  0.43639735  1
  Zn  Zn119  1  0.95045625  0.70201908  0.93801938  1
  Zn  Zn120  1  0.05039496  0.31466421  0.06407398  1
  Zn  Zn121  1  0.09422149  0.31524002  0.55467752  1
  Zn  Zn122  1  0.06370769  0.82651484  0.06465609  1
  Zn  Zn123  1  0.01321847  0.76737612  0.51205102  1
  Zn  Zn124  1  0.53159977  0.17769009  0.13662807  1
  Zn  Zn125  1  0.57651600  0.30647851  0.56515665  1
  Zn  Zn126  1  0.56349797  0.80567311  0.06029254  1
  Zn  Zn127  1  0.57256829  0.78715053  0.56816318  1
  O  O128  1  0.11995050  0.12422842  0.11201017  1
  O  O129  1  0.12411328  0.12340446  0.59132778  1
  O  O130  1  0.13271576  0.64333432  0.11123746  1
  O  O131  1  0.11422686  0.60912908  0.63184130  1
  O  O132  1  0.62410975  0.17230923  0.19685370  1
  O  O133  1  0.63310801  0.11216587  0.60346507  1
  O  O134  1  0.62864048  0.62193870  0.11213730  1
  O  O135  1  0.58895556  0.61044049  0.65013672  1
  O  O136  1  0.44273046  0.34125078  0.38327851  1
  O  O137  1  0.38116853  0.37091085  0.88660872  1
  O  O138  1  0.39601234  0.88492850  0.36559850  1
  O  O139  1  0.37739156  0.89602699  0.88510379  1
  O  O140  1  0.88808355  0.38119968  0.37010849  1
  O  O141  1  0.89096503  0.37494461  0.86139974  1
  O  O142  1  0.87505900  0.87443644  0.39128384  1
  O  O143  1  0.87018409  0.85940999  0.89406235  1
  O  O144  1  0.26730097  -0.01777645  0.36813798  1
  O  O145  1  0.26398503  -0.00495588  0.85993794  1
  O  O146  1  0.25684869  0.55055703  0.42583788  1
  O  O147  1  0.26546995  0.49516117  0.88340419  1
  O  O148  1  0.77674461  0.00082683  0.37443007  1
  O  O149  1  0.75063643  0.01900418  0.85553403  1
  O  O150  1  0.71606905  0.44837246  0.35684225  1
  O  O151  1  0.73466128  0.50881555  0.85630879  1
  O  O152  1  0.23928294  0.49920930  0.11421818  1
  O  O153  1  0.24286126  0.50440017  0.62735705  1
  O  O154  1  0.25834781  0.98525935  0.14601458  1
  O  O155  1  0.26166171  0.99090881  0.63795768  1
  O  O156  1  0.74632695  0.45172363  0.11522693  1
  O  O157  1  0.74228981  0.51786536  0.65141795  1
  O  O158  1  0.75767135  1.00987281  0.12813460  1
  O  O159  1  0.73529795  0.98670105  0.63047039  1
  O  O160  1  -0.00873632  0.35520841  0.23680978  1
  O  O161  1  0.01216894  0.38440994  0.76719947  1
  O  O162  1  0.01915451  0.86495197  0.23672954  1
  O  O163  1  0.00112340  0.85721895  0.74198957  1
  O  O164  1  0.55714264  0.42094941  0.28924422  1
  O  O165  1  0.50443016  0.35651803  0.75654625  1
  O  O166  1  0.51622119  0.88014574  0.25551960  1
  O  O167  1  0.50342376  0.92736245  0.77320995  1
  O  O168  1  0.48504550  0.10957681  0.24293091  1
  O  O169  1  0.48732932  0.12658798  0.74960440  1
  O  O170  1  0.53178523  0.64372538  0.24916700  1
  O  O171  1  0.46722046  0.61803003  0.73731041  1
  O  O172  1  1.00121973  0.13105614  0.22808699  1
  O  O173  1  1.05828169  0.13870082  0.73737644  1
  O  O174  1  1.01359527  0.64637421  0.22599099  1
  O  O175  1  0.99536393  0.62120961  0.75812120  1
  O  O176  1  0.37020168  0.26010561  0.01155041  1
  O  O177  1  0.34576118  0.24211203  0.50714052  1
  O  O178  1  0.40713079  0.76062816  0.01923652  1
  O  O179  1  0.37568046  0.74974825  0.50196455  1
  O  O180  1  0.86383488  0.24188964  -0.02565399  1
  O  O181  1  0.86929085  0.28456476  0.49122257  1
  O  O182  1  0.86921606  0.72060671  0.01450622  1
  O  O183  1  0.89969472  0.74098029  0.51670461  1
  O  O184  1  0.12896712  0.23531217  0.48317492  1
  O  O185  1  0.12863117  0.26989159  0.99084469  1
  O  O186  1  0.12057339  0.75392285  0.47957467  1
  O  O187  1  0.10761662  0.75904958  0.98353796  1
  O  O188  1  0.62489923  0.22993220  0.49435673  1
  O  O189  1  0.64213619  0.23257123  0.97344287  1
  O  O190  1  0.64712068  0.70591622  0.53692468  1
  O  O191  1  0.60569380  0.72214125  0.99638314  1
  O  O192  1  0.45392596  0.26192105  0.15866025  1
  O  O193  1  0.50667700  0.24279044  0.63892862  1
  O  O194  1  0.49385358  0.76278015  0.14096831  1
  O  O195  1  0.48232166  0.74107409  0.62588328  1
  O  O196  1  0.99801587  0.23943131  0.13095810  1
  O  O197  1  1.00027697  0.23235760  0.59576182  1
  O  O198  1  0.99762478  0.74260102  0.11791257  1
  O  O199  1  0.99770035  0.72682602  0.63951695  1
  O  O200  1  0.00480919  0.23963101  0.35499193  1
  O  O201  1  0.01302477  0.27349310  0.88416281  1
  O  O202  1  -0.00557990  0.74498305  0.35308172  1
  O  O203  1  0.01577234  0.75272404  0.85990824  1
  O  O204  1  0.50351947  0.32696220  0.42306879  1
  O  O205  1  0.50799812  0.24778473  0.87589257  1
  O  O206  1  0.50215184  0.76108597  0.35859771  1
  O  O207  1  0.52634577  0.81570471  0.79260565  1
  O  O208  1  0.24917834  0.11021397  0.48860449  1
  O  O209  1  0.23424373  0.14046882  1.01407408  1
  O  O210  1  0.28932491  0.59122900  0.47790194  1
  O  O211  1  0.28947574  0.65258947  0.97914979  1
  O  O212  1  0.74467626  0.11702543  0.49053359  1
  O  O213  1  0.76231320  0.12353444  0.96506220  1
  O  O214  1  0.79161761  0.61981812  0.48972477  1
  O  O215  1  0.72502113  0.61087093  0.97881583  1
  O  O216  1  0.25735227  0.37866507  -0.00717143  1
  O  O217  1  0.31001947  0.44164256  0.43306941  1
  O  O218  1  0.25029493  0.88260213  0.02362961  1
  O  O219  1  0.25649018  0.88761124  0.51568687  1
  O  O220  1  0.74918049  0.34785516  -0.03768487  1
  O  O221  1  0.72479981  0.36014477  0.53839862  1
  O  O222  1  0.82720381  0.90296585  -0.05455822  1
  O  O223  1  0.74027666  0.84392724  0.49351940  1
  O  O224  1  0.12617847  0.51006746  0.22440011  1
  O  O225  1  0.12623519  0.48907555  0.74124678  1
  O  O226  1  0.13715979  0.98692759  0.26446596  1
  O  O227  1  0.14473186  0.99500299  0.76216108  1
  O  O228  1  0.59412004  0.47326752  0.25325341  1
  O  O229  1  0.60661666  0.48263215  0.75219766  1
  O  O230  1  0.64278110  0.99400225  0.24730370  1
  O  O231  1  0.63240568  1.00926123  0.72915707  1
  O  O232  1  0.36675775  0.00247304  0.26028073  1
  O  O233  1  0.37168950  0.01719431  0.75487372  1
  O  O234  1  0.38923612  0.53011033  0.22482316  1
  O  O235  1  0.36905370  0.47536375  0.76606700  1
  O  O236  1  0.86053142  -0.03783137  0.24159769  1
  O  O237  1  0.85561322  -0.00875368  0.73368336  1
  O  O238  1  0.86114265  0.50064159  0.23932102  1
  O  O239  1  0.87001490  0.50870447  0.75532740  1
  O  O240  1  0.11782009  0.35354442  0.38158862  1
  O  O241  1  0.12264817  0.37587001  0.86820165  1
  O  O242  1  0.12814016  0.86243843  0.36107653  1
  O  O243  1  0.03829860  0.92815652  0.91705881  1
  O  O244  1  0.50717497  0.47952162  0.38100035  1
  O  O245  1  0.61663128  0.35878823  0.86168208  1
  O  O246  1  0.61575792  0.88158140  0.36474060  1
  O  O247  1  0.62769608  0.88514669  0.92273164  1
  O  O248  1  0.36178021  0.13945732  0.14411566  1
  O  O249  1  0.36457640  0.14551710  0.64129451  1
  O  O250  1  0.36822413  0.64933055  0.13071853  1
  O  O251  1  0.36801065  0.65144532  0.63697309  1
  O  O252  1  0.89585200  0.11071826  0.10145967  1
  O  O253  1  0.90000833  0.13954695  0.67602949  1
  O  O254  1  0.86423496  0.63765824  0.14631743  1
  O  O255  1  0.89318419  0.62204195  0.64221098  1
  O  O256  1  0.26915912  0.26197340  0.16758338  1
  O  O257  1  0.23319357  0.24456167  0.63073669  1
  O  O258  1  0.26491716  0.76162667  0.12813958  1
  O  O259  1  0.26131008  0.76659214  0.62703600  1
  O  O260  1  0.75722972  0.23678722  0.09155708  1
  O  O261  1  0.75419022  0.24853252  0.64960045  1
  O  O262  1  0.76750496  0.76524711  0.12755943  1
  O  O263  1  0.77383545  0.72207860  0.63188337  1
  O  O264  1  0.22528590  0.23364719  0.35803440  1
  O  O265  1  0.23963171  0.25541997  0.87809001  1
  O  O266  1  0.25150181  0.75778102  0.37829943  1
  O  O267  1  0.19849754  0.81974202  0.87327338  1
  O  O268  1  0.74878279  0.22146187  0.35852818  1
  O  O269  1  0.73932854  0.22535802  0.85665586  1
  O  O270  1  0.74862829  0.79638399  0.43919200  1
  O  O271  1  0.74115798  0.72761001  0.86520621  1
  O  O272  1  0.02082514  0.12820712  0.00928551  1
  O  O273  1  -0.02281442  0.17657289  0.55142738  1
  O  O274  1  0.00802739  0.62461921  0.00610762  1
  O  O275  1  -0.00895972  0.61611850  0.51302322  1
  O  O276  1  0.49512449  0.13824288  0.03133684  1
  O  O277  1  0.51627091  0.11387743  0.49162499  1
  O  O278  1  0.50217942  0.60182673  -0.00313679  1
  O  O279  1  0.48957251  0.62746623  0.51981317  1
  O  O280  1  0.51006408  0.37041562  0.49550739  1
  O  O281  1  0.50295449  0.37698144  0.98820162  1
  O  O282  1  0.51800652  0.85328933  0.48567715  1
  O  O283  1  0.56116716  0.87101494  0.95187080  1
  O  O284  1  1.00161521  0.37777957  0.50201128  1
  O  O285  1  0.99417375  0.39268541  0.99394127  1
  O  O286  1  1.01727276  0.88210772  0.51933490  1
  O  O287  1  1.00926049  0.91054694  0.98836443  1
  O  O288  1  0.53517723  0.54659432  0.37789734  1
  O  O289  1  0.48924071  0.47890654  0.87399912  1
  O  O290  1  0.49565057  0.98237480  0.39743699  1
  O  O291  1  0.48540865  1.01713165  0.91254494  1
  O  O292  1  1.00782863  0.50898179  0.36297218  1
  O  O293  1  1.01203259  0.49628819  0.89007195  1
  O  O294  1  0.97207423  0.99932506  0.36104175  1
  O  O295  1  1.00404622  0.99194376  0.88326814  1
  O  O296  1  0.01458923  0.00932583  0.12653617  1
  O  O297  1  0.01545960  -0.00473670  0.63341455  1
  O  O298  1  0.01821854  0.52731030  0.11571245  1
  O  O299  1  -0.00030572  0.50682452  0.62934851  1
  O  O300  1  0.47464907  -0.01503323  0.09526150  1
  O  O301  1  0.50626504  -0.00618230  0.60865206  1
  O  O302  1  0.49980934  0.48335578  0.10990555  1
  O  O303  1  0.44858210  0.51313482  0.61811850  1
  O  O304  1  0.28206661  0.40668769  0.28396300  1
  O  O305  1  0.24099665  0.37801921  0.75442985  1
  O  O306  1  0.24247899  0.87891844  0.24768436  1
  O  O307  1  0.26360975  0.88935517  0.73789651  1
  O  O308  1  0.71744733  0.38055617  0.32065723  1
  O  O309  1  0.73721993  0.38900887  0.75319281  1
  O  O310  1  0.73355193  0.88354145  0.24733069  1
  O  O311  1  0.74358185  0.88636103  0.76516169  1
  O  O312  1  0.25023517  0.10315346  0.25061900  1
  O  O313  1  0.25542590  0.11521635  0.74947265  1
  O  O314  1  0.26097128  0.62733424  0.25242728  1
  O  O315  1  0.26671783  0.62938704  0.74788632  1
  O  O316  1  0.76448083  0.09913813  0.26215116  1
  O  O317  1  0.75958543  0.11324325  0.74780555  1
  O  O318  1  0.72853770  0.60419162  0.23638027  1
  O  O319  1  0.76124215  0.61533647  0.76270714  1
  O  O320  1  0.37829535  0.09592386  0.36831593  1
  O  O321  1  0.37271321  0.11969404  0.86565287  1
  O  O322  1  0.38966346  0.62636312  0.35110936  1
  O  O323  1  0.38539592  0.60063207  0.86278713  1
  O  O324  1  0.86801696  0.12039712  0.39579120  1
  O  O325  1  0.88716059  0.13099352  0.85299791  1
  O  O326  1  0.86624366  0.63809051  0.32739850  1
  O  O327  1  0.87934353  0.62914018  0.86855132  1
  O  O328  1  0.12079648  0.38229741  0.12895639  1
  O  O329  1  0.12164063  0.38348655  0.64089993  1
  O  O330  1  0.14217855  0.86596375  0.14127837  1
  O  O331  1  0.14365524  0.88332080  0.62421858  1
  O  O332  1  0.61211620  0.35520635  0.13053871  1
  O  O333  1  0.63223033  0.35885104  0.65215937  1
  O  O334  1  0.61709186  0.88338927  0.12829853  1
  O  O335  1  0.61701951  0.87945749  0.62574499  1
  O  O336  1  0.11043367  0.24372422  0.25757945  1
  O  O337  1  0.12741647  0.27053824  0.76755799  1
  O  O338  1  0.12105503  0.76032463  0.26029126  1
  O  O339  1  0.11730797  0.74528151  0.75046820  1
  O  O340  1  0.64657924  0.33040019  0.18893832  1
  O  O341  1  0.60868319  0.23764633  0.76021225  1
  O  O342  1  0.61970461  0.77039790  0.23800702  1
  O  O343  1  0.59502323  0.79508173  0.78559040  1
  O  O344  1  0.36933112  0.21665461  0.28895283  1
  O  O345  1  0.38770418  0.23638609  0.76127254  1
  O  O346  1  0.39599916  0.74072295  0.24440352  1
  O  O347  1  0.37173517  0.74554706  0.78568572  1
  O  O348  1  0.87901474  0.24631887  0.24728549  1
  O  O349  1  0.91444015  0.20578063  0.69969087  1
  O  O350  1  0.89470690  0.76899255  0.22893785  1
  O  O351  1  0.88815346  0.73444913  0.74876540  1
  O  O352  1  0.35819793  0.44964058  0.48732427  1
  O  O353  1  0.38735597  0.48098016  0.98983435  1
  O  O354  1  0.38774331  1.00486253  0.49432230  1
  O  O355  1  0.35421284  1.01514181  0.99067349  1
  O  O356  1  0.84642224  0.46247570  0.50367357  1
  O  O357  1  0.89564162  0.51941622  1.00742678  1
  O  O358  1  0.88729608  0.99378934  0.50423695  1
  O  O359  1  0.86661012  0.96667994  0.96956663  1
  O  O360  1  0.14469805  0.01166511  -0.01603034  1
  O  O361  1  0.12360318  0.00519353  0.49657474  1
  O  O362  1  0.11281676  0.50052387  0.01524981  1
  O  O363  1  0.12832975  0.48583349  0.52468464  1
  O  O364  1  0.61096554  0.02075700  0.02355299  1
  O  O365  1  0.61531927  -0.00320222  0.50971129  1
  O  O366  1  0.60957241  0.50256856  -0.00651646  1
  O  O367  1  0.65426514  0.53974847  0.49497446  1
  O  O368  1  0.36177695  0.37156602  0.10963720  1
  O  O369  1  0.36978444  0.33690698  0.63515148  1
  O  O370  1  0.36341084  0.86294209  0.14202498  1
  O  O371  1  0.37255820  0.86257968  0.62495623  1
  O  O372  1  0.78703550  0.39742441  0.14043120  1
  O  O373  1  0.85225496  0.37635486  0.64491034  1
  O  O374  1  0.89486223  0.85964987  0.09767795  1
  O  O375  1  0.87403702  0.84471135  0.63389565  1
  O  O376  1  0.10469124  0.12294521  0.39498542  1
  O  O377  1  0.12012069  0.14773580  0.89527732  1
  O  O378  1  0.13593556  0.64589822  0.36400485  1
  O  O379  1  0.14206525  0.64336185  0.87345450  1
  O  O380  1  0.64499971  0.09645716  0.38635976  1
  O  O381  1  0.60923740  0.11795129  0.86694615  1
  O  O382  1  0.66437904  0.65347269  0.37893883  1
  O  O383  1  0.61909334  0.62599381  0.85941725  1
