# generated using pymatgen
data_VZnO4
_symmetry_space_group_name_H-M   'P 1'
_cell_length_a   17.15544633
_cell_length_b   17.26665146
_cell_length_c   17.12314353
_cell_angle_alpha   90.56220974
_cell_angle_beta   90.26315019
_cell_angle_gamma   88.68707326
_symmetry_Int_Tables_number   1
_chemical_formula_structural   VZnO4
_chemical_formula_sum   'V64 Zn64 O256'
_cell_volume   5070.54399076
_cell_formula_units_Z   64
loop_
 _symmetry_equiv_pos_site_id
 _symmetry_equiv_pos_as_xyz
  1  'x, y, z'
loop_
 _atom_site_type_symbol
 _atom_site_label
 _atom_site_symmetry_multiplicity
 _atom_site_fract_x
 _atom_site_fract_y
 _atom_site_fract_z
 _atom_site_occupancy
  V  V0  1  0.35139684  0.01951492  0.40386641  1
  V  V1  1  0.38572502  0.63927168  0.26129170  1
  V  V2  1  0.35367870  0.24818940  0.65809238  1
  V  V3  1  0.38790429  0.49688683  0.36675499  1
  V  V4  1  0.60961169  0.11401428  0.01620804  1
  V  V5  1  0.86321347  0.34786713  -0.01226260  1
  V  V6  1  0.26037942  0.86091987  0.62491952  1
  V  V7  1  -0.01218068  0.10942084  0.64285004  1
  V  V8  1  0.51276328  0.22163768  0.25666843  1
  V  V9  1  -0.02672464  0.26701219  0.22856326  1
  V  V10  1  0.24130170  0.73844365  0.49386138  1
  V  V11  1  0.25978356  0.01014562  0.76503808  1
  V  V12  1  0.13156352  0.11735740  0.49972315  1
  V  V13  1  0.49588257  0.87677175  0.89857298  1
  V  V14  1  0.62060360  0.74430942  0.89181955  1
  V  V15  1  0.49030270  0.74864511  0.74400863  1
  V  V16  1  0.38311362  0.62501342  0.71518657  1
  V  V17  1  0.62380146  0.37805502  0.75553470  1
  V  V18  1  0.37926144  0.73808546  0.10369778  1
  V  V19  1  0.13187941  0.85542703  0.75169686  1
  V  V20  1  0.25693510  0.50091322  0.75797249  1
  V  V21  1  0.15626996  0.35895056  0.26666111  1
  V  V22  1  0.85241978  0.29750205  0.62064092  1
  V  V23  1  0.00241902  0.85322840  0.86094018  1
  V  V24  1  0.11025080  0.48141103  0.12291198  1
  V  V25  1  0.07874634  0.60762514  -0.03119524  1
  V  V26  1  0.76581000  0.75412764  -0.00558138  1
  V  V27  1  0.61550616  0.65189413  0.48286339  1
  V  V28  1  0.25184565  0.38627054  0.61742750  1
  V  V29  1  0.51407843  0.48699068  0.48032984  1
  V  V30  1  0.27399993  0.23661432  -0.01657963  1
  V  V31  1  0.37786916  0.86952045  0.49397286  1
  V  V32  1  0.23237869  0.86689273  0.11519496  1
  V  V33  1  0.60798377  0.04151483  0.62817593  1
  V  V34  1  0.13199234  0.88693206  0.27482039  1
  V  V35  1  0.65842661  0.84540720  0.71987865  1
  V  V36  1  0.62921914  0.40778712  0.24645064  1
  V  V37  1  0.87846552  0.61777173  0.25013359  1
  V  V38  1  0.62977587  0.63297637  0.03969966  1
  V  V39  1  0.00603552  0.26197872  0.75385773  1
  V  V40  1  0.13250063  0.00607233  0.63389305  1
  V  V41  1  0.32887705  0.13182092  0.22293476  1
  V  V42  1  0.76495727  0.20010574  0.03266557  1
  V  V43  1  -0.00451572  -0.02063923  -0.00600410  1
  V  V44  1  0.37269524  0.39080055  0.00593696  1
  V  V45  1  0.86468105  0.61489707  0.73532850  1
  V  V46  1  0.02375409  0.72685175  0.26952362  1
  V  V47  1  0.76253118  0.14164088  0.80743089  1
  V  V48  1  0.09154213  0.12427686  -0.01740639  1
  V  V49  1  0.49811405  0.76954228  0.27414064  1
  V  V50  1  0.90866743  0.87776089  0.48807190  1
  V  V51  1  0.61909710  0.15310447  0.48706567  1
  V  V52  1  0.51698290  0.51002945  0.01711740  1
  V  V53  1  0.24083715  0.61737732  0.37016124  1
  V  V54  1  0.87463291  0.49786325  0.39965824  1
  V  V55  1  0.88399639  0.77221832  0.15261921  1
  V  V56  1  0.35504305  0.89716175  -0.00260549  1
  V  V57  1  0.71959282  0.86793093  0.13517845  1
  V  V58  1  0.75312245  0.64663407  0.37891996  1
  V  V59  1  0.86338435  -0.02378388  0.85250889  1
  V  V60  1  0.00110633  0.61324260  0.61772225  1
  V  V61  1  0.61212635  0.52948532  0.62218843  1
  V  V62  1  0.73132361  0.40759270  0.61021314  1
  V  V63  1  0.74749705  0.40021753  0.12026036  1
  Zn  Zn64  1  0.16912852  0.20511246  0.14651393  1
  Zn  Zn65  1  0.18761357  0.19121807  0.82431047  1
  Zn  Zn66  1  0.20924646  0.68459986  0.17987558  1
  Zn  Zn67  1  0.20129644  0.68042314  0.68191582  1
  Zn  Zn68  1  0.67864067  0.17853703  0.19204366  1
  Zn  Zn69  1  0.67483498  0.21875304  0.66636166  1
  Zn  Zn70  1  0.69441545  0.72095783  0.21571588  1
  Zn  Zn71  1  0.66360546  0.64246470  0.75443422  1
  Zn  Zn72  1  0.32858495  0.30578931  0.31529296  1
  Zn  Zn73  1  0.32495360  0.33036977  0.82667951  1
  Zn  Zn74  1  0.30027523  0.81060188  0.31746959  1
  Zn  Zn75  1  0.34177993  0.83313034  0.79498029  1
  Zn  Zn76  1  0.84226121  0.34822631  0.28902842  1
  Zn  Zn77  1  0.80457467  0.33095146  0.79664377  1
  Zn  Zn78  1  0.67650270  0.83602884  0.33837509  1
  Zn  Zn79  1  0.81568733  0.78831386  0.81307877  1
  Zn  Zn80  1  0.20904971  0.29150887  0.45487888  1
  Zn  Zn81  1  0.21722795  0.49291596  0.95541361  1
  Zn  Zn82  1  0.19458358  0.94268971  0.45051851  1
  Zn  Zn83  1  0.17951534  0.93391472  0.93213007  1
  Zn  Zn84  1  0.70051204  0.45786553  0.42057884  1
  Zn  Zn85  1  0.65432752  0.40655706  0.96198453  1
  Zn  Zn86  1  0.67827176  1.00146377  0.45440517  1
  Zn  Zn87  1  0.68633434  0.92815429  0.95018568  1
  Zn  Zn88  1  0.26443520  0.06226577  0.06356411  1
  Zn  Zn89  1  0.31347069  0.06636191  0.58122090  1
  Zn  Zn90  1  0.32947896  0.56193188  0.07387209  1
  Zn  Zn91  1  0.32177410  0.55265744  0.54774465  1
  Zn  Zn92  1  0.82526605  0.00045343  0.06655444  1
  Zn  Zn93  1  0.77991314  0.08364573  0.60834439  1
  Zn  Zn94  1  0.77541317  0.60271649  0.11168576  1
  Zn  Zn95  1  0.80434142  0.58283669  0.56232136  1
  Zn  Zn96  1  0.44264353  0.45338432  0.18662647  1
  Zn  Zn97  1  0.44107347  0.43127380  0.66667532  1
  Zn  Zn98  1  0.44531940  0.97095505  0.25973713  1
  Zn  Zn99  1  0.46393864  0.96470715  0.74560372  1
  Zn  Zn100  1  0.93044782  0.44649381  0.16237808  1
  Zn  Zn101  1  0.93890472  0.44821506  0.69562960  1
  Zn  Zn102  1  0.97415699  0.92268036  0.19408494  1
  Zn  Zn103  1  0.94910378  0.93116548  0.68801908  1
  Zn  Zn104  1  0.07430610  0.06885163  0.30522600  1
  Zn  Zn105  1  0.06174621  0.04309458  0.81518526  1
  Zn  Zn106  1  0.05858098  0.53433654  0.30677504  1
  Zn  Zn107  1  0.08080283  0.59447412  0.76739105  1
  Zn  Zn108  1  0.51551481  0.07967389  0.37983024  1
  Zn  Zn109  1  0.60501151  0.01970779  0.83173066  1
  Zn  Zn110  1  0.56553110  0.57920740  0.30851485  1
  Zn  Zn111  1  0.49334788  0.51277009  0.81171256  1
  Zn  Zn112  1  0.41427558  0.21536835  0.43457063  1
  Zn  Zn113  1  0.43156493  0.19056860  1.07355512  1
  Zn  Zn114  1  0.43326723  0.69707971  0.44478752  1
  Zn  Zn115  1  0.46674402  0.66477847  0.93675889  1
  Zn  Zn116  1  1.00909718  0.23655434  0.52452496  1
  Zn  Zn117  1  0.92037363  0.16328614  0.91465115  1
  Zn  Zn118  1  0.95302584  0.67810205  0.43227698  1
  Zn  Zn119  1  0.93117646  0.67900969  0.90417376  1
  Zn  Zn120  1  0.04533023  0.30498795  0.05490876  1
  Zn  Zn121  1  0.13822154  0.25441828  0.64092483  1
  Zn  Zn122  1  0.05933213  0.79122252  0.04186657  1
  Zn  Zn123  1  0.07311372  0.79914330  0.57986834  1
  Zn  Zn124  1  0.53368311  0.34216555  0.10802036  1
  Zn  Zn125  1  0.57731226  0.31419753  0.40067561  1
  Zn  Zn126  1  0.50729326  0.86820419  0.11727525  1
  Zn  Zn127  1  0.59142528  0.86645635  0.51566314  1
  O  O128  1  0.15085435  0.11329866  0.06913843  1
  O  O129  1  0.13184516  0.10453674  0.64046000  1
  O  O130  1  0.17481046  0.57587140  0.14597819  1
  O  O131  1  0.10563023  0.62885326  0.65397726  1
  O  O132  1  0.63317593  0.10890377  0.11239276  1
  O  O133  1  0.61158456  0.14680648  0.60240420  1
  O  O134  1  0.65661943  0.64258262  0.13711250  1
  O  O135  1  0.62178863  0.62593810  0.59111577  1
  O  O136  1  0.38506946  0.40285581  0.34522596  1
  O  O137  1  0.39238731  0.37769032  0.90758152  1
  O  O138  1  0.35136255  0.87920509  0.39380156  1
  O  O139  1  0.37841284  0.86014908  0.89913337  1
  O  O140  1  0.85420196  0.39988704  0.38539492  1
  O  O141  1  0.84199329  0.37719530  0.89496864  1
  O  O142  1  0.89040654  0.88249335  0.38765459  1
  O  O143  1  0.89594975  0.86291871  0.85168520  1
  O  O144  1  0.25497647  0.00461856  0.38020165  1
  O  O145  1  0.25134288  -0.01922355  0.85958043  1
  O  O146  1  0.28266914  0.52072676  0.37725012  1
  O  O147  1  0.26909037  0.50469984  0.85750366  1
  O  O148  1  0.65692489  -0.10060128  0.42637313  1
  O  O149  1  0.76998549  -0.04591977  0.87583936  1
  O  O150  1  0.77027851  0.52892239  0.37253900  1
  O  O151  1  0.75793077  0.52146746  0.88748975  1
  O  O152  1  0.23057802  0.51573097  0.13017624  1
  O  O153  1  0.27559894  0.48898668  0.62773324  1
  O  O154  1  0.24399435  0.96420501  0.12477041  1
  O  O155  1  0.24344983  0.98651949  0.63860149  1
  O  O156  1  0.74448807  0.49677919  0.11277299  1
  O  O157  1  0.72663090  0.51266948  0.61140658  1
  O  O158  1  0.74517866  0.96381234  0.13190869  1
  O  O159  1  0.69936073  1.01186522  0.65413146  1
  O  O160  1  -0.03638094  0.36918331  0.23882066  1
  O  O161  1  -0.00390201  0.36048035  0.74161796  1
  O  O162  1  0.03842949  0.84390255  0.24944444  1
  O  O163  1  0.02245544  0.86689136  0.74951286  1
  O  O164  1  0.52968946  0.38891516  0.23643236  1
  O  O165  1  0.52362073  0.42040306  0.74953060  1
  O  O166  1  0.47606724  0.86456197  0.23903537  1
  O  O167  1  0.46850153  0.85331290  0.77983128  1
  O  O168  1  0.51138545  0.12454377  0.27083607  1
  O  O169  1  0.48313479  0.16695927  0.84194631  1
  O  O170  1  0.49170004  0.65312462  0.25889641  1
  O  O171  1  0.48710816  0.64108708  0.75419774  1
  O  O172  1  1.01680140  0.16903255  0.28049101  1
  O  O173  1  0.99670086  0.11001990  0.74472385  1
  O  O174  1  0.98938806  0.62328660  0.25905267  1
  O  O175  1  0.97607756  0.62632574  0.73771077  1
  O  O176  1  0.36909539  0.26962545  0.01173413  1
  O  O177  1  0.49167335  0.24185706  0.64379640  1
  O  O178  1  0.38794173  0.71433030  0.00756198  1
  O  O179  1  0.35763816  0.76347823  0.49778153  1
  O  O180  1  0.85279599  0.24079749  -0.01530413  1
  O  O181  1  0.90593091  0.27186624  0.53948235  1
  O  O182  1  0.86038412  0.74693238  -0.02541328  1
  O  O183  1  0.89988429  0.77536359  0.47411170  1
  O  O184  1  0.12400449  0.23464611  0.51678124  1
  O  O185  1  0.07543592  0.22195465  0.98367997  1
  O  O186  1  0.14456628  0.74392629  0.50909521  1
  O  O187  1  0.10304583  0.69169033  1.01711812  1
  O  O188  1  0.64616124  0.24243545  0.46274732  1
  O  O189  1  0.67125883  0.19450276  0.98520332  1
  O  O190  1  0.61096057  0.74804170  0.48627514  1
  O  O191  1  0.62745641  0.73434607  0.99557393  1
  O  O192  1  0.49738252  0.24245832  0.15240816  1
  O  O193  1  0.52108076  0.28995602  0.60026421  1
  O  O194  1  0.47319304  0.75710693  0.13550745  1
  O  O195  1  0.49667815  0.76026647  0.65118758  1
  O  O196  1  0.98666069  0.24483355  0.13165108  1
  O  O197  1  1.01200159  0.21974084  0.64918319  1
  O  O198  1  0.96639668  0.76178587  0.10010630  1
  O  O199  1  1.01136356  0.73011600  0.63526309  1
  O  O200  1  0.02128323  0.23185214  0.33070063  1
  O  O201  1  -0.03122833  0.23422985  0.84193899  1
  O  O202  1  0.03474704  0.72487738  0.36668116  1
  O  O203  1  0.00804262  0.75680562  0.86854719  1
  O  O204  1  0.48709719  0.26625554  0.35039971  1
  O  O205  1  0.49916474  0.23547263  0.86617100  1
  O  O206  1  0.48376352  0.77124345  0.37060415  1
  O  O207  1  0.50960984  0.75359772  0.88277104  1
  O  O208  1  0.22916283  0.11862675  0.51713722  1
  O  O209  1  0.27892097  0.13900296  0.97643083  1
  O  O210  1  0.25983096  0.63216228  0.48762051  1
  O  O211  1  0.25283807  0.60363082  0.99468575  1
  O  O212  1  0.71861046  0.09109320  0.51243390  1
  O  O213  1  0.79478242  0.10737975  1.03863038  1
  O  O214  1  0.73785868  0.63655384  0.48544018  1
  O  O215  1  0.74346355  0.65083866  1.01010340  1
  O  O216  1  0.27481666  0.40863956  0.01138257  1
  O  O217  1  0.24999170  0.37932277  0.51825154  1
  O  O218  1  0.25034965  0.87033053  -0.00003297  1
  O  O219  1  0.24608215  0.86100928  0.51469202  1
  O  O220  1  0.74090910  0.35838623  0.01721825  1
  O  O221  1  0.72841972  0.39411502  0.51232830  1
  O  O222  1  0.74175385  0.85766449  0.01902319  1
  O  O223  1  0.81403124  0.89855569  0.51530617  1
  O  O224  1  0.11650392  0.45747811  0.23759178  1
  O  O225  1  0.15921299  0.50866113  0.74679015  1
  O  O226  1  0.11800102  0.98210941  0.25145912  1
  O  O227  1  0.14131348  0.98424454  0.74643200  1
  O  O228  1  0.62962171  0.50497183  0.24710499  1
  O  O229  1  0.61010606  0.54659302  0.72080506  1
  O  O230  1  0.58811801  0.99416443  0.19224464  1
  O  O231  1  0.63768703  0.92347342  0.77673472  1
  O  O232  1  0.35482760  0.04400719  0.26826348  1
  O  O233  1  0.35763357  -0.00551853  0.74278067  1
  O  O234  1  0.39488652  0.52808006  0.25705495  1
  O  O235  1  0.39690013  0.52220488  0.73989210  1
  O  O236  1  0.89820638  0.06539930  0.24678463  1
  O  O237  1  0.86870192  -0.02350275  0.75216644  1
  O  O238  1  0.87429083  0.52047511  0.23726655  1
  O  O239  1  0.86909321  0.51839726  0.75828460  1
  O  O240  1  0.15022882  0.34186340  0.36437160  1
  O  O241  1  0.10441570  0.39544046  0.87909390  1
  O  O242  1  0.13999492  0.88063412  0.37243321  1
  O  O243  1  0.11972844  0.87227276  0.85587381  1
  O  O244  1  0.64805802  0.38419940  0.34789084  1
  O  O245  1  0.64003518  0.39424730  0.85291474  1
  O  O246  1  0.59302082  0.97795636  0.26445464  1
  O  O247  1  0.59881179  0.86047386  0.90934877  1
  O  O248  1  0.35292241  0.12193517  0.12302129  1
  O  O249  1  0.37043804  0.15696816  0.61466810  1
  O  O250  1  0.36823818  0.63801762  0.14717981  1
  O  O251  1  0.38489528  0.62650057  0.61779583  1
  O  O252  1  0.87879928  0.07590335  0.17582088  1
  O  O253  1  0.89197942  0.09864037  0.62014208  1
  O  O254  1  0.86979957  0.64733352  0.14948962  1
  O  O255  1  0.88705632  0.62439814  0.62851001  1
  O  O256  1  0.21346862  0.26146144  0.05891219  1
  O  O257  1  0.25433855  0.26622175  0.63887479  1
  O  O258  1  0.26911123  0.75553978  0.12124520  1
  O  O259  1  0.25434840  0.75634751  0.61608335  1
  O  O260  1  0.75264513  0.23364285  0.12582838  1
  O  O261  1  0.75109020  0.28381837  0.61007331  1
  O  O262  1  0.77842611  0.76425903  0.11351517  1
  O  O263  1  0.73817199  0.77468711  0.56813796  1
  O  O264  1  0.31496314  0.26713923  0.41878062  1
  O  O265  1  0.24514920  0.26907178  0.88626309  1
  O  O266  1  0.24393343  0.73493403  0.38704247  1
  O  O267  1  0.24443789  0.70862258  0.91218186  1
  O  O268  1  0.77281091  0.13768790  0.31948153  1
  O  O269  1  0.76391392  0.23417957  0.84072839  1
  O  O270  1  0.74538600  0.74461981  0.37616805  1
  O  O271  1  0.72828951  0.77141757  0.89200541  1
  O  O272  1  -0.01173074  0.09700500  -0.01614482  1
  O  O273  1  0.02457052  0.12147367  0.53582340  1
  O  O274  1  -0.02103907  0.60133447  -0.03495958  1
  O  O275  1  0.00092212  0.62613575  0.51829865  1
  O  O276  1  0.51440989  0.14277303  0.00849820  1
  O  O277  1  0.51346334  0.16049062  0.47331217  1
  O  O278  1  0.52856870  0.63444608  0.03476635  1
  O  O279  1  0.51636884  0.62845473  0.47593149  1
  O  O280  1  0.52259126  0.39033606  0.47390378  1
  O  O281  1  0.54512761  0.41032695  1.00236915  1
  O  O282  1  0.47468025  0.86677736  0.50195066  1
  O  O283  1  0.47359901  0.88598644  1.00165614  1
  O  O284  1  1.03378980  0.42186790  0.50326809  1
  O  O285  1  0.96091156  0.35493909  0.99214432  1
  O  O286  1  1.01290157  0.85054109  0.49527931  1
  O  O287  1  1.01500642  0.87220492  0.96993676  1
  O  O288  1  0.50038923  0.50996738  0.37322479  1
  O  O289  1  0.49223594  0.55604572  0.91344185  1
  O  O290  1  0.45261151  0.99037261  0.37236704  1
  O  O291  1  0.50197808  0.97155338  0.86436737  1
  O  O292  1  0.97222733  0.50579709  0.37107604  1
  O  O293  1  1.04075094  0.42898050  0.87767334  1
  O  O294  1  0.97030217  1.01959908  0.25881843  1
  O  O295  1  0.98349030  0.97723818  0.86718178  1
  O  O296  1  -0.00770997  -0.02983789  0.09231232  1
  O  O297  1  0.02272705  0.00234920  0.64011023  1
  O  O298  1  0.01520231  0.51049902  0.12796089  1
  O  O299  1  0.00233172  0.51397625  0.63332435  1
  O  O300  1  0.51084742  -0.01068543  0.15821717  1
  O  O301  1  0.54287880  0.03020852  0.70671690  1
  O  O302  1  0.51145445  0.51559179  0.11598719  1
  O  O303  1  0.51063127  0.50216401  0.59392915  1
  O  O304  1  0.25266854  0.35285046  0.24425865  1
  O  O305  1  0.28037460  0.39932836  0.74502893  1
  O  O306  1  0.22503879  0.85097643  0.23565532  1
  O  O307  1  0.24938552  0.86951360  0.73776397  1
  O  O308  1  0.75284024  0.38185517  0.22456058  1
  O  O309  1  0.73094353  0.38861287  0.73051827  1
  O  O310  1  0.72749059  0.83624680  0.23472017  1
  O  O311  1  0.75639153  0.82392552  0.72531572  1
  O  O312  1  0.22974086  0.14782282  0.22607451  1
  O  O313  1  0.24476969  0.10791390  0.76557399  1
  O  O314  1  0.26963057  0.63764507  0.26946336  1
  O  O315  1  0.27798513  0.61397748  0.73593963  1
  O  O316  1  0.73025492  0.09966424  0.26358269  1
  O  O317  1  0.76186965  0.14978457  0.70523937  1
  O  O318  1  0.76983664  0.64472813  0.26282861  1
  O  O319  1  0.76494724  0.63705949  0.71324331  1
  O  O320  1  0.36321540  0.11455482  0.42202621  1
  O  O321  1  0.42257485  0.13421350  0.86922147  1
  O  O322  1  0.37911411  0.62752278  0.36679345  1
  O  O323  1  0.28288679  0.64824752  0.92620943  1
  O  O324  1  0.80528433  0.09547378  0.37056153  1
  O  O325  1  0.84586074  0.09211398  0.85725240  1
  O  O326  1  0.86976804  0.62992764  0.36932468  1
  O  O327  1  0.86050170  0.68369300  0.81866955  1
  O  O328  1  0.11106172  0.38819574  0.09160550  1
  O  O329  1  0.15565160  0.37490683  0.63927718  1
  O  O330  1  0.13541173  0.85130324  0.10351769  1
  O  O331  1  0.13620251  0.87665061  0.63764097  1
  O  O332  1  0.64131307  0.37504322  0.13694736  1
  O  O333  1  0.62816578  0.41187562  0.63568442  1
  O  O334  1  0.62247508  0.86139739  0.11963167  1
  O  O335  1  0.62583112  0.85486640  0.62618296  1
  O  O336  1  0.11265868  0.28189918  0.21516175  1
  O  O337  1  0.11027183  0.24729377  0.75841259  1
  O  O338  1  0.11158612  0.71033665  0.22594695  1
  O  O339  1  0.14545980  0.75894530  0.75042822  1
  O  O340  1  0.61230906  0.24236556  0.25837264  1
  O  O341  1  0.61429919  0.28122826  0.73928169  1
  O  O342  1  0.60111424  0.76381281  0.27110960  1
  O  O343  1  0.60906709  0.75816436  0.76534079  1
  O  O344  1  0.37649666  0.21480270  0.25726733  1
  O  O345  1  0.36554318  0.24644292  0.75657503  1
  O  O346  1  0.37743136  0.74563487  0.25838532  1
  O  O347  1  0.37900920  0.73069242  0.75554359  1
  O  O348  1  0.87834981  0.24578199  0.25250736  1
  O  O349  1  0.87981092  0.26937061  0.71420272  1
  O  O350  1  0.91285168  0.74752430  0.25068648  1
  O  O351  1  0.78856483  0.73654375  0.60182314  1
  O  O352  1  0.40159428  0.50492546  0.47758317  1
  O  O353  1  0.40192436  0.49645274  1.01400846  1
  O  O354  1  0.35550134  0.98326699  0.50559910  1
  O  O355  1  0.34740322  0.99258937  1.00321423  1
  O  O356  1  0.87204137  0.51347992  0.49769760  1
  O  O357  1  0.81628524  0.53592661  0.92581728  1
  O  O358  1  0.94049357  0.97231209  0.47950113  1
  O  O359  1  0.88855784  0.97939218  0.97582205  1
  O  O360  1  0.09941064  0.00086047  -0.02225010  1
  O  O361  1  0.13190943  0.00344461  0.52537236  1
  O  O362  1  0.12021545  0.51812593  0.01224799  1
  O  O363  1  0.08994972  0.46325993  0.49849534  1
  O  O364  1  0.62861352  0.02656017  -0.03738500  1
  O  O365  1  0.58124692  -0.00589523  0.54392065  1
  O  O366  1  0.63084779  0.53388718  0.00425263  1
  O  O367  1  0.61585320  0.51453010  0.48754025  1
  O  O368  1  0.42056395  0.37772369  0.10376816  1
  O  O369  1  0.37560880  0.34833619  0.62558174  1
  O  O370  1  0.36158500  0.85554052  0.09594760  1
  O  O371  1  0.35736871  0.87543617  0.61438169  1
  O  O372  1  0.85586237  0.38983957  0.09507014  1
  O  O373  1  0.84877889  0.40038180  0.62795787  1
  O  O374  1  0.87660396  0.87202812  0.16429400  1
  O  O375  1  0.91765158  0.87361475  0.59531538  1
  O  O376  1  0.11504503  0.10448845  0.40272296  1
  O  O377  1  0.12377116  0.11547017  0.88296202  1
  O  O378  1  0.14707094  0.59449581  0.35876194  1
  O  O379  1  0.11214141  0.60709984  0.87439532  1
  O  O380  1  0.62592834  0.09046764  0.40082337  1
  O  O381  1  0.67339100  0.10497971  0.82799470  1
  O  O382  1  0.64285616  0.62898737  0.37565623  1
  O  O383  1  0.63325611  0.64904370  0.86626166  1
