# generated using pymatgen
data_VZnO4
_symmetry_space_group_name_H-M   'P 1'
_cell_length_a   16.88965551
_cell_length_b   16.93616145
_cell_length_c   16.92146327
_cell_angle_alpha   90.49770944
_cell_angle_beta   89.83766345
_cell_angle_gamma   90.36550664
_symmetry_Int_Tables_number   1
_chemical_formula_structural   VZnO4
_chemical_formula_sum   'V64 Zn64 O256'
_cell_volume   4840.01595902
_cell_formula_units_Z   64
loop_
 _symmetry_equiv_pos_site_id
 _symmetry_equiv_pos_as_xyz
  1  'x, y, z'
loop_
 _atom_site_type_symbol
 _atom_site_label
 _atom_site_symmetry_multiplicity
 _atom_site_fract_x
 _atom_site_fract_y
 _atom_site_fract_z
 _atom_site_occupancy
  V  V0  1  0.25032331  0.13518447  0.85925717  1
  V  V1  1  0.37062976  0.50811879  0.86321521  1
  V  V2  1  0.61860720  0.37337251  0.24918708  1
  V  V3  1  0.39886380  0.75367352  0.61413440  1
  V  V4  1  0.12547758  -0.00023012  0.60211520  1
  V  V5  1  0.25595470  0.61847088  0.35768624  1
  V  V6  1  0.24593071  -0.02292990  0.74381587  1
  V  V7  1  0.25442916  0.24172182  0.49360784  1
  V  V8  1  0.50950066  0.59344711  0.62872950  1
  V  V9  1  0.64322766  0.63362141  -0.00047034  1
  V  V10  1  0.49172246  0.85992542  0.38431971  1
  V  V11  1  0.61018088  0.86354717  0.25314899  1
  V  V12  1  0.13567661  0.37506155  0.72928237  1
  V  V13  1  0.01065007  0.36279036  0.87137848  1
  V  V14  1  0.49864043  0.37538820  0.39457711  1
  V  V15  1  0.85514856  0.63279028  0.25734380  1
  V  V16  1  0.76274843  0.74032023  0.51455112  1
  V  V17  1  0.62147370  0.00143883  0.62568864  1
  V  V18  1  0.74590285  0.09736979  0.87684776  1
  V  V19  1  0.49433659  0.37397853  0.87700894  1
  V  V20  1  0.26882648  0.38876200  0.61594241  1
  V  V21  1  0.63093857  0.50598460  0.12628701  1
  V  V22  1  0.23185072  0.62090834  0.86497984  1
  V  V23  1  0.02015580  0.16291497  0.63308832  1
  V  V24  1  0.86509263  0.50948796  0.86427734  1
  V  V25  1  0.63043029  0.24779464  0.88521787  1
  V  V26  1  0.11810904  0.73108041  0.35875580  1
  V  V27  1  0.37189837  0.23320147  0.12513916  1
  V  V28  1  0.25779584  0.87158538  0.58026568  1
  V  V29  1  0.02443254  0.88672674  0.37007673  1
  V  V30  1  0.38343181  -0.00350146  0.37599249  1
  V  V31  1  0.87634431  0.23364439  0.13033438  1
  V  V32  1  0.14453364  0.61687212  0.51593128  1
  V  V33  1  0.85151619  -0.00139668  0.40094538  1
  V  V34  1  0.24771341  0.88593863  0.15052492  1
  V  V35  1  0.25033642  0.75459262  -0.00691072  1
  V  V36  1  0.62478338  0.62659663  0.47463203  1
  V  V37  1  0.49768970  0.24533711  0.24035866  1
  V  V38  1  0.25889332  0.12073191  0.34387313  1
  V  V39  1  -0.02263936  0.58107816  0.62176387  1
  V  V40  1  0.62822774  0.38222806  0.74720064  1
  V  V41  1  0.88550222  0.50174800  0.37325451  1
  V  V42  1  0.13095395  0.48079473  0.13529897  1
  V  V43  1  0.11703579  0.25000818  0.37589312  1
  V  V44  1  -0.00208068  0.50394359  0.00106872  1
  V  V45  1  0.49560141  0.51286966  0.00731152  1
  V  V46  1  0.74345939  0.36390330  0.11561553  1
  V  V47  1  0.73396203  0.24874167  0.48884448  1
  V  V48  1  0.60287713  0.11897788  0.00539969  1
  V  V49  1  0.60057312  0.00043703  0.12844346  1
  V  V50  1  0.49008682  0.23962850  0.75181529  1
  V  V51  1  0.61109399  0.74302374  0.86205291  1
  V  V52  1  0.38455243  0.23571981  0.61718831  1
  V  V53  1  0.37448541  0.73665253  0.13598318  1
  V  V54  1  0.76355653  0.36406289  0.63005541  1
  V  V55  1  0.36849850  0.37714705  0.01021090  1
  V  V56  1  0.37043336  0.49234107  0.38409490  1
  V  V57  1  0.37351820  -0.01331139  0.87251737  1
  V  V58  1  0.75337886  0.86840107  0.12115007  1
  V  V59  1  0.24003082  0.25056802  0.00036522  1
  V  V60  1  0.11500073  0.11823547  0.00590590  1
  V  V61  1  0.86742854  0.36661472  -0.00802589  1
  V  V62  1  -0.00124940  0.62799138  0.14329460  1
  V  V63  1  0.74791520  0.01605250  0.24866562  1
  Zn  Zn64  1  0.17508500  0.20389104  0.18680533  1
  Zn  Zn65  1  0.18991288  0.19823302  0.67690125  1
  Zn  Zn66  1  0.19714699  0.67098673  0.17879899  1
  Zn  Zn67  1  0.24350186  0.68418307  0.67345323  1
  Zn  Zn68  1  0.68237267  0.18789721  0.18092255  1
  Zn  Zn69  1  0.68569846  0.19154851  0.69962416  1
  Zn  Zn70  1  0.68702462  0.68747610  0.19115339  1
  Zn  Zn71  1  0.66658656  0.69629620  0.66256250  1
  Zn  Zn72  1  0.32760103  0.32932520  0.31245901  1
  Zn  Zn73  1  0.31012590  0.31668756  0.80911086  1
  Zn  Zn74  1  0.31148201  0.80681086  0.31646711  1
  Zn  Zn75  1  0.31381177  0.80059693  0.80187081  1
  Zn  Zn76  1  0.80208542  0.31572078  0.30583682  1
  Zn  Zn77  1  0.81369939  0.30022114  0.80841369  1
  Zn  Zn78  1  0.81077943  0.82522763  0.31251785  1
  Zn  Zn79  1  0.76939411  0.88351728  0.85238972  1
  Zn  Zn80  1  0.18598829  0.43616318  0.44327896  1
  Zn  Zn81  1  0.18670744  0.44000914  0.94031320  1
  Zn  Zn82  1  0.18068534  0.95167162  0.41145204  1
  Zn  Zn83  1  0.19626489  0.94680349  0.94164832  1
  Zn  Zn84  1  0.74023761  0.44569311  0.44568188  1
  Zn  Zn85  1  0.68525726  0.44257578  0.93357467  1
  Zn  Zn86  1  0.67414557  0.93960203  0.43033082  1
  Zn  Zn87  1  0.65633262  0.92600628  0.95276648  1
  Zn  Zn88  1  0.30486892  0.05589809  0.05635307  1
  Zn  Zn89  1  0.31501981  0.06031036  0.56033539  1
  Zn  Zn90  1  0.30211837  0.56453772  0.05552655  1
  Zn  Zn91  1  0.32914505  0.57082474  0.55317176  1
  Zn  Zn92  1  0.79122383  0.05655079  0.05726100  1
  Zn  Zn93  1  0.82535968  0.07792226  0.57641101  1
  Zn  Zn94  1  0.81869237  0.56479291  0.06208209  1
  Zn  Zn95  1  0.80014653  0.55722586  0.56701003  1
  Zn  Zn96  1  0.43191974  0.44458428  0.19549666  1
  Zn  Zn97  1  0.44098320  0.42931220  0.68689498  1
  Zn  Zn98  1  0.41322285  0.92517672  0.18978234  1
  Zn  Zn99  1  0.42734346  0.93701401  0.68446837  1
  Zn  Zn100  1  0.91707443  0.45152619  0.18037438  1
  Zn  Zn101  1  0.93521565  0.41684835  0.69265332  1
  Zn  Zn102  1  0.91710641  0.91531149  0.21877751  1
  Zn  Zn103  1  1.02737043  1.02273631  0.74044977  1
  Zn  Zn104  1  0.03653079  0.09410710  0.35803477  1
  Zn  Zn105  1  0.07086994  0.19730249  0.82060862  1
  Zn  Zn106  1  0.06492894  0.54536934  0.31843075  1
  Zn  Zn107  1  0.05433161  0.55266692  0.80338518  1
  Zn  Zn108  1  0.51306023  0.03666416  0.27644189  1
  Zn  Zn109  1  0.55696104  0.06032602  0.81334489  1
  Zn  Zn110  1  0.59430990  0.53280959  0.34568075  1
  Zn  Zn111  1  0.56397728  0.56393831  0.81769040  1
  Zn  Zn112  1  0.42924431  0.19903531  0.41789506  1
  Zn  Zn113  1  0.42587910  0.18273933  0.93348999  1
  Zn  Zn114  1  0.43852839  0.67552055  0.43723883  1
  Zn  Zn115  1  0.43286843  0.69448038  0.93588541  1
  Zn  Zn116  1  0.91850573  0.17455840  0.46500939  1
  Zn  Zn117  1  0.92516982  0.17874525  0.94258792  1
  Zn  Zn118  1  0.94802793  0.67644727  0.45008571  1
  Zn  Zn119  1  1.12002564  0.62579938  0.99994645  1
  Zn  Zn120  1  0.05049061  0.30775870  0.06401880  1
  Zn  Zn121  1  0.08005002  0.32991736  0.53541791  1
  Zn  Zn122  1  0.08974837  0.79225666  0.09252724  1
  Zn  Zn123  1  0.08886503  0.81776807  0.52330258  1
  Zn  Zn124  1  0.55398316  0.31356215  0.06065690  1
  Zn  Zn125  1  0.57793078  0.30025689  0.56893815  1
  Zn  Zn126  1  0.56400037  0.79805476  0.08179610  1
  Zn  Zn127  1  0.57135850  0.80964196  0.55446399  1
  O  O128  1  0.12156057  0.14733862  0.10448713  1
  O  O129  1  0.11840336  0.12560346  0.61624500  1
  O  O130  1  0.10996987  0.60629549  0.12242871  1
  O  O131  1  0.16206075  0.62775264  0.61442070  1
  O  O132  1  0.61737401  0.11503673  0.11421405  1
  O  O133  1  0.61846044  0.10719162  0.62961610  1
  O  O134  1  0.62757880  0.61287011  0.11532285  1
  O  O135  1  0.61433858  0.61251343  0.60981572  1
  O  O136  1  0.39414142  0.37113786  0.40381599  1
  O  O137  1  0.37972871  0.38407024  0.88267034  1
  O  O138  1  0.38163669  0.88470484  0.36872383  1
  O  O139  1  0.36920309  0.88545235  0.85466715  1
  O  O140  1  0.96836463  0.32767205  0.30071148  1
  O  O141  1  0.87459641  0.36907222  0.88628777  1
  O  O142  1  0.88929519  0.90761543  0.36583651  1
  O  O143  1  0.87529120  0.91780208  0.89200436  1
  O  O144  1  0.25950190  0.01532024  0.35547031  1
  O  O145  1  0.24571447  0.00919223  0.85257023  1
  O  O146  1  0.26134899  0.49784871  0.38151176  1
  O  O147  1  0.26232615  0.50724432  0.88207215  1
  O  O148  1  0.74799781  0.00258913  0.36531023  1
  O  O149  1  0.72572223  -0.00661019  0.87457982  1
  O  O150  1  0.82079207  0.41424799  0.36120382  1
  O  O151  1  0.76350620  0.50273616  0.88291854  1
  O  O152  1  0.22873508  0.49664810  0.11074653  1
  O  O153  1  0.27579745  0.48720816  0.61600202  1
  O  O154  1  0.26834999  0.98496494  0.13529337  1
  O  O155  1  0.25346218  0.98436180  0.62393919  1
  O  O156  1  0.73385605  0.49312787  0.11510787  1
  O  O157  1  0.75791595  0.46503567  0.62102157  1
  O  O158  1  0.73060286  0.99553161  0.13727839  1
  O  O159  1  0.72800437  1.01165198  0.62703014  1
  O  O160  1  -0.00179241  0.37085378  0.24963664  1
  O  O161  1  0.01247239  0.36798369  0.76592099  1
  O  O162  1  0.00130881  0.86860675  0.26968544  1
  O  O163  1  0.00534733  0.93221310  0.80872782  1
  O  O164  1  0.51171823  0.36888499  0.23466501  1
  O  O165  1  0.50749406  0.36926348  0.76474696  1
  O  O166  1  0.50642971  0.87573247  0.25226721  1
  O  O167  1  0.51740994  0.89789971  0.73574237  1
  O  O168  1  0.50632626  0.14802404  0.25087597  1
  O  O169  1  0.49910255  0.14173651  0.75579188  1
  O  O170  1  0.50828576  0.62731086  0.25745312  1
  O  O171  1  0.51071891  0.60773478  0.72966063  1
  O  O172  1  1.01293386  0.09738243  0.23924871  1
  O  O173  1  1.00985588  0.13703509  0.73707533  1
  O  O174  1  1.00058782  0.61516177  0.24274083  1
  O  O175  1  1.01883008  0.60669962  0.71238237  1
  O  O176  1  0.37328002  0.26157748  0.00975827  1
  O  O177  1  0.38594052  0.24674175  0.51280370  1
  O  O178  1  0.35680730  0.74069333  0.00545363  1
  O  O179  1  0.38106404  0.74295979  0.51442794  1
  O  O180  1  0.87134209  0.26452275  0.00992445  1
  O  O181  1  0.91125441  0.30789147  0.46512488  1
  O  O182  1  0.88338824  0.92687194  -0.02879437  1
  O  O183  1  0.86253806  0.73245786  0.50110414  1
  O  O184  1  0.15227998  0.23914707  0.49793360  1
  O  O185  1  0.13980580  0.25810877  0.99931963  1
  O  O186  1  0.12896217  0.72232174  0.47785686  1
  O  O187  1  0.13961731  0.74021507  1.00234513  1
  O  O188  1  0.63421899  0.23216366  0.49498465  1
  O  O189  1  0.61116875  0.23812988  0.99182488  1
  O  O190  1  0.63864679  0.73515101  0.50473401  1
  O  O191  1  0.61825013  0.73408644  1.00066851  1
  O  O192  1  0.48308283  0.25229275  0.12747475  1
  O  O193  1  0.49429072  0.25414601  0.64010023  1
  O  O194  1  0.47546680  0.74411958  0.11855444  1
  O  O195  1  0.49871655  0.76354514  0.63081784  1
  O  O196  1  0.97664212  0.24852885  0.12589845  1
  O  O197  1  1.02516110  0.26057001  0.61371491  1
  O  O198  1  1.00591285  0.72728718  0.12761318  1
  O  O199  1  0.99316594  0.78777919  0.70744004  1
  O  O200  1  0.02212459  0.20714333  0.39775129  1
  O  O201  1  -0.00746986  0.25893886  0.88251061  1
  O  O202  1  0.01736484  0.72219505  0.36703084  1
  O  O203  1  -0.04795316  0.77620898  0.91420926  1
  O  O204  1  0.49267385  0.26964097  0.35003291  1
  O  O205  1  0.49348593  0.25760893  0.86920311  1
  O  O206  1  0.48004383  0.76094374  0.37070249  1
  O  O207  1  0.51098652  0.75074572  0.87109109  1
  O  O208  1  0.26841162  0.14140521  0.49163183  1
  O  O209  1  0.24432365  0.14184912  0.99563071  1
  O  O210  1  0.24888842  0.61689835  0.48520540  1
  O  O211  1  0.24210232  0.62787275  0.98256410  1
  O  O212  1  0.80458659  0.17007029  0.51062060  1
  O  O213  1  0.71959983  0.11312832  0.98539215  1
  O  O214  1  0.73832330  0.63447002  0.50568751  1
  O  O215  1  0.74215409  0.62948164  1.00480692  1
  O  O216  1  0.26337629  0.36581674  -0.01016409  1
  O  O217  1  0.25393031  0.36416253  0.51225041  1
  O  O218  1  0.24650266  0.85377006  -0.02125359  1
  O  O219  1  0.25435039  0.88414934  0.48208908  1
  O  O220  1  0.75731031  0.38040168  0.00474148  1
  O  O221  1  0.75099476  0.35390058  0.51572552  1
  O  O222  1  0.74038821  0.88799760  0.02213051  1
  O  O223  1  0.74720614  0.84798094  0.46602699  1
  O  O224  1  0.12060031  0.48900293  0.23587445  1
  O  O225  1  0.12594794  0.46986885  0.76094576  1
  O  O226  1  0.11779551  1.01918252  0.21542629  1
  O  O227  1  0.14654396  1.01141962  0.72252578  1
  O  O228  1  0.61612315  0.49064272  0.23132361  1
  O  O229  1  0.62773508  0.47837614  0.77564468  1
  O  O230  1  0.61987089  0.99664833  0.23918754  1
  O  O231  1  0.62044341  1.00078759  0.73086071  1
  O  O232  1  0.39674523  0.00881588  0.26452771  1
  O  O233  1  0.35223038  -0.00078832  0.74682544  1
  O  O234  1  0.45188782  0.59160638  0.22786738  1
  O  O235  1  0.38006594  0.49069368  0.76616288  1
  O  O236  1  0.84924033  0.00794185  0.24559803  1
  O  O237  1  0.88068582  0.02463378  0.73348461  1
  O  O238  1  0.87211138  0.51441050  0.26152832  1
  O  O239  1  0.87738806  0.48091542  0.76721202  1
  O  O240  1  0.10879069  0.35013460  0.41608569  1
  O  O241  1  0.11036322  0.37001620  0.88556608  1
  O  O242  1  0.12584511  0.84433131  0.37618495  1
  O  O243  1  0.09999870  0.88515852  0.88936597  1
  O  O244  1  0.61695289  0.38039894  0.34954341  1
  O  O245  1  0.61263042  0.36205069  0.88349322  1
  O  O246  1  0.60599237  0.87875372  0.36081211  1
  O  O247  1  0.52196011  0.89244389  0.94278485  1
  O  O248  1  0.37166212  0.13573592  0.11520233  1
  O  O249  1  0.37545633  0.13685880  0.62617148  1
  O  O250  1  0.35643259  0.63423802  0.12357984  1
  O  O251  1  0.40573906  0.63360934  0.61248508  1
  O  O252  1  0.85718472  0.13725703  0.10692040  1
  O  O253  1  0.85053337  0.08148199  0.69756835  1
  O  O254  1  0.88507617  0.61597814  0.14314755  1
  O  O255  1  0.88009782  0.60851234  0.62875437  1
  O  O256  1  0.26211526  0.25360622  0.11039446  1
  O  O257  1  0.26858906  0.25248094  0.61079962  1
  O  O258  1  0.25057657  0.75297740  0.11218873  1
  O  O259  1  0.23790064  0.77498557  0.59956298  1
  O  O260  1  0.74408020  0.26166041  0.11213170  1
  O  O261  1  0.72138299  0.25975455  0.61931742  1
  O  O262  1  0.73769080  0.76867974  0.12797253  1
  O  O263  1  0.75021298  0.75686951  0.61542911  1
  O  O264  1  0.26148836  0.25614241  0.38248259  1
  O  O265  1  0.26369787  0.24394590  0.88772788  1
  O  O266  1  0.25161893  0.72245362  0.36919721  1
  O  O267  1  0.25659419  0.72888219  0.87755151  1
  O  O268  1  0.75336065  0.25636859  0.38985478  1
  O  O269  1  0.72964389  0.25321683  0.88080444  1
  O  O270  1  0.74565091  0.78819784  0.40452479  1
  O  O271  1  0.66748765  0.83395002  0.88022313  1
  O  O272  1  0.01643812  0.12685279  -0.01661572  1
  O  O273  1  -0.05245382  0.12517558  0.56953445  1
  O  O274  1  -0.00706029  0.60516700  0.00793102  1
  O  O275  1  0.01703704  0.62994103  0.53382997  1
  O  O276  1  0.50339069  0.12376678  -0.00620930  1
  O  O277  1  0.52837952  0.12724844  0.44746146  1
  O  O278  1  0.49742945  0.61238028  -0.00110213  1
  O  O279  1  0.52003167  0.61955333  0.49794904  1
  O  O280  1  0.52880313  0.36612830  0.48740235  1
  O  O281  1  0.48658664  0.38121073  0.99247046  1
  O  O282  1  0.50629111  0.86907091  0.48320705  1
  O  O283  1  0.48367183  0.86963917  1.00198034  1
  O  O284  1  0.95872666  0.35872296  0.49266214  1
  O  O285  1  0.98312919  0.37819961  0.99456623  1
  O  O286  1  0.99758903  0.85626455  0.46554820  1
  O  O287  1  0.95908851  0.79475107  0.98388206  1
  O  O288  1  0.49099195  0.47938844  0.36398054  1
  O  O289  1  0.49132927  0.49351440  0.88795182  1
  O  O290  1  0.49023783  0.98703853  0.37959950  1
  O  O291  1  0.47314235  1.00830493  0.86455497  1
  O  O292  1  0.98531230  0.48595157  0.37788923  1
  O  O293  1  0.99102665  0.48240299  0.88651089  1
  O  O294  1  1.06035797  0.98344887  0.37421893  1
  O  O295  1  1.04764680  0.94168455  0.87685251  1
  O  O296  1  0.04726957  0.03621730  0.19731189  1
  O  O297  1  0.02652316  -0.00587021  0.62372553  1
  O  O298  1  0.00071596  0.49846675  0.11499863  1
  O  O299  1  -0.01773662  0.47929446  0.61079430  1
  O  O300  1  0.50178782  -0.00497700  0.13451126  1
  O  O301  1  0.51608060  0.00041215  0.61934003  1
  O  O302  1  0.50674115  0.49352124  0.11081111  1
  O  O303  1  0.49716227  0.49502405  0.61509303  1
  O  O304  1  0.35570947  0.43933068  0.27860285  1
  O  O305  1  0.24579731  0.37136192  0.73147693  1
  O  O306  1  0.24465925  0.87392796  0.25046701  1
  O  O307  1  0.23702397  0.87831495  0.74863426  1
  O  O308  1  0.72788652  0.37097542  0.22519683  1
  O  O309  1  0.73375312  0.35982914  0.74441719  1
  O  O310  1  0.73089076  0.88764606  0.24580331  1
  O  O311  1  0.79390113  0.88731198  0.73266422  1
  O  O312  1  0.25286419  0.14071360  0.24693976  1
  O  O313  1  0.24705872  0.14104402  0.75967711  1
  O  O314  1  0.25275496  0.60611570  0.25889130  1
  O  O315  1  0.24299957  0.61842952  0.76592428  1
  O  O316  1  0.72991358  0.11440356  0.25040981  1
  O  O317  1  0.72952470  0.12691851  0.77952253  1
  O  O318  1  0.75483391  0.62047757  0.25058397  1
  O  O319  1  0.83962561  0.72212834  0.76757350  1
  O  O320  1  0.36657573  0.12125844  0.36506798  1
  O  O321  1  0.35369339  0.11387304  0.87695320  1
  O  O322  1  0.37025345  0.60247833  0.37095306  1
  O  O323  1  0.37686947  0.60947890  0.87499083  1
  O  O324  1  0.91530034  0.08091881  0.39058786  1
  O  O325  1  0.84470106  0.11880125  0.88853927  1
  O  O326  1  0.88085239  0.61438166  0.36381710  1
  O  O327  1  0.89002773  0.60346896  0.87119314  1
  O  O328  1  0.11645739  0.38097817  0.11965071  1
  O  O329  1  0.14287905  0.37834142  0.62460529  1
  O  O330  1  0.14929763  0.88000803  0.11703109  1
  O  O331  1  0.14151348  0.88927571  0.59756491  1
  O  O332  1  0.63023327  0.38600114  0.11251477  1
  O  O333  1  0.61478262  0.37903634  0.64762349  1
  O  O334  1  0.62085394  0.88572371  0.13280937  1
  O  O335  1  0.62654655  0.89686568  0.62279406  1
  O  O336  1  0.12822130  0.26245202  0.27627857  1
  O  O337  1  0.13182616  0.26789150  0.75158147  1
  O  O338  1  0.13474779  0.73078996  0.25903400  1
  O  O339  1  0.01561637  0.76560854  0.77211112  1
  O  O340  1  0.60977456  0.26393126  0.22973133  1
  O  O341  1  0.60938457  0.25799665  0.76897959  1
  O  O342  1  0.61907876  0.76465995  0.24208852  1
  O  O343  1  0.63679963  0.72803122  0.76638585  1
  O  O344  1  0.38109275  0.25904535  0.23157371  1
  O  O345  1  0.38562094  0.25476411  0.74313322  1
  O  O346  1  0.36621934  0.74401747  0.23683965  1
  O  O347  1  0.34414558  0.73949190  0.70862060  1
  O  O348  1  0.85259466  0.24912643  0.22854478  1
  O  O349  1  0.87050884  0.24254256  0.73276787  1
  O  O350  1  0.86316189  0.73478419  0.26507703  1
  O  O351  1  0.81423688  0.75120595  0.82990321  1
  O  O352  1  0.38341021  0.49569340  0.48328828  1
  O  O353  1  0.38230456  0.49164613  0.99620323  1
  O  O354  1  0.37094306  1.00925203  0.47630859  1
  O  O355  1  0.34918976  0.99220589  0.97242309  1
  O  O356  1  0.84555928  0.51013881  0.47038885  1
  O  O357  1  0.88152502  0.48752168  0.99688191  1
  O  O358  1  0.83879334  0.99146435  0.49992369  1
  O  O359  1  0.88638650  1.00052069  0.99854201  1
  O  O360  1  0.13796551  0.02031664  0.00534984  1
  O  O361  1  0.14250265  0.01622636  0.50471958  1
  O  O362  1  0.10612425  0.49538979  0.00354131  1
  O  O363  1  0.12484300  0.51681448  0.49720291  1
  O  O364  1  0.60742707  0.00660174  0.01596660  1
  O  O365  1  0.62805223  -0.00008600  0.52045569  1
  O  O366  1  0.61323767  0.51171820  0.00333131  1
  O  O367  1  0.65257532  0.51863274  0.44927486  1
  O  O368  1  0.37435290  0.38109230  0.10966270  1
  O  O369  1  0.36975030  0.36050510  0.62868804  1
  O  O370  1  0.35406410  0.85473867  0.12446832  1
  O  O371  1  0.36568073  0.86725814  0.61462721  1
  O  O372  1  0.85545986  0.37447431  0.11709052  1
  O  O373  1  0.86187502  0.34229246  0.64170760  1
  O  O374  1  0.85453872  0.88115954  0.13326455  1
  O  O375  1  0.85231890  0.86218306  0.69451121  1
  O  O376  1  0.15638585  0.14078345  0.37282044  1
  O  O377  1  0.14272926  0.13362651  0.88663891  1
  O  O378  1  0.14094607  0.61691592  0.37236245  1
  O  O379  1  0.12845153  0.61118921  0.87480711  1
  O  O380  1  0.58260882  0.11544330  0.39880623  1
  O  O381  1  0.61896367  0.13272503  0.88513409  1
  O  O382  1  0.61754992  0.64528782  0.37517550  1
  O  O383  1  0.62537161  0.63346290  0.89042595  1
