# generated using pymatgen
data_VZnO4
_symmetry_space_group_name_H-M   'P 1'
_cell_length_a   16.97233389
_cell_length_b   16.94943735
_cell_length_c   16.98388692
_cell_angle_alpha   89.80009492
_cell_angle_beta   90.14718507
_cell_angle_gamma   90.44361619
_symmetry_Int_Tables_number   1
_chemical_formula_structural   VZnO4
_chemical_formula_sum   'V64 Zn64 O256'
_cell_volume   4885.58843070
_cell_formula_units_Z   64
loop_
 _symmetry_equiv_pos_site_id
 _symmetry_equiv_pos_as_xyz
  1  'x, y, z'
loop_
 _atom_site_type_symbol
 _atom_site_label
 _atom_site_symmetry_multiplicity
 _atom_site_fract_x
 _atom_site_fract_y
 _atom_site_fract_z
 _atom_site_occupancy
  V  V0  1  0.62333486  0.48567264  0.10750263  1
  V  V1  1  0.89157452  0.01467843  0.88228407  1
  V  V2  1  0.34463474  -0.01176105  0.87879693  1
  V  V3  1  -0.00475921  0.63612552  0.62658082  1
  V  V4  1  0.63742093  0.61069758  0.47202197  1
  V  V5  1  -0.02196637  0.86212098  0.86347238  1
  V  V6  1  0.71736178  0.10563389  0.82337762  1
  V  V7  1  0.12495289  0.37278846  0.75162246  1
  V  V8  1  0.36195801  0.11629455  0.25664461  1
  V  V9  1  0.00540890  0.13404236  0.62910779  1
  V  V10  1  0.50277712  0.12019169  0.62287520  1
  V  V11  1  0.64581972  0.76406809  0.90095271  1
  V  V12  1  0.26446435  0.62388612  0.35751126  1
  V  V13  1  0.77098241  0.84626674  0.13181526  1
  V  V14  1  -0.00858779  0.49036520  0.01732006  1
  V  V15  1  0.74919393  0.36739550  0.16455718  1
  V  V16  1  0.76817791  0.88293195  0.62547964  1
  V  V17  1  0.86937773  0.49003334  0.36827909  1
  V  V18  1  0.25938858  0.38225113  0.62639506  1
  V  V19  1  0.24639564  0.76291936  0.00571068  1
  V  V20  1  0.02165573  0.36548504  0.37359344  1
  V  V21  1  0.13584190  -0.00755929  0.63698005  1
  V  V22  1  0.88863505  0.13943308  0.74615978  1
  V  V23  1  0.14754948  0.39241953  0.24312745  1
  V  V24  1  0.72918735  0.25030569  0.49280837  1
  V  V25  1  0.11598758  0.89581412  0.21976909  1
  V  V26  1  0.13386785  0.50640210  0.62768099  1
  V  V27  1  0.64465982  0.00801366  0.13918704  1
  V  V28  1  0.74862164  0.59606089  0.90150125  1
  V  V29  1  0.49941675  -0.00787180  0.50799662  1
  V  V30  1  0.00418533  0.49819809  0.49689130  1
  V  V31  1  0.49485721  0.25022346  0.26961989  1
  V  V32  1  0.51809801  0.86949235  0.38059599  1
  V  V33  1  0.49680168  0.50722473  0.51727951  1
  V  V34  1  0.24704481  0.14794641  0.38582058  1
  V  V35  1  0.35424960  -0.01715963  0.38544434  1
  V  V36  1  0.86148578  0.62945798  0.25291706  1
  V  V37  1  0.61521030  0.24116880  0.84755414  1
  V  V38  1  0.37796054  0.37646736  0.48632419  1
  V  V39  1  0.86628091  0.35400894  0.01196217  1
  V  V40  1  0.86653521  0.12958388  0.24288902  1
  V  V41  1  0.13298442  0.23756423  0.90222828  1
  V  V42  1  0.11415857  0.75012160  0.35730031  1
  V  V43  1  -0.00803162  0.38430357  0.86778795  1
  V  V44  1  0.88646774  0.35645865  0.50842809  1
  V  V45  1  0.37461783  0.24957106  0.63627336  1
  V  V46  1  0.11585667  0.62597149  -0.01032534  1
  V  V47  1  0.51038253  0.88563709  0.87426316  1
  V  V48  1  -0.00857722  0.63967927  0.12903497  1
  V  V49  1  0.25566056  0.76258711  0.50355634  1
  V  V50  1  0.49044522  0.12042023  0.11841391  1
  V  V51  1  0.84448760  0.61107813  0.73498705  1
  V  V52  1  0.86906289  0.01076557  0.37822183  1
  V  V53  1  0.64778528  0.13800535  0.01234391  1
  V  V54  1  0.00084900  0.88717410  0.38154811  1
  V  V55  1  0.12399607  0.13070523  0.50043014  1
  V  V56  1  0.12806155  0.62990531  0.49411718  1
  V  V57  1  0.35723366  0.24168068  0.11405265  1
  V  V58  1  0.34637176  0.76406435  0.64611510  1
  V  V59  1  0.01228457  0.24847190  0.23711413  1
  V  V60  1  0.35663778  0.10753303  0.75018114  1
  V  V61  1  0.51708132  0.75061627  0.73456194  1
  V  V62  1  0.26500188  0.41196527  0.11098557  1
  V  V63  1  0.69646984  0.37980230  0.65995056  1
  Zn  Zn64  1  0.19350021  0.20404152  0.21125383  1
  Zn  Zn65  1  0.18906502  0.19255343  0.68087518  1
  Zn  Zn66  1  0.18106165  0.67395261  0.17265989  1
  Zn  Zn67  1  0.28664866  0.62863968  0.72239209  1
  Zn  Zn68  1  0.67874759  0.17786389  0.31266597  1
  Zn  Zn69  1  0.69434742  0.18597953  0.66455097  1
  Zn  Zn70  1  0.69078477  0.67041016  0.07786907  1
  Zn  Zn71  1  0.69136714  0.68740899  0.65706620  1
  Zn  Zn72  1  0.31911122  0.31594790  0.30556381  1
  Zn  Zn73  1  0.29860416  0.30461334  0.80060238  1
  Zn  Zn74  1  0.27638777  0.82783012  0.31489494  1
  Zn  Zn75  1  0.32291568  0.79099664  0.85316885  1
  Zn  Zn76  1  0.82957909  0.29605377  0.33049540  1
  Zn  Zn77  1  0.79994346  0.30353563  0.81074990  1
  Zn  Zn78  1  0.81410717  0.82420056  0.30347644  1
  Zn  Zn79  1  0.83413653  0.79784966  0.80953704  1
  Zn  Zn80  1  0.19908553  0.44523674  0.43790971  1
  Zn  Zn81  1  0.17762498  0.45156561  0.93859210  1
  Zn  Zn82  1  0.17340782  0.94288492  0.44464918  1
  Zn  Zn83  1  0.16632729  0.89728209  0.89914234  1
  Zn  Zn84  1  0.70642465  0.44475269  0.48020478  1
  Zn  Zn85  1  0.68304588  0.40974711  0.93541779  1
  Zn  Zn86  1  0.66343564  0.99899065  0.40014233  1
  Zn  Zn87  1  0.70711294  0.95840562  0.95374142  1
  Zn  Zn88  1  0.36169928  0.00554558  0.08834251  1
  Zn  Zn89  1  0.30626050  0.05702732  0.56056210  1
  Zn  Zn90  1  0.34190821  0.61371593  0.10514167  1
  Zn  Zn91  1  0.31966780  0.57481761  0.55174961  1
  Zn  Zn92  1  0.82051699  0.07117513  0.07067184  1
  Zn  Zn93  1  0.82269761  0.07844325  0.55714007  1
  Zn  Zn94  1  0.81985157  0.53781180  0.07678263  1
  Zn  Zn95  1  0.81336259  0.54278305  0.56706441  1
  Zn  Zn96  1  0.45637009  0.40559173  0.16182336  1
  Zn  Zn97  1  0.48205788  0.42132057  0.67622552  1
  Zn  Zn98  1  0.51069713  0.93135646  0.19951600  1
  Zn  Zn99  1  0.43515476  0.93247127  0.69466229  1
  Zn  Zn100  1  0.93360470  0.42148129  0.19162067  1
  Zn  Zn101  1  0.94171942  0.44283456  0.68710809  1
  Zn  Zn102  1  0.93028676  0.92705985  0.21565743  1
  Zn  Zn103  1  0.95217718  0.95875656  0.69862085  1
  Zn  Zn104  1  0.07130445  0.06325428  0.31082971  1
  Zn  Zn105  1  0.06883093  0.06452762  0.81139044  1
  Zn  Zn106  1  0.05703654  0.56265178  0.30751531  1
  Zn  Zn107  1  0.10784712  0.61521552  0.79106487  1
  Zn  Zn108  1  0.53819242  0.06377284  0.31885292  1
  Zn  Zn109  1  0.53336370  0.09247839  0.82285705  1
  Zn  Zn110  1  0.64755487  0.61086040  0.25900573  1
  Zn  Zn111  1  0.55332097  0.61044606  0.84180061  1
  Zn  Zn112  1  0.42850072  0.18543267  0.44862464  1
  Zn  Zn113  1  0.42706519  0.17935681  0.93403135  1
  Zn  Zn114  1  0.47434716  0.66095190  0.37363589  1
  Zn  Zn115  1  0.44445746  0.75440672  1.00065266  1
  Zn  Zn116  1  0.95084723  0.18123082  0.43172466  1
  Zn  Zn117  1  0.93709807  0.21644888  0.91184515  1
  Zn  Zn118  1  0.94399438  0.67750870  0.42404278  1
  Zn  Zn119  1  0.94890189  0.65120034  0.90377802  1
  Zn  Zn120  1  0.07785258  0.32241196  0.06385157  1
  Zn  Zn121  1  0.07408457  0.31099389  0.56195238  1
  Zn  Zn122  1  0.05657788  0.81355745  0.04031012  1
  Zn  Zn123  1  0.06356200  0.81545587  0.55754953  1
  Zn  Zn124  1  0.61082696  0.26948185  0.13435492  1
  Zn  Zn125  1  0.55114231  0.31092530  0.55842210  1
  Zn  Zn126  1  0.60371995  0.85503070  0.03090734  1
  Zn  Zn127  1  0.47984053  0.77118465  0.52369129  1
  O  O128  1  0.21293910  0.07104062  0.11528673  1
  O  O129  1  0.12431064  0.12060001  0.62020328  1
  O  O130  1  0.09732333  0.61992201  0.10860223  1
  O  O131  1  0.11613357  0.61338780  0.60960925  1
  O  O132  1  0.59977487  0.11521388  0.12521635  1
  O  O133  1  0.60012095  0.12740770  0.62632616  1
  O  O134  1  0.63848847  0.58934936  0.14365343  1
  O  O135  1  0.61025712  0.65622118  0.57752290  1
  O  O136  1  0.36822821  0.37756165  0.38870310  1
  O  O137  1  0.39387388  0.38470208  0.81963437  1
  O  O138  1  0.35812889  0.88260389  0.37045765  1
  O  O139  1  0.39054124  0.89081477  0.86755325  1
  O  O140  1  0.89952752  0.37719698  0.38513228  1
  O  O141  1  0.89225459  0.35023689  0.87939564  1
  O  O142  1  0.89196346  0.89459504  0.35497995  1
  O  O143  1  0.87687742  0.90376031  0.86686768  1
  O  O144  1  0.25404818  0.00300172  0.38122212  1
  O  O145  1  0.24722175  -0.02892748  0.86574593  1
  O  O146  1  0.25204059  0.52519387  0.37853142  1
  O  O147  1  0.27185149  0.49078927  0.86520186  1
  O  O148  1  0.77078150  -0.00370946  0.36868999  1
  O  O149  1  0.75888956  0.02405575  0.87300325  1
  O  O150  1  0.77253309  0.48279582  0.38780739  1
  O  O151  1  0.73150135  0.50125227  0.88147831  1
  O  O152  1  0.29691024  0.50669758  0.12286987  1
  O  O153  1  0.23939608  0.50246402  0.61857321  1
  O  O154  1  0.24730530  1.00624727  0.12823108  1
  O  O155  1  0.23801960  1.00051946  0.62828533  1
  O  O156  1  0.74079272  0.47215176  0.12481357  1
  O  O157  1  0.73624755  0.45718886  0.60203914  1
  O  O158  1  0.74401459  1.01120669  0.14423166  1
  O  O159  1  0.77378839  0.98766471  0.62328880  1
  O  O160  1  0.00941418  0.37063187  0.26486572  1
  O  O161  1  0.01156101  0.38310772  0.75758676  1
  O  O162  1  0.01737466  0.87293762  0.26351686  1
  O  O163  1  0.00162752  0.87940166  0.76807533  1
  O  O164  1  0.47927363  0.35023599  0.25551247  1
  O  O165  1  0.54076122  0.45204947  0.78953885  1
  O  O166  1  0.49100446  0.86272276  0.28280839  1
  O  O167  1  0.49918236  0.86110200  0.76471065  1
  O  O168  1  0.47400863  0.13132770  0.25234822  1
  O  O169  1  0.47165765  0.11244860  0.72649671  1
  O  O170  1  0.52011024  0.60666705  0.27814416  1
  O  O171  1  0.48517820  0.65814465  0.76723063  1
  O  O172  1  1.03529336  0.15010017  0.24531327  1
  O  O173  1  1.00003036  0.13341640  0.74030241  1
  O  O174  1  0.99338388  0.62262402  0.23410013  1
  O  O175  1  1.01429040  0.62765418  0.72561520  1
  O  O176  1  0.36995824  0.23552388  0.01510522  1
  O  O177  1  0.37942889  0.27244805  0.51022108  1
  O  O178  1  0.34221516  0.73937187  -0.04168236  1
  O  O179  1  0.35793777  0.75151447  0.51548754  1
  O  O180  1  0.89739740  0.25806739  0.00870978  1
  O  O181  1  0.89292491  0.25660405  0.49720534  1
  O  O182  1  0.87125584  0.79292126  0.00713136  1
  O  O183  1  0.83709452  0.73246797  0.45910023  1
  O  O184  1  0.13642000  0.23213154  0.50940637  1
  O  O185  1  0.13146693  0.24476757  1.00309367  1
  O  O186  1  0.12987326  0.74018162  0.49466822  1
  O  O187  1  0.13480861  0.73311013  1.01241885  1
  O  O188  1  0.63093761  0.26874741  0.49047938  1
  O  O189  1  0.60943560  0.23189546  1.02492561  1
  O  O190  1  0.60979253  0.71302617  0.51584805  1
  O  O191  1  0.63148302  0.74192751  1.00237714  1
  O  O192  1  0.48062263  0.23096928  0.13801860  1
  O  O193  1  0.48231234  0.23442577  0.61647144  1
  O  O194  1  0.52412525  0.74272509  0.15966248  1
  O  O195  1  0.47022120  0.75620703  0.63838875  1
  O  O196  1  1.00764265  0.27199235  0.14045110  1
  O  O197  1  1.01378892  0.23502792  0.62226715  1
  O  O198  1  0.99034917  0.73665285  0.11157377  1
  O  O199  1  0.99954761  0.73367315  0.60783392  1
  O  O200  1  0.01502722  0.26370430  0.37362203  1
  O  O201  1  0.03126466  0.27405333  0.87978544  1
  O  O202  1  0.01066449  0.75564157  0.37555442  1
  O  O203  1  -0.05577290  0.76467955  0.86857032  1
  O  O204  1  0.48980088  0.23974713  0.36892117  1
  O  O205  1  0.51383762  0.20541728  0.86465858  1
  O  O206  1  0.50339015  0.76637803  0.40852599  1
  O  O207  1  0.54679857  0.76317211  0.85745635  1
  O  O208  1  0.24981888  0.13109810  0.48908000  1
  O  O209  1  0.17160293  0.05625302  0.99986489  1
  O  O210  1  0.24040556  0.63639757  0.48768599  1
  O  O211  1  0.20762207  0.60599316  0.96848712  1
  O  O212  1  0.74711105  0.16103902  0.54401209  1
  O  O213  1  0.74571801  0.14616976  1.02387427  1
  O  O214  1  0.73390908  0.59880100  0.50173038  1
  O  O215  1  0.75994364  0.60920135  1.00275099  1
  O  O216  1  0.25067055  0.40429725  0.01277942  1
  O  O217  1  0.26950680  0.39058152  0.51460315  1
  O  O218  1  0.25313327  0.84906537  0.04759035  1
  O  O219  1  0.24031054  0.85914566  0.48810046  1
  O  O220  1  0.77101354  0.35345106  -0.01678051  1
  O  O221  1  0.77707950  0.35297236  0.48765774  1
  O  O222  1  0.72762998  0.88358546  0.04109548  1
  O  O223  1  0.77578074  0.87377145  0.52441750  1
  O  O224  1  0.12201768  0.48847515  0.25072603  1
  O  O225  1  0.12047436  0.49696589  0.72771959  1
  O  O226  1  0.11930740  0.99559672  0.23415333  1
  O  O227  1  0.12578498  1.00088308  0.73989367  1
  O  O228  1  0.52017257  0.48265559  0.12029793  1
  O  O229  1  0.59169869  0.50819306  0.78435613  1
  O  O230  1  0.60376415  1.01064811  0.23547121  1
  O  O231  1  0.63861810  1.06958140  0.77418119  1
  O  O232  1  0.36921294  0.01514814  0.27161921  1
  O  O233  1  0.36086269  0.00332932  0.75268882  1
  O  O234  1  0.46977167  0.59173608  0.21261937  1
  O  O235  1  0.40145092  0.44467375  0.77384779  1
  O  O236  1  0.89227756  0.02348138  0.25986509  1
  O  O237  1  0.88512079  0.02494098  0.76619306  1
  O  O238  1  0.87926978  0.48928870  0.26578255  1
  O  O239  1  0.88150485  0.51562358  0.74472137  1
  O  O240  1  0.12536082  0.38435907  0.36904931  1
  O  O241  1  0.12284250  0.39082822  0.85630196  1
  O  O242  1  0.11772036  0.86247052  0.37324238  1
  O  O243  1  0.06142788  0.86557450  0.93006574  1
  O  O244  1  0.62162316  0.39042664  0.35798526  1
  O  O245  1  0.61914220  0.33617759  0.87922475  1
  O  O246  1  0.61518983  0.89149688  0.38126834  1
  O  O247  1  0.62473684  0.87798413  0.90371531  1
  O  O248  1  0.36742522  0.12777590  0.14180712  1
  O  O249  1  0.36293548  0.13820030  0.62967871  1
  O  O250  1  0.40988276  0.64077373  0.20609429  1
  O  O251  1  0.35069923  0.64255681  0.63647745  1
  O  O252  1  0.88685109  0.12589379  0.14419427  1
  O  O253  1  0.89595705  0.12318460  0.63419599  1
  O  O254  1  0.88037978  0.61045008  0.14412067  1
  O  O255  1  0.88874240  0.61161672  0.62352829  1
  O  O256  1  0.25662665  0.24150251  0.12545182  1
  O  O257  1  0.26499966  0.26789190  0.62738469  1
  O  O258  1  0.26454915  0.69504590  0.09461806  1
  O  O259  1  0.24300052  0.75765990  0.60994766  1
  O  O260  1  0.73177099  0.27413227  0.13428761  1
  O  O261  1  0.72566935  0.29027833  0.61807603  1
  O  O262  1  0.76415800  0.74513285  0.12184673  1
  O  O263  1  0.76108147  0.77802671  0.62247461  1
  O  O264  1  0.25062505  0.24633755  0.37470332  1
  O  O265  1  0.22865347  0.26690180  0.87683023  1
  O  O266  1  0.23285772  0.74203275  0.38094484  1
  O  O267  1  0.21976275  0.79812104  0.90160373  1
  O  O268  1  0.75139767  0.23306057  0.39178947  1
  O  O269  1  0.72831095  0.21642504  0.85246001  1
  O  O270  1  0.78349528  0.75780112  0.41344581  1
  O  O271  1  0.74119777  0.77737052  0.87296487  1
  O  O272  1  0.04166139  0.10143374  0.06892900  1
  O  O273  1  0.01724755  0.12722483  0.50805388  1
  O  O274  1  -0.02512622  0.60344412  0.01611443  1
  O  O275  1  0.00631676  0.61576116  0.50230212  1
  O  O276  1  0.48100791  0.11879206  0.01977021  1
  O  O277  1  0.48116969  0.10954047  0.51501264  1
  O  O278  1  0.44538625  0.64266195  0.04173050  1
  O  O279  1  0.50555565  0.60093862  0.46986310  1
  O  O280  1  0.48897044  0.39400626  0.50152176  1
  O  O281  1  0.48197659  0.38584135  0.95549251  1
  O  O282  1  0.48977364  0.88681707  0.49741085  1
  O  O283  1  0.49397142  0.85192259  0.97932046  1
  O  O284  1  1.00687687  0.37740271  0.49020723  1
  O  O285  1  1.00161351  0.38056416  0.99340636  1
  O  O286  1  0.99654203  0.86757996  0.47935564  1
  O  O287  1  0.92473972  0.84333171  1.00544796  1
  O  O288  1  0.60406459  0.44610787  0.31484538  1
  O  O289  1  0.51378884  0.57221618  0.94729272  1
  O  O290  1  0.48066221  0.98565242  0.38801093  1
  O  O291  1  0.51391083  0.98521058  0.86890932  1
  O  O292  1  1.00196864  0.48892023  0.38449147  1
  O  O293  1  0.98665716  0.48197317  0.88518779  1
  O  O294  1  1.00965376  0.99022516  0.37779218  1
  O  O295  1  0.99376775  1.00247651  0.88138551  1
  O  O296  1  0.02482512  0.03224364  0.08173178  1
  O  O297  1  0.01598750  0.02123084  0.62826019  1
  O  O298  1  -0.00204650  0.48289946  0.11759236  1
  O  O299  1  0.01357738  0.50059518  0.60893869  1
  O  O300  1  0.46479310  0.01537075  0.13588510  1
  O  O301  1  0.48497794  0.00375493  0.61671367  1
  O  O302  1  0.42108361  0.42150682  -0.03000364  1
  O  O303  1  0.50114430  0.52023588  0.61553101  1
  O  O304  1  0.25052443  0.38818057  0.24649443  1
  O  O305  1  0.23827481  0.38483966  0.73607274  1
  O  O306  1  0.21364558  0.86496749  0.23304382  1
  O  O307  1  0.16733472  0.82785891  0.75193707  1
  O  O308  1  0.76532586  0.36257129  0.26321785  1
  O  O309  1  0.73531915  0.37936144  0.75291754  1
  O  O310  1  0.73684458  0.85845128  0.22873111  1
  O  O311  1  0.77340941  0.87069247  0.73159662  1
  O  O312  1  0.25291848  0.12752070  0.26895812  1
  O  O313  1  0.25993501  0.13227588  0.74887656  1
  O  O314  1  0.24295203  0.63212496  0.25910499  1
  O  O315  1  0.21617750  0.62249951  0.79949933  1
  O  O316  1  0.76868073  0.14314196  0.24891014  1
  O  O317  1  0.77261463  0.12637984  0.73218875  1
  O  O318  1  0.76378495  0.61103511  0.25538863  1
  O  O319  1  0.74613677  0.60436134  0.70848695  1
  O  O320  1  0.35858552  0.12481441  0.37312656  1
  O  O321  1  0.37503550  0.10191461  0.85946891  1
  O  O322  1  0.36249658  0.64241416  0.36529360  1
  O  O323  1  0.44312973  0.59807413  0.96572210  1
  O  O324  1  0.88921861  0.11870417  0.36171285  1
  O  O325  1  0.88886567  0.12847292  0.86170943  1
  O  O326  1  0.88765640  0.60012584  0.36219867  1
  O  O327  1  0.84191316  0.62000414  0.85744285  1
  O  O328  1  0.15536594  0.38742566  0.13246027  1
  O  O329  1  0.13564873  0.38824894  0.62542111  1
  O  O330  1  0.09247329  0.88157179  0.12269371  1
  O  O331  1  0.11364922  0.89484819  0.61643977  1
  O  O332  1  0.63403146  0.38662602  0.15557166  1
  O  O333  1  0.58980001  0.37820449  0.64869746  1
  O  O334  1  0.59884448  0.91078907  0.12659545  1
  O  O335  1  0.66695005  0.89625078  0.62997760  1
  O  O336  1  0.12216667  0.28017445  0.24864443  1
  O  O337  1  0.12882767  0.27327807  0.74241026  1
  O  O338  1  0.12132890  0.74107431  0.25882134  1
  O  O339  1  0.12523500  0.77024434  0.73939070  1
  O  O340  1  0.59813312  0.23790351  0.24931970  1
  O  O341  1  0.61819579  0.23941001  0.74786155  1
  O  O342  1  0.58899923  0.74866400  0.19356529  1
  O  O343  1  0.61451463  0.74434097  0.71667405  1
  O  O344  1  0.37292539  0.23645319  0.24511917  1
  O  O345  1  0.37547468  0.24096450  0.74058147  1
  O  O346  1  0.36552503  0.81063813  0.17278374  1
  O  O347  1  0.33951405  0.75076900  0.74890641  1
  O  O348  1  0.90441691  0.23707929  0.26178471  1
  O  O349  1  0.87710503  0.23933396  0.75391712  1
  O  O350  1  0.86882359  0.72791357  0.26902461  1
  O  O351  1  0.86456328  0.71255266  0.73982125  1
  O  O352  1  0.38803459  0.49493522  0.50431382  1
  O  O353  1  0.32983189  0.52054828  0.89926846  1
  O  O354  1  0.37260683  0.99843979  0.48812865  1
  O  O355  1  0.35401236  1.00079521  0.97778394  1
  O  O356  1  0.88954506  0.48546528  0.49176631  1
  O  O357  1  0.88403875  0.47098803  1.00414374  1
  O  O358  1  0.87910845  1.02089048  0.47914844  1
  O  O359  1  0.86898928  1.02022062  0.98177680  1
  O  O360  1  0.15414461  -0.01460252  0.00306375  1
  O  O361  1  0.13409210  0.02052784  0.51519850  1
  O  O362  1  0.09653273  0.50971124  -0.00685109  1
  O  O363  1  0.12180729  0.50850432  0.50165239  1
  O  O364  1  0.63736549  0.02471105  0.02385690  1
  O  O365  1  0.59779049  0.00189862  0.50019435  1
  O  O366  1  0.62882206  0.47822563  0.00851918  1
  O  O367  1  0.60867433  0.50227477  0.48597258  1
  O  O368  1  0.35942130  0.35678306  0.12593239  1
  O  O369  1  0.37949413  0.36586943  0.63328271  1
  O  O370  1  0.40034694  0.86223259  0.13224134  1
  O  O371  1  0.36153173  0.86283026  0.63902245  1
  O  O372  1  0.85734422  0.36806522  0.12080217  1
  O  O373  1  0.89430711  0.37474968  0.60605795  1
  O  O374  1  0.86815492  0.87857669  0.13886822  1
  O  O375  1  0.87437332  0.88857983  0.63669249  1
  O  O376  1  0.13830576  0.12236180  0.38842334  1
  O  O377  1  0.12028077  0.14083159  0.87763673  1
  O  O378  1  0.11786726  0.63555760  0.38001050  1
  O  O379  1  0.06492240  0.63932554  0.89607949  1
  O  O380  1  0.62537820  0.10291474  0.37667706  1
  O  O381  1  0.63236544  0.13000349  0.90667300  1
  O  O382  1  0.63827023  0.63092810  0.37263198  1
  O  O383  1  0.65911678  0.64842321  0.87151929  1
