# generated using pymatgen
data_VZnO4
_symmetry_space_group_name_H-M   'P 1'
_cell_length_a   16.96200897
_cell_length_b   16.99346076
_cell_length_c   16.96368633
_cell_angle_alpha   90.18779816
_cell_angle_beta   89.65658111
_cell_angle_gamma   90.00059315
_symmetry_Int_Tables_number   1
_chemical_formula_structural   VZnO4
_chemical_formula_sum   'V64 Zn64 O256'
_cell_volume   4889.55370796
_cell_formula_units_Z   64
loop_
 _symmetry_equiv_pos_site_id
 _symmetry_equiv_pos_as_xyz
  1  'x, y, z'
loop_
 _atom_site_type_symbol
 _atom_site_label
 _atom_site_symmetry_multiplicity
 _atom_site_fract_x
 _atom_site_fract_y
 _atom_site_fract_z
 _atom_site_occupancy
  V  V0  1  0.10920505  0.88856766  0.74372258  1
  V  V1  1  0.60790527  0.62323083  0.02477707  1
  V  V2  1  0.74412690  0.75216284  0.01447520  1
  V  V3  1  0.63106708  0.74001432  0.37436394  1
  V  V4  1  0.47893941  0.49164735  -0.00136931  1
  V  V5  1  0.00714706  0.51737712  -0.01882742  1
  V  V6  1  0.38001111  0.25875079  0.59571375  1
  V  V7  1  0.49408176  0.87657539  0.34831423  1
  V  V8  1  0.12677014  0.01054372  0.10330587  1
  V  V9  1  0.87324143  0.63393764  0.24533757  1
  V  V10  1  0.72933605  0.63033202  0.87179817  1
  V  V11  1  0.37432428  0.74985512  0.13608432  1
  V  V12  1  0.49662236  -0.01451173  0.48623195  1
  V  V13  1  0.36014701  0.24981464  0.12992051  1
  V  V14  1  0.75904989  -0.00027578  0.23235966  1
  V  V15  1  0.50073428  0.23973207  0.24062779  1
  V  V16  1  0.10336869  0.75126618  0.85769909  1
  V  V17  1  0.25119732  0.23369257  -0.00001040  1
  V  V18  1  0.28277468  0.10577640  0.88359204  1
  V  V19  1  0.12167154  0.50183078  0.65249617  1
  V  V20  1  0.92034034  0.48184089  0.36850225  1
  V  V21  1  0.76537668  0.12516119  0.37574989  1
  V  V22  1  0.25605362  0.61915439  0.37278561  1
  V  V23  1  0.47239220  0.26898528  0.77028874  1
  V  V24  1  0.38196686  0.87869765  0.00010830  1
  V  V25  1  0.86475936  0.64296843  0.75266455  1
  V  V26  1  0.63771516  0.13051745  0.01613616  1
  V  V27  1  0.37737279  0.73778885  0.62945828  1
  V  V28  1  0.86437688  0.49677455  0.86211715  1
  V  V29  1  0.49690464  0.72091002  0.24495660  1
  V  V30  1  0.12007406  0.61266080  0.50702604  1
  V  V31  1  0.48945557  0.36389366  0.38260977  1
  V  V32  1  0.74787923  -0.02418510  0.74793698  1
  V  V33  1  0.11020620  0.73531593  0.36578951  1
  V  V34  1  0.87585836  -0.02846973  0.37214318  1
  V  V35  1  -0.00506515  -0.03134616  0.49770735  1
  V  V36  1  0.61851811  -0.01738420  0.62051991  1
  V  V37  1  -0.05760716  0.10205833  0.62355003  1
  V  V38  1  0.12459900  0.24822070  0.38300548  1
  V  V39  1  0.52811592  0.76055115  0.78842705  1
  V  V40  1  0.74179506  0.37196169  0.62761851  1
  V  V41  1  0.23427139  0.75696318  -0.00052040  1
  V  V42  1  0.62694419  0.24891500  0.37164083  1
  V  V43  1  0.50825187  0.52067124  0.49442483  1
  V  V44  1  0.87584501  -0.01458192  0.87415844  1
  V  V45  1  0.12581262  0.88453812  0.26291705  1
  V  V46  1  -0.01035821  0.63584876  0.63282400  1
  V  V47  1  0.62131366  0.51807983  0.63866715  1
  V  V48  1  0.26613151  0.38572781  0.62165304  1
  V  V49  1  0.75549718  0.85615313  0.59850717  1
  V  V50  1  0.75367207  0.27032224  0.03356758  1
  V  V51  1  0.27369398  0.64291910  0.86686047  1
  V  V52  1  0.62446138  0.47918636  0.13452162  1
  V  V53  1  0.29367710  0.51684986  0.74957123  1
  V  V54  1  0.75586865  0.14535980  0.84453251  1
  V  V55  1  0.35161890  0.10649110  0.25624926  1
  V  V56  1  0.25921913  0.47918721  0.24803089  1
  V  V57  1  0.12795391  0.49568531  0.12860184  1
  V  V58  1  0.62219270  0.12369259  0.50145903  1
  V  V59  1  0.37351703  0.49182471  0.38268018  1
  V  V60  1  0.89979587  0.38872016  0.52073632  1
  V  V61  1  0.25242915  0.89481259  0.63596878  1
  V  V62  1  0.25123478  0.75425203  0.50365298  1
  V  V63  1  0.87996085  0.39054360  0.02242803  1
  Zn  Zn64  1  0.16512834  0.16103320  0.18809898  1
  Zn  Zn65  1  0.28131754  0.18475014  0.70744229  1
  Zn  Zn66  1  0.19735437  0.67289121  0.17975792  1
  Zn  Zn67  1  0.18878115  0.69098323  0.69331690  1
  Zn  Zn68  1  0.70030920  0.18889087  0.19790900  1
  Zn  Zn69  1  0.73191925  0.16768383  0.65224088  1
  Zn  Zn70  1  0.68886912  0.67935616  0.19737732  1
  Zn  Zn71  1  0.67842750  0.69406607  0.68952576  1
  Zn  Zn72  1  0.31739937  0.30186438  0.31520236  1
  Zn  Zn73  1  0.28153332  0.31813094  0.81775867  1
  Zn  Zn74  1  0.31390699  0.80969839  0.32150273  1
  Zn  Zn75  1  0.32307080  0.82665062  0.80954025  1
  Zn  Zn76  1  0.79653433  0.31233423  0.43108113  1
  Zn  Zn77  1  0.67057029  0.31850582  0.80180285  1
  Zn  Zn78  1  0.80904964  0.81040458  0.28779878  1
  Zn  Zn79  1  0.79793674  0.81031151  0.81796073  1
  Zn  Zn80  1  0.18248080  0.43988782  0.44310379  1
  Zn  Zn81  1  0.16776463  0.45849612  0.86940845  1
  Zn  Zn82  1  0.16479411  0.92717540  0.43886133  1
  Zn  Zn83  1  0.18092154  0.93104129  0.92723407  1
  Zn  Zn84  1  0.65953897  0.41753246  0.47709814  1
  Zn  Zn85  1  0.68580625  0.44545338  0.94577430  1
  Zn  Zn86  1  0.67808655  0.92555975  0.42279692  1
  Zn  Zn87  1  0.73332341  0.95418692  0.97185126  1
  Zn  Zn88  1  0.31794811  0.06293071  0.07644104  1
  Zn  Zn89  1  0.32674923  0.06125233  0.56608946  1
  Zn  Zn90  1  0.29463587  0.57506399  0.06296571  1
  Zn  Zn91  1  0.31511148  0.56475712  0.55845168  1
  Zn  Zn92  1  0.83258634  0.08603709  0.04867137  1
  Zn  Zn93  1  0.79790999  0.03490755  0.54524549  1
  Zn  Zn94  1  0.80062830  0.56423151  0.06131336  1
  Zn  Zn95  1  0.81611026  0.54353944  0.56647433  1
  Zn  Zn96  1  0.44842112  0.42909835  0.18782162  1
  Zn  Zn97  1  0.45186349  0.43721241  0.67871584  1
  Zn  Zn98  1  0.29156642  0.92690824  0.18930496  1
  Zn  Zn99  1  0.45861619  0.88881016  0.65762690  1
  Zn  Zn100  1  0.93834607  0.50370544  0.17296856  1
  Zn  Zn101  1  0.93213972  0.44631249  0.69291104  1
  Zn  Zn102  1  0.96091607  0.94602178  0.20781100  1
  Zn  Zn103  1  0.91996894  0.91899356  0.68305081  1
  Zn  Zn104  1  0.06093198  0.05748601  0.32360072  1
  Zn  Zn105  1  0.03565977  0.05840258  0.78503833  1
  Zn  Zn106  1  0.06891671  0.56279905  0.30248957  1
  Zn  Zn107  1  0.05077633  0.58069704  0.81708752  1
  Zn  Zn108  1  0.57208515  0.05944940  0.30482347  1
  Zn  Zn109  1  0.59655306  0.08558749  0.80039114  1
  Zn  Zn110  1  0.56638573  0.55404021  0.31294633  1
  Zn  Zn111  1  0.53140824  0.56872496  0.81201254  1
  Zn  Zn112  1  0.44243590  0.16882869  0.42900852  1
  Zn  Zn113  1  0.44425207  0.17996017  0.94823154  1
  Zn  Zn114  1  0.43425515  0.69708049  0.42966450  1
  Zn  Zn115  1  0.44002954  0.69954517  0.95130542  1
  Zn  Zn116  1  0.93722155  0.19930238  0.46043744  1
  Zn  Zn117  1  0.86616917  0.28376325  0.88125828  1
  Zn  Zn118  1  0.94015635  0.64959218  0.42879150  1
  Zn  Zn119  1  0.92682903  0.69948075  0.94150142  1
  Zn  Zn120  1  0.07583031  0.33560314  0.02938056  1
  Zn  Zn121  1  0.08783151  0.31959717  0.57827920  1
  Zn  Zn122  1  0.09567896  0.84197126  0.05800995  1
  Zn  Zn123  1  0.07302266  0.80556533  0.56664061  1
  Zn  Zn124  1  0.56130006  0.31967238  0.04245373  1
  Zn  Zn125  1  0.56172942  0.30605728  0.57114923  1
  Zn  Zn126  1  0.58113771  0.82854161  -0.03268880  1
  Zn  Zn127  1  0.56540659  0.79974384  0.54819506  1
  O  O128  1  0.12990471  0.11058154  0.08879267  1
  O  O129  1  0.13801434  0.17218692  0.65007700  1
  O  O130  1  0.17166604  0.58411980  0.09973295  1
  O  O131  1  0.11926947  0.61905922  0.62419162  1
  O  O132  1  0.63836598  0.14299392  0.11666946  1
  O  O133  1  0.63764182  0.10705463  0.60415587  1
  O  O134  1  0.61877690  0.61573069  0.12499904  1
  O  O135  1  0.62095798  0.61703150  0.62768537  1
  O  O136  1  0.38418775  0.37194839  0.38388691  1
  O  O137  1  0.32739107  0.38493844  0.93368308  1
  O  O138  1  0.39463071  0.86649839  0.37510641  1
  O  O139  1  0.37744793  0.87064621  0.89772354  1
  O  O140  1  0.89149664  0.38396067  0.40468754  1
  O  O141  1  0.86212970  0.39767791  0.86293494  1
  O  O142  1  0.87164052  0.87397416  0.36764568  1
  O  O143  1  0.86960768  0.88486909  0.86576757  1
  O  O144  1  0.24572319  0.02284483  0.41577388  1
  O  O145  1  0.24851762  0.01196071  0.89339102  1
  O  O146  1  0.25443940  0.50228597  0.37846308  1
  O  O147  1  0.26542045  0.52326602  0.85525749  1
  O  O148  1  0.76570528  0.00615967  0.36753348  1
  O  O149  1  0.74003037  -0.01899718  0.84994846  1
  O  O150  1  0.74882413  0.43520972  0.29776403  1
  O  O151  1  0.76047255  0.52013735  0.88631631  1
  O  O152  1  0.27271156  0.48731124  0.15025764  1
  O  O153  1  0.25043313  0.50937039  0.64112740  1
  O  O154  1  0.22965304  1.00348632  0.12899049  1
  O  O155  1  0.25353740  0.99302838  0.61728650  1
  O  O156  1  0.72409866  0.50098907  0.11692137  1
  O  O157  1  0.72643819  0.50211576  0.62080684  1
  O  O158  1  0.78568195  1.03427656  0.14116528  1
  O  O159  1  0.73881073  0.97745000  0.62473563  1
  O  O160  1  -0.06536912  0.28481979  0.23319198  1
  O  O161  1  0.00028740  0.35943860  0.73423570  1
  O  O162  1  0.02457540  0.86717994  0.26419850  1
  O  O163  1  0.01074035  0.87617672  0.73081340  1
  O  O164  1  0.49744751  0.35638197  0.27174719  1
  O  O165  1  0.50020287  0.36337154  0.75112295  1
  O  O166  1  0.49406756  0.87437890  0.25145290  1
  O  O167  1  0.47925421  0.84791685  0.75946624  1
  O  O168  1  0.50380962  0.13809331  0.25477149  1
  O  O169  1  0.55769783  0.19127854  0.75163104  1
  O  O170  1  0.48637374  0.62451854  0.25957473  1
  O  O171  1  0.49941680  0.66624687  0.76216358  1
  O  O172  1  1.06254613  0.12920736  0.23839020  1
  O  O173  1  0.98193619  0.12557159  0.71316405  1
  O  O174  1  0.98140262  0.59747452  0.24259175  1
  O  O175  1  0.98197204  0.63105123  0.74052457  1
  O  O176  1  0.37523504  0.23600135  0.02600468  1
  O  O177  1  0.38767090  0.24826440  0.49792669  1
  O  O178  1  0.35862925  0.75330753  0.01633353  1
  O  O179  1  0.35480184  0.74509840  0.49921485  1
  O  O180  1  0.86744460  0.28190904  -0.00395852  1
  O  O181  1  0.87770332  0.28208211  0.50871095  1
  O  O182  1  0.84376240  0.75560390  -0.00656165  1
  O  O183  1  0.83683674  0.70305658  0.48274423  1
  O  O184  1  0.12573692  0.25122277  0.49026351  1
  O  O185  1  0.15550227  0.26169659  0.99648689  1
  O  O186  1  0.13398388  0.73104170  0.49513161  1
  O  O187  1  0.13029483  0.76975924  0.96677557  1
  O  O188  1  0.61536976  0.22980917  0.49426570  1
  O  O189  1  0.65236571  0.25814470  1.00551247  1
  O  O190  1  0.62349533  0.74051741  0.47599734  1
  O  O191  1  0.62482939  0.72452690  1.00733296  1
  O  O192  1  0.50169902  0.25378171  0.14172338  1
  O  O193  1  0.47715581  0.25559069  0.63108263  1
  O  O194  1  0.47603796  0.73127707  0.13461108  1
  O  O195  1  0.47627411  0.77162330  0.61381516  1
  O  O196  1  1.00973817  0.24909880  0.10152048  1
  O  O197  1  1.09503148  0.23140097  0.66196676  1
  O  O198  1  0.99708639  0.77500042  0.07069332  1
  O  O199  1  1.00058635  0.73304490  0.62159577  1
  O  O200  1  0.02014484  0.24518986  0.38406515  1
  O  O201  1  -0.03701804  0.26416401  0.81949828  1
  O  O202  1  0.01228089  0.72471612  0.38191635  1
  O  O203  1  0.00437763  0.74846002  0.87084839  1
  O  O204  1  0.50788628  0.25261392  0.37434613  1
  O  O205  1  0.47601669  0.25924748  0.86910692  1
  O  O206  1  0.50151388  0.75440951  0.35661532  1
  O  O207  1  0.51971636  0.76057399  0.89287811  1
  O  O208  1  0.24929659  0.07864267  0.46459195  1
  O  O209  1  0.25599779  0.12801427  0.99578733  1
  O  O210  1  0.23838144  0.62576694  0.49409873  1
  O  O211  1  0.25024968  0.64533577  0.97421203  1
  O  O212  1  0.73276219  0.10879485  0.48229280  1
  O  O213  1  0.76206298  0.16515065  1.00117891  1
  O  O214  1  0.78163821  0.65613132  0.49938053  1
  O  O215  1  0.73500584  0.63288550  0.99195136  1
  O  O216  1  0.29134130  0.36557118  -0.00498447  1
  O  O217  1  0.25058314  0.39520193  0.52306170  1
  O  O218  1  0.25535467  0.85797728  -0.01197987  1
  O  O219  1  0.23373575  0.85644763  0.50386298  1
  O  O220  1  0.76527963  0.37888925  0.00747047  1
  O  O221  1  0.76400190  0.39241240  0.50626381  1
  O  O222  1  0.70047874  0.84856822  -0.01148614  1
  O  O223  1  0.74531853  0.87580427  0.49950521  1
  O  O224  1  0.13834334  0.49371170  0.23504042  1
  O  O225  1  0.12738054  0.50985846  0.75471367  1
  O  O226  1  0.13918272  0.97601429  0.30725840  1
  O  O227  1  0.11712551  0.98950020  0.74980712  1
  O  O228  1  0.61410686  0.49017390  0.23620258  1
  O  O229  1  0.59702123  0.50496520  0.73489697  1
  O  O230  1  0.65776613  1.01157866  0.24671675  1
  O  O231  1  0.63261484  1.00119837  0.72574085  1
  O  O232  1  0.35703564  0.00697514  0.24019641  1
  O  O233  1  0.50193489  0.01762349  0.83046874  1
  O  O234  1  0.36891705  0.48718930  0.27233029  1
  O  O235  1  0.39266565  0.52001207  0.73872112  1
  O  O236  1  0.87994728  0.00362083  0.26961559  1
  O  O237  1  0.85478520  -0.00817438  0.75052406  1
  O  O238  1  0.90972179  0.45348843  0.27223607  1
  O  O239  1  0.86865269  0.51543622  0.75925484  1
  O  O240  1  0.12279642  0.35439242  0.39084130  1
  O  O241  1  0.17941065  0.35207749  0.85105547  1
  O  O242  1  0.12840311  0.83811762  0.37475043  1
  O  O243  1  0.12437350  0.86737625  0.85029989  1
  O  O244  1  0.62335274  0.35169887  0.38539616  1
  O  O245  1  0.62913909  0.36829098  0.88987118  1
  O  O246  1  0.60543944  0.85811457  0.36770020  1
  O  O247  1  0.58364850  0.93039406  0.88671251  1
  O  O248  1  0.37396730  0.13586278  0.14683935  1
  O  O249  1  0.34791466  0.15711138  0.61854872  1
  O  O250  1  0.31567089  0.66411456  0.13851314  1
  O  O251  1  0.37989733  0.63864572  0.61512027  1
  O  O252  1  0.92578244  0.14859011  0.10616549  1
  O  O253  1  0.84065632  0.11918682  0.61720838  1
  O  O254  1  0.87320153  0.59701472  0.14196161  1
  O  O255  1  0.88322552  0.61717306  0.63457458  1
  O  O256  1  0.25549058  0.24271952  0.11866693  1
  O  O257  1  0.26140970  0.28143670  0.63407011  1
  O  O258  1  0.19949778  0.75453639  0.09498780  1
  O  O259  1  0.25344892  0.74255200  0.60980732  1
  O  O260  1  0.76137435  0.26417857  0.13230944  1
  O  O261  1  0.74378892  0.27208156  0.61481362  1
  O  O262  1  0.74180678  0.74524829  0.11427388  1
  O  O263  1  0.73186387  0.75912001  0.61419454  1
  O  O264  1  0.22965733  0.25191853  0.38124668  1
  O  O265  1  0.28073945  0.23226402  0.89913424  1
  O  O266  1  0.24591464  0.72892891  0.38483504  1
  O  O267  1  0.24966884  0.74707581  0.86728776  1
  O  O268  1  0.73607370  0.23739308  0.37622717  1
  O  O269  1  0.76861976  0.24775873  0.83398453  1
  O  O270  1  0.72725529  0.76098421  0.34947917  1
  O  O271  1  0.73953081  0.73391423  0.88059297  1
  O  O272  1  -0.02082130  0.18788298  0.06425616  1
  O  O273  1  -0.01109234  0.14981368  0.54756252  1
  O  O274  1  -0.01154359  0.61495579  -0.00923816  1
  O  O275  1  0.01305242  0.62018545  0.51601907  1
  O  O276  1  0.54001047  0.13963176  -0.00883377  1
  O  O277  1  0.51704624  0.10506349  0.48944580  1
  O  O278  1  0.50669674  0.62123421  0.00607037  1
  O  O279  1  0.49334076  0.61776602  0.48739516  1
  O  O280  1  0.50952552  0.37598493  0.48368701  1
  O  O281  1  0.48393926  0.38851486  1.00066593  1
  O  O282  1  0.50296488  0.88458533  0.49127677  1
  O  O283  1  0.48116032  0.86250222  1.01704093  1
  O  O284  1  0.99660238  0.37618772  0.54492068  1
  O  O285  1  0.98541513  0.39353748  0.99020333  1
  O  O286  1  1.00002069  0.87004461  0.50477664  1
  O  O287  1  0.93637598  0.88837160  1.10449860  1
  O  O288  1  0.49288306  0.48436688  0.38006851  1
  O  O289  1  0.49063672  0.50948413  0.89780273  1
  O  O290  1  0.51148796  0.98678341  0.37637456  1
  O  O291  1  0.51357492  0.96396606  0.88600663  1
  O  O292  1  1.01932552  0.49240788  0.38225162  1
  O  O293  1  0.97566826  0.51149728  0.87369456  1
  O  O294  1  0.98456659  0.99818018  0.38675593  1
  O  O295  1  0.97290422  1.00945788  0.86662645  1
  O  O296  1  0.04005586  0.01878614  0.16672816  1
  O  O297  1  -0.03227509  -0.00057297  0.60457958  1
  O  O298  1  0.02701543  0.50444878  0.09789512  1
  O  O299  1  0.01825916  0.51031104  0.64222785  1
  O  O300  1  0.57661167  -0.06033824  0.12557565  1
  O  O301  1  0.51251862  -0.01560148  0.61367732  1
  O  O302  1  0.50915731  0.49328182  0.11610703  1
  O  O303  1  0.51352430  0.49618330  0.59941549  1
  O  O304  1  0.25138632  0.38168447  0.26690060  1
  O  O305  1  0.27766622  0.41037881  0.74025076  1
  O  O306  1  0.23419336  0.85483827  0.25848421  1
  O  O307  1  0.24941416  0.88587061  0.73858529  1
  O  O308  1  0.75269989  0.38563475  0.24587009  1
  O  O309  1  0.73359188  0.37997390  0.72706572  1
  O  O310  1  0.76916173  0.89887085  0.22837795  1
  O  O311  1  0.74579469  0.87475019  0.73302844  1
  O  O312  1  0.25306698  0.13142979  0.25302204  1
  O  O313  1  0.24342219  0.12816819  0.79056504  1
  O  O314  1  0.24229294  0.60424552  0.27224763  1
  O  O315  1  0.25897424  0.62323013  0.75352649  1
  O  O316  1  0.76113107  0.12473813  0.27123176  1
  O  O317  1  0.73960788  0.10648970  0.74903738  1
  O  O318  1  0.77063147  0.62360809  0.25234409  1
  O  O319  1  0.75388270  0.63087602  0.75968525  1
  O  O320  1  0.37701679  0.11984748  0.35570434  1
  O  O321  1  0.38288518  0.10479037  0.88464190  1
  O  O322  1  0.35936005  0.61307191  0.38142371  1
  O  O323  1  0.37198880  0.64648235  0.87147675  1
  O  O324  1  0.86256460  0.13958618  0.39539587  1
  O  O325  1  0.84377048  0.10377031  0.87000843  1
  O  O326  1  0.88008697  0.58501814  0.35737718  1
  O  O327  1  0.86559828  0.62773175  0.86061256  1
  O  O328  1  0.14971492  0.40734295  0.08571091  1
  O  O329  1  0.14443107  0.39929140  0.63825345  1
  O  O330  1  0.12734235  0.89588876  0.15601177  1
  O  O331  1  0.14214211  0.86864610  0.63447627  1
  O  O332  1  0.62178227  0.37933525  0.11991373  1
  O  O333  1  0.63409506  0.39012011  0.59810876  1
  O  O334  1  0.62153940  0.88646393  0.14133835  1
  O  O335  1  0.62809718  0.88031248  0.61249079  1
  O  O336  1  0.12463815  0.25479707  0.27929324  1
  O  O337  1  0.10060304  0.21884792  0.83249353  1
  O  O338  1  0.12790387  0.72046460  0.26605999  1
  O  O339  1  0.12268020  0.76280524  0.75128961  1
  O  O340  1  0.61726519  0.24391274  0.26640289  1
  O  O341  1  0.62485998  0.23753377  0.72692494  1
  O  O342  1  0.59907885  0.74104783  0.24162886  1
  O  O343  1  0.62493649  0.76711738  0.75923034  1
  O  O344  1  0.38554619  0.23753291  0.24925573  1
  O  O345  1  0.36819580  0.26173737  0.75288442  1
  O  O346  1  0.38401449  0.75280575  0.24560850  1
  O  O347  1  0.35838819  0.75058711  0.72705729  1
  O  O348  1  0.87824941  0.26494555  0.27343495  1
  O  O349  1  0.95662602  0.29325182  0.74612329  1
  O  O350  1  0.88471729  0.73317218  0.25114987  1
  O  O351  1  0.86522544  0.74110245  0.74835259  1
  O  O352  1  0.38722248  0.50109583  0.48940991  1
  O  O353  1  0.38201996  0.51774161  1.01845333  1
  O  O354  1  0.39979543  1.00710172  0.50138334  1
  O  O355  1  0.36871494  0.97606051  1.02393421  1
  O  O356  1  0.89218631  0.49693512  0.49447475  1
  O  O357  1  0.87890021  0.49762804  0.98924813  1
  O  O358  1  0.88025915  0.99271633  0.48064691  1
  O  O359  1  0.84441170  0.99489654  0.97699822  1
  O  O360  1  0.10673528  -0.04314971  0.01467194  1
  O  O361  1  0.09252291  -0.00361001  0.49598898  1
  O  O362  1  0.10420412  0.50552511  -0.04672764  1
  O  O363  1  0.13169648  0.51135869  0.51926560  1
  O  O364  1  0.66113976  0.03145553  0.01045077  1
  O  O365  1  0.61743212  -0.00024391  0.50227386  1
  O  O366  1  0.61148304  0.51093583  0.00922605  1
  O  O367  1  0.60960548  0.51757020  0.47952687  1
  O  O368  1  0.37551188  0.34859494  0.14393309  1
  O  O369  1  0.37447215  0.37418045  0.61504907  1
  O  O370  1  0.34933998  0.85081069  0.12270995  1
  O  O371  1  0.35088364  0.86451054  0.61647282  1
  O  O372  1  0.88687492  0.40122608  0.11901607  1
  O  O373  1  0.85478515  0.40171635  0.62140751  1
  O  O374  1  0.93903516  0.80950801  0.11239264  1
  O  O375  1  0.85514333  0.86113273  0.61371454  1
  O  O376  1  0.12733613  0.14524507  0.38658910  1
  O  O377  1  0.09239775  0.15231959  0.86110059  1
  O  O378  1  0.13218065  0.61890478  0.39109082  1
  O  O379  1  0.13083346  0.64992410  0.85893847  1
  O  O380  1  0.63215697  0.13180349  0.38090054  1
  O  O381  1  0.66102939  0.12911529  0.88643754  1
  O  O382  1  0.62308349  0.63929214  0.35820585  1
  O  O383  1  0.63169025  0.61338063  0.87237778  1
