# generated using pymatgen
data_VZnO4
_symmetry_space_group_name_H-M   'P 1'
_cell_length_a   16.98852567
_cell_length_b   16.98066366
_cell_length_c   16.94796954
_cell_angle_alpha   89.54730106
_cell_angle_beta   90.13439678
_cell_angle_gamma   89.79284674
_symmetry_Int_Tables_number   1
_chemical_formula_structural   VZnO4
_chemical_formula_sum   'V64 Zn64 O256'
_cell_volume   4888.89158625
_cell_formula_units_Z   64
loop_
 _symmetry_equiv_pos_site_id
 _symmetry_equiv_pos_as_xyz
  1  'x, y, z'
loop_
 _atom_site_type_symbol
 _atom_site_label
 _atom_site_symmetry_multiplicity
 _atom_site_fract_x
 _atom_site_fract_y
 _atom_site_fract_z
 _atom_site_occupancy
  V  V0  1  0.52659834  0.75080452  0.74523184  1
  V  V1  1  0.72814654  0.13009000  0.87889358  1
  V  V2  1  0.61433155  0.62051826  0.02099524  1
  V  V3  1  0.37648293  0.86280798  0.50027207  1
  V  V4  1  0.49015615  0.73265828  0.23919062  1
  V  V5  1  0.88067813  0.12963366  0.74952447  1
  V  V6  1  -0.00373082  0.74952744  0.76419327  1
  V  V7  1  0.10145550  0.63574118  0.50177239  1
  V  V8  1  0.24936236  0.74517281  -0.02111059  1
  V  V9  1  0.76023703  0.10679419  0.35811932  1
  V  V10  1  0.89020898  0.36329061  -0.01968608  1
  V  V11  1  0.50024636  0.00246136  0.49587238  1
  V  V12  1  0.03121835  -0.00170701  0.00264617  1
  V  V13  1  0.12494261  0.88035106  0.23002768  1
  V  V14  1  0.75012533  0.62670082  0.88744670  1
  V  V15  1  0.10866156  0.37058707  0.24122506  1
  V  V16  1  0.36942249  0.31215983  0.15191339  1
  V  V17  1  0.26384178  0.00078199  0.22698759  1
  V  V18  1  0.73280928  0.49351086  0.76660808  1
  V  V19  1  0.61875465  -0.00580293  0.62810551  1
  V  V20  1  0.25109125  0.00749808  0.78151682  1
  V  V21  1  0.12301443  0.25438799  0.37570901  1
  V  V22  1  0.73952777  0.73568659  0.49847295  1
  V  V23  1  0.62964387  0.47651515  0.13317756  1
  V  V24  1  0.76359197  0.75389063  0.01809334  1
  V  V25  1  0.64448218  0.12121940  0.49333320  1
  V  V26  1  0.25845434  0.24775444  0.00424935  1
  V  V27  1  0.24779194  0.50810458  0.25029919  1
  V  V28  1  0.12179969  0.36693235  0.74679378  1
  V  V29  1  0.25935829  0.63587264  0.36708013  1
  V  V30  1  0.87762304  0.74170071  0.62331537  1
  V  V31  1  0.38144303  0.00672527  0.36475341  1
  V  V32  1  0.74781723  0.86949821  0.63575020  1
  V  V33  1  0.62303951  0.72533057  0.37049808  1
  V  V34  1  0.77746343  0.61860681  0.37066240  1
  V  V35  1  0.63006567  0.51052115  0.58948349  1
  V  V36  1  0.87901476  0.23892303  0.12836513  1
  V  V37  1  0.63422241  -0.00501889  0.10386586  1
  V  V38  1  0.63954225  0.87951578  0.24792354  1
  V  V39  1  0.86399315  0.87614371  0.47409838  1
  V  V40  1  0.62874903  0.25234813  0.34881068  1
  V  V41  1  0.27534262  0.85695998  0.12050695  1
  V  V42  1  0.75241483  0.36984264  0.62493793  1
  V  V43  1  0.24312252  0.12379926  0.36579664  1
  V  V44  1  -0.00434365  0.50724861  -0.00669298  1
  V  V45  1  0.32094133  0.39540519  0.54193771  1
  V  V46  1  0.24056525  0.75359997  0.50611563  1
  V  V47  1  0.74119498  0.25295390  -0.00336875  1
  V  V48  1  -0.01000207  0.47720888  0.49293339  1
  V  V49  1  0.50380341  0.86936270  0.36736585  1
  V  V50  1  0.49276861  0.62952132  0.61105963  1
  V  V51  1  0.10950353  0.52324283  0.12628500  1
  V  V52  1  0.13358020  0.86742592  0.74149610  1
  V  V53  1  0.50893884  0.35438567  0.88058204  1
  V  V54  1  0.37344808  0.40756942  -0.00840549  1
  V  V55  1  0.87475658  0.61123472  0.75290925  1
  V  V56  1  0.07023908  0.71147687  0.31433618  1
  V  V57  1  0.39595148  0.86741296  -0.01946680  1
  V  V58  1  0.76168930  0.49280044  0.25061660  1
  V  V59  1  0.87692022  -0.01277778  0.88678188  1
  V  V60  1  0.02299245  0.12222397  0.12525529  1
  V  V61  1  0.74971934  -0.00457879  0.75923994  1
  V  V62  1  0.04371357  0.89435884  0.40534351  1
  V  V63  1  0.49891171  0.10992817  0.13412577  1
  Zn  Zn64  1  0.20395231  0.19697881  0.19015286  1
  Zn  Zn65  1  0.19154518  0.19185049  0.84033443  1
  Zn  Zn66  1  0.19025971  0.68580589  0.17490406  1
  Zn  Zn67  1  0.17622012  0.67400698  0.69134449  1
  Zn  Zn68  1  0.69557736  0.17501669  0.17682308  1
  Zn  Zn69  1  0.73291140  0.16301553  0.65666005  1
  Zn  Zn70  1  0.69675120  0.68418438  0.19083991  1
  Zn  Zn71  1  0.68681971  0.67992882  0.68972681  1
  Zn  Zn72  1  0.28832925  0.33573268  0.33008049  1
  Zn  Zn73  1  0.31108032  0.33928350  0.82919797  1
  Zn  Zn74  1  0.31632876  0.81161170  0.30996353  1
  Zn  Zn75  1  0.29973768  0.84270153  0.82087096  1
  Zn  Zn76  1  0.79701164  0.29312361  0.30487464  1
  Zn  Zn77  1  0.80818481  0.30913069  0.81006182  1
  Zn  Zn78  1  0.84715353  0.89438160  0.26320389  1
  Zn  Zn79  1  0.81266477  0.80364459  0.81720668  1
  Zn  Zn80  1  0.16110723  0.45813087  0.42475076  1
  Zn  Zn81  1  0.17566889  0.44109238  0.94412826  1
  Zn  Zn82  1  0.20341716  0.93306142  0.42300348  1
  Zn  Zn83  1  0.17466729  0.89765284  0.93611300  1
  Zn  Zn84  1  0.70411558  0.42908306  0.43049278  1
  Zn  Zn85  1  0.68872057  0.43557932  0.94932030  1
  Zn  Zn86  1  0.68710925  0.93049382  0.43539429  1
  Zn  Zn87  1  0.73384972  0.95921895  0.98110350  1
  Zn  Zn88  1  0.35939450  0.07153250  0.00327003  1
  Zn  Zn89  1  0.26249883  0.20935359  0.51584035  1
  Zn  Zn90  1  0.30086844  0.57758139  0.05851933  1
  Zn  Zn91  1  0.29359851  0.58770996  0.57610533  1
  Zn  Zn92  1  0.84901198  0.01700674  0.10490069  1
  Zn  Zn93  1  0.85320574  0.03721356  0.58207770  1
  Zn  Zn94  1  0.82167498  0.54651382  0.06717657  1
  Zn  Zn95  1  0.80953600  0.55614131  0.56743589  1
  Zn  Zn96  1  0.42276199  0.50856895  0.15960680  1
  Zn  Zn97  1  0.55039760  0.43711296  0.71133815  1
  Zn  Zn98  1  0.44978220  0.93054921  0.18113216  1
  Zn  Zn99  1  0.42633536  0.93057895  0.69006992  1
  Zn  Zn100  1  0.93755982  0.41743980  0.17150775  1
  Zn  Zn101  1  0.93126669  0.43233574  0.67605615  1
  Zn  Zn102  1  0.88703653  1.08855107  0.25009407  1
  Zn  Zn103  1  0.95831603  0.92160926  0.67503443  1
  Zn  Zn104  1  0.07189088  0.05288360  0.29559151  1
  Zn  Zn105  1  0.05512759  0.03700552  0.79933846  1
  Zn  Zn106  1  0.00693717  0.53228150  0.29324705  1
  Zn  Zn107  1  0.05207124  0.54952652  0.79653976  1
  Zn  Zn108  1  0.56771212  0.06526422  0.30487137  1
  Zn  Zn109  1  0.51738520  0.13420998  0.86531912  1
  Zn  Zn110  1  0.56879462  0.55145851  0.28062520  1
  Zn  Zn111  1  0.56548483  0.60501949  0.82205917  1
  Zn  Zn112  1  0.44950020  0.18965787  0.42547357  1
  Zn  Zn113  1  0.44289973  0.21280576  0.98454142  1
  Zn  Zn114  1  0.43943747  0.68005273  0.43133640  1
  Zn  Zn115  1  0.46164227  0.71886386  0.94953301  1
  Zn  Zn116  1  0.93696886  0.17891490  0.42219640  1
  Zn  Zn117  1  0.92034288  0.16151144  0.94661237  1
  Zn  Zn118  1  0.93234394  0.71997716  0.42352577  1
  Zn  Zn119  1  0.93211462  0.68447701  0.94010422  1
  Zn  Zn120  1  0.06398298  0.30499194  0.06023655  1
  Zn  Zn121  1  0.08160421  0.30010379  0.54742945  1
  Zn  Zn122  1  0.06950908  0.82233104  0.05990389  1
  Zn  Zn123  1  0.06447706  0.83013868  0.56147696  1
  Zn  Zn124  1  0.54890132  0.30535562  0.07145011  1
  Zn  Zn125  1  0.60578530  0.28854381  0.59624196  1
  Zn  Zn126  1  0.57905202  0.80480805  0.06659506  1
  Zn  Zn127  1  0.56298659  0.81003621  0.55736420  1
  O  O128  1  0.11845043  0.14905088  0.12974667  1
  O  O129  1  0.14570962  0.14375308  0.63653834  1
  O  O130  1  0.10609351  0.62249566  0.12597163  1
  O  O131  1  0.10957885  0.63943052  0.60067979  1
  O  O132  1  0.62745022  0.09564684  0.13334047  1
  O  O133  1  0.64442814  0.09824846  0.60836907  1
  O  O134  1  0.63216779  0.61154932  0.12539063  1
  O  O135  1  0.64769110  0.61046894  0.60895811  1
  O  O136  1  0.30843310  0.36617899  0.43905102  1
  O  O137  1  0.39471249  0.38697756  0.88376752  1
  O  O138  1  0.39038314  0.87697197  0.37536189  1
  O  O139  1  0.39260137  0.86268720  0.87913418  1
  O  O140  1  0.86973894  0.33492071  0.41484110  1
  O  O141  1  0.88236912  0.36382581  0.88046262  1
  O  O142  1  0.86038550  0.86196306  0.37493512  1
  O  O143  1  0.86016347  0.88959513  0.87293666  1
  O  O144  1  0.26856814  0.00096295  0.35900284  1
  O  O145  1  0.25709252  -0.04814432  0.86746933  1
  O  O146  1  0.22552248  0.52709612  0.36127939  1
  O  O147  1  0.22481936  0.52247832  0.86585999  1
  O  O148  1  0.74460380  0.00778719  0.37369517  1
  O  O149  1  0.74603006  0.00624680  0.87154660  1
  O  O150  1  0.76451726  0.51215872  0.37121743  1
  O  O151  1  0.75078333  0.50327743  0.86931491  1
  O  O152  1  0.22271069  0.51668358  0.14128373  1
  O  O153  1  0.23428317  0.57984800  0.66796005  1
  O  O154  1  0.26959499  0.98760144  0.12967132  1
  O  O155  1  0.21756143  1.15322518  0.62414680  1
  O  O156  1  0.74656179  0.49615385  0.14300786  1
  O  O157  1  0.73786898  0.48905424  0.63675119  1
  O  O158  1  0.73753931  0.98571406  0.10437372  1
  O  O159  1  0.75310990  0.97868416  0.63231539  1
  O  O160  1  0.00781877  0.38021765  0.25605273  1
  O  O161  1  0.01547342  0.36434741  0.74228092  1
  O  O162  1  0.03013297  0.89017394  0.22371650  1
  O  O163  1  -0.02918790  0.84734621  0.75864072  1
  O  O164  1  0.48799948  0.41468390  0.36130709  1
  O  O165  1  0.49906994  0.36784314  0.77727461  1
  O  O166  1  0.51134676  0.86118648  0.25756332  1
  O  O167  1  0.48034904  0.84218454  0.73923179  1
  O  O168  1  0.50328139  0.12725589  0.23449433  1
  O  O169  1  0.50324548  0.13453537  0.74250415  1
  O  O170  1  0.49621997  0.63319113  0.26087236  1
  O  O171  1  0.52132787  0.63775194  0.72173485  1
  O  O172  1  1.00080112  0.11231888  0.23069437  1
  O  O173  1  0.97815081  0.10477687  0.74521079  1
  O  O174  1  1.01050955  0.64513978  0.27121284  1
  O  O175  1  0.97958613  0.62602705  0.74767473  1
  O  O176  1  0.36444747  0.28562396  0.02066726  1
  O  O177  1  0.28200798  0.30665122  0.58061114  1
  O  O178  1  0.35966110  0.75178122  -0.00933385  1
  O  O179  1  0.37305335  0.75954303  0.49019270  1
  O  O180  1  0.87196385  0.25135664  -0.00419482  1
  O  O181  1  0.87963062  0.28421593  0.46895450  1
  O  O182  1  0.86199929  0.75253489  -0.00675449  1
  O  O183  1  0.85802893  0.75090903  0.51057364  1
  O  O184  1  0.15478113  0.24647566  0.48109220  1
  O  O185  1  0.15879513  0.26591073  1.01415554  1
  O  O186  1  0.13542381  0.76002373  0.50129010  1
  O  O187  1  0.15034553  0.79090086  0.98830033  1
  O  O188  1  0.62206776  0.21947642  0.50630133  1
  O  O189  1  0.64540690  0.26587631  1.00692538  1
  O  O190  1  0.63199698  0.75048603  0.48232769  1
  O  O191  1  0.64588962  0.72183350  1.01426928  1
  O  O192  1  0.46386665  0.27921196  0.14830075  1
  O  O193  1  0.51764848  0.22273881  0.64371225  1
  O  O194  1  0.51404240  0.74482834  0.14328018  1
  O  O195  1  0.51206126  0.73942233  0.62822776  1
  O  O196  1  0.98910357  0.23189445  0.10931587  1
  O  O197  1  0.99546173  0.22097767  0.58057653  1
  O  O198  1  0.99004865  0.75501076  0.11953868  1
  O  O199  1  0.97632381  0.74887240  0.62602005  1
  O  O200  1  0.02564669  0.23449029  0.38490434  1
  O  O201  1  0.03414354  0.19807879  0.88663489  1
  O  O202  1  0.00946181  0.78305698  0.36219765  1
  O  O203  1  0.00050616  0.73147813  0.86200396  1
  O  O204  1  0.52874704  0.24169586  0.36929125  1
  O  O205  1  0.51231483  0.25319130  0.89080488  1
  O  O206  1  0.51146775  0.75170126  0.37007293  1
  O  O207  1  0.50329786  0.71402660  0.84354347  1
  O  O208  1  0.25082972  0.10684031  0.46494082  1
  O  O209  1  0.27090658  0.14799179  1.00731677  1
  O  O210  1  0.23342895  0.63889454  0.48655556  1
  O  O211  1  0.23334865  0.64760089  1.00199520  1
  O  O212  1  0.74426744  0.11547425  0.48821862  1
  O  O213  1  0.74793950  0.13531412  0.98033575  1
  O  O214  1  0.76084175  0.62803800  0.48569164  1
  O  O215  1  0.76859706  0.62130426  0.99287882  1
  O  O216  1  0.26763194  0.38663446  -0.01927535  1
  O  O217  1  0.21791181  0.42801929  0.52663217  1
  O  O218  1  0.27616522  0.86749912  0.01058017  1
  O  O219  1  0.26675614  0.86303985  0.48772942  1
  O  O220  1  0.76780645  0.35835462  -0.01287587  1
  O  O221  1  0.74834689  0.37602343  0.52489507  1
  O  O222  1  0.73390926  0.84737744  -0.00332061  1
  O  O223  1  0.75384111  0.85637494  0.50021536  1
  O  O224  1  0.10500279  0.49690341  0.23581563  1
  O  O225  1  0.11016481  0.47091855  0.72840920  1
  O  O226  1  0.15436577  0.98743748  0.24438702  1
  O  O227  1  0.14803215  0.99074003  0.74864337  1
  O  O228  1  0.65598652  0.48273563  0.25356769  1
  O  O229  1  0.63115905  0.50945632  0.76221789  1
  O  O230  1  0.62856405  0.97930657  0.25622375  1
  O  O231  1  0.63597498  0.99438364  0.72819284  1
  O  O232  1  0.37533876  -0.01308946  0.25735828  1
  O  O233  1  0.33584149  -0.01288910  0.72770140  1
  O  O234  1  0.34520171  0.49720109  0.25238302  1
  O  O235  1  0.42563036  0.51571230  0.79481741  1
  O  O236  1  0.88163070  -0.01743344  0.20800334  1
  O  O237  1  0.85707494  0.00012277  0.76302778  1
  O  O238  1  0.88088756  0.52100820  0.22068924  1
  O  O239  1  0.86343344  0.50948675  0.74037980  1
  O  O240  1  0.12767400  0.36034761  0.37299053  1
  O  O241  1  0.11897911  0.38437438  0.85113285  1
  O  O242  1  0.13230112  0.87266175  0.34640435  1
  O  O243  1  0.10955777  0.87222761  0.83846302  1
  O  O244  1  0.65077130  0.34856836  0.37315865  1
  O  O245  1  0.60066681  0.39468893  0.89266732  1
  O  O246  1  0.61822071  0.86483146  0.36619093  1
  O  O247  1  0.56938611  0.90838427  0.86390790  1
  O  O248  1  0.40108022  0.10424533  0.11104855  1
  O  O249  1  0.37399133  0.21519853  0.50169179  1
  O  O250  1  0.38140305  0.60614298  0.12795778  1
  O  O251  1  0.39393685  0.62286323  0.61795430  1
  O  O252  1  0.88748908  0.12817937  0.12472112  1
  O  O253  1  0.84243060  0.12814082  0.64665576  1
  O  O254  1  0.88199060  0.58137652  0.16459350  1
  O  O255  1  0.85499747  0.63697834  0.63841734  1
  O  O256  1  0.27598444  0.25926144  0.12953798  1
  O  O257  1  0.34412261  0.20761334  0.71571391  1
  O  O258  1  0.25955094  0.75648134  0.11985176  1
  O  O259  1  0.25234206  0.74132071  0.60298349  1
  O  O260  1  0.76681788  0.23174404  0.10313436  1
  O  O261  1  0.71169925  0.27262968  0.64829734  1
  O  O262  1  0.76340305  0.74067323  0.11892361  1
  O  O263  1  0.74625073  0.75623920  0.61769083  1
  O  O264  1  0.24904853  0.22868494  0.35735048  1
  O  O265  1  0.26345547  0.25782597  0.89280123  1
  O  O266  1  0.25598052  0.74244019  0.37951578  1
  O  O267  1  0.25008569  0.75478014  0.87797329  1
  O  O268  1  0.74098566  0.22086315  0.37019834  1
  O  O269  1  0.74461054  0.23749509  0.87768014  1
  O  O270  1  0.73501693  0.72656204  0.37982158  1
  O  O271  1  0.74877989  0.72856252  0.87890346  1
  O  O272  1  -0.00537496  0.10455251  0.01108859  1
  O  O273  1  -0.01967749  0.16007285  0.53854442  1
  O  O274  1  -0.02441814  0.60432964  0.00735039  1
  O  O275  1  0.00511049  0.65740590  0.48613446  1
  O  O276  1  0.52764534  0.18245077  0.05985962  1
  O  O277  1  0.50911045  0.10341290  0.48759017  1
  O  O278  1  0.51704331  0.62898662  0.00428318  1
  O  O279  1  0.50675913  0.63311686  0.50958801  1
  O  O280  1  0.41638557  0.36591903  0.52629526  1
  O  O281  1  0.48446992  0.37758984  0.99416107  1
  O  O282  1  0.49753952  0.87729535  0.48527623  1
  O  O283  1  0.49368739  0.82845915  0.99484045  1
  O  O284  1  1.01724506  0.38096711  0.50388529  1
  O  O285  1  0.99452768  0.37017892  0.99377265  1
  O  O286  1  0.97214522  0.85759704  0.48713358  1
  O  O287  1  1.00036154  0.90257930  1.01453072  1
  O  O288  1  0.50266553  0.48556044  0.37233384  1
  O  O289  1  0.46123149  0.53901196  0.85466206  1
  O  O290  1  0.49656669  0.98999380  0.37249063  1
  O  O291  1  0.52567287  0.96543113  0.85963379  1
  O  O292  1  0.97757122  0.49317353  0.39241111  1
  O  O293  1  1.01238357  0.50623542  0.89290318  1
  O  O294  1  1.00886614  0.97762849  0.36282485  1
  O  O295  1  0.98202776  1.00164158  0.88705484  1
  O  O296  1  0.03842660  0.01647679  0.10955898  1
  O  O297  1  -0.04246095  0.00689847  0.60988856  1
  O  O298  1  0.00677577  0.49176439  0.11373080  1
  O  O299  1  -0.00992016  0.49961863  0.60828670  1
  O  O300  1  0.51799511  0.00158005  0.12578483  1
  O  O301  1  0.51382172  -0.01279440  0.61596430  1
  O  O302  1  0.53380888  0.49461656  0.17016332  1
  O  O303  1  0.52656750  0.51789072  0.62215127  1
  O  O304  1  0.21953439  0.40532578  0.26399100  1
  O  O305  1  0.22712305  0.37734157  0.75371921  1
  O  O306  1  0.25937445  0.87948610  0.23463028  1
  O  O307  1  0.23278131  0.85255301  0.72833552  1
  O  O308  1  0.79664861  0.39999102  0.26907451  1
  O  O309  1  0.74509141  0.39147507  0.75578673  1
  O  O310  1  0.73657730  0.86188698  0.25398398  1
  O  O311  1  0.75028135  0.87258230  0.73967213  1
  O  O312  1  0.25695006  0.10530714  0.24677571  1
  O  O313  1  0.24830710  0.10531481  0.80178412  1
  O  O314  1  0.24395043  0.62656024  0.25919829  1
  O  O315  1  0.14601061  0.61813966  0.80703345  1
  O  O316  1  0.75919232  0.11273432  0.25523697  1
  O  O317  1  0.74869262  0.11122337  0.76387967  1
  O  O318  1  0.75239789  0.61290695  0.26587603  1
  O  O319  1  0.75141086  0.61290439  0.76435589  1
  O  O320  1  0.37892653  0.10763613  0.36556313  1
  O  O321  1  0.42170829  0.12202596  0.91977493  1
  O  O322  1  0.35696440  0.61982744  0.38137691  1
  O  O323  1  0.34682383  0.64093571  0.79003595  1
  O  O324  1  0.86787379  0.11538652  0.36683403  1
  O  O325  1  0.86110225  0.10717998  0.86466885  1
  O  O326  1  0.87328531  0.63893053  0.36726010  1
  O  O327  1  0.86324571  0.62101799  0.85999235  1
  O  O328  1  0.11819077  0.37139878  0.14101599  1
  O  O329  1  0.12672510  0.34364668  0.64494244  1
  O  O330  1  0.15445318  0.87297209  0.12812178  1
  O  O331  1  0.07770273  0.89094429  0.65334014  1
  O  O332  1  0.62728840  0.37893626  0.11973004  1
  O  O333  1  0.62130763  0.39854753  0.62556303  1
  O  O334  1  0.62104073  0.88239258  0.13988822  1
  O  O335  1  0.64089149  0.88360362  0.60994181  1
  O  O336  1  0.13235196  0.26528507  0.25960164  1
  O  O337  1  0.12674894  0.26448558  0.76780170  1
  O  O338  1  0.12786888  0.76099630  0.24099858  1
  O  O339  1  0.10065790  0.75390933  0.73152048  1
  O  O340  1  0.63952704  0.24626926  0.24795461  1
  O  O341  1  0.53645919  0.20160154  0.71815953  1
  O  O342  1  0.62225256  0.75004237  0.26259172  1
  O  O343  1  0.62708890  0.75956960  0.74728652  1
  O  O344  1  0.36440066  0.32359127  0.25193212  1
  O  O345  1  0.37438489  0.26515941  0.74983110  1
  O  O346  1  0.39248672  0.75171383  0.25168939  1
  O  O347  1  0.31658481  0.69526645  0.75220498  1
  O  O348  1  0.86963718  0.24564651  0.22882905  1
  O  O349  1  0.87548972  0.22845977  0.76397512  1
  O  O350  1  0.89883029  0.78885305  0.20831262  1
  O  O351  1  0.87413974  0.73486604  0.74199810  1
  O  O352  1  0.33941821  0.49660890  0.51547224  1
  O  O353  1  0.36677824  0.50771897  0.98910067  1
  O  O354  1  0.38746733  0.98394300  0.47582309  1
  O  O355  1  0.39841650  0.96563573  0.99872682  1
  O  O356  1  0.88914097  0.49260676  0.52110874  1
  O  O357  1  0.88705033  0.47403533  1.00418195  1
  O  O358  1  0.85712643  0.97384200  0.48720830  1
  O  O359  1  0.85443505  0.99755899  0.98802737  1
  O  O360  1  0.12560050  -0.00331863  -0.02924029  1
  O  O361  1  0.10364127  -0.07256898  0.48214353  1
  O  O362  1  0.11024058  0.49723174  0.01643374  1
  O  O363  1  0.09418881  0.52855701  0.48783495  1
  O  O364  1  0.61994360  -0.00932840  0.00509047  1
  O  O365  1  0.61887421  0.00029564  0.50157288  1
  O  O366  1  0.63602875  0.50633637  0.02630822  1
  O  O367  1  0.63373649  0.49966406  0.49115616  1
  O  O368  1  0.37517742  0.41103778  0.11053457  1
  O  O369  1  0.33654174  0.42295912  0.63888326  1
  O  O370  1  0.37709208  0.86502231  0.12286655  1
  O  O371  1  0.38352510  0.87794455  0.59674159  1
  O  O372  1  0.88064823  0.34643309  0.10672205  1
  O  O373  1  0.85101122  0.36075058  0.64473631  1
  O  O374  1  0.92963964  0.80345132  0.13965000  1
  O  O375  1  0.85744883  0.85614152  0.62039111  1
  O  O376  1  0.13882605  0.12760054  0.35509904  1
  O  O377  1  0.08681440  0.14531779  0.86927751  1
  O  O378  1  0.12653476  0.65619604  0.38043921  1
  O  O379  1  0.20051161  0.59669508  0.86364834  1
  O  O380  1  0.63630625  0.12367226  0.37920545  1
  O  O381  1  0.62954214  0.12087091  0.87159490  1
  O  O382  1  0.61673532  0.62718611  0.36836406  1
  O  O383  1  0.64388513  0.60984306  0.90383294  1
