# generated using pymatgen
data_VZnO4
_symmetry_space_group_name_H-M   'P 1'
_cell_length_a   17.04416597
_cell_length_b   17.23522518
_cell_length_c   17.17047886
_cell_angle_alpha   90.54876846
_cell_angle_beta   88.60315656
_cell_angle_gamma   90.36451446
_symmetry_Int_Tables_number   1
_chemical_formula_structural   VZnO4
_chemical_formula_sum   'V64 Zn64 O256'
_cell_volume   5042.17558872
_cell_formula_units_Z   64
loop_
 _symmetry_equiv_pos_site_id
 _symmetry_equiv_pos_as_xyz
  1  'x, y, z'
loop_
 _atom_site_type_symbol
 _atom_site_label
 _atom_site_symmetry_multiplicity
 _atom_site_fract_x
 _atom_site_fract_y
 _atom_site_fract_z
 _atom_site_occupancy
  V  V0  1  0.50065735  0.00016771  0.00896479  1
  V  V1  1  0.13061833  -0.00080064  0.12123502  1
  V  V2  1  0.50596596  0.74457675  0.23212797  1
  V  V3  1  0.73483152  0.11623656  0.86933737  1
  V  V4  1  0.46564834  0.12469687  0.62471180  1
  V  V5  1  0.46690717  0.49012228  0.51426259  1
  V  V6  1  -0.00012853  -0.02665760  0.48809175  1
  V  V7  1  0.27250248  0.36877001  0.14367193  1
  V  V8  1  0.87754353  0.48632807  0.82039299  1
  V  V9  1  0.77184564  0.64834095  0.85400530  1
  V  V10  1  0.62963648  0.00450439  0.11992955  1
  V  V11  1  0.89028661  0.24817616  0.09924136  1
  V  V12  1  0.63133341  0.87499509  0.24050782  1
  V  V13  1  0.54317509  0.51639250  -0.02503179  1
  V  V14  1  0.50892736  0.86917414  0.88120748  1
  V  V15  1  0.24011494  0.73442442  0.00465960  1
  V  V16  1  0.89829061  0.87176655  0.00691098  1
  V  V17  1  0.49572290  0.13743181  0.12885074  1
  V  V18  1  0.28109580  0.16376519  0.85751432  1
  V  V19  1  0.36771043  0.87738227  0.01726370  1
  V  V20  1  0.88195747  0.22650347  0.63127650  1
  V  V21  1  0.87189239  0.59848611  0.26272208  1
  V  V22  1  0.58318805  0.70291584  0.40211625  1
  V  V23  1  0.49978839  0.87838382  0.36381444  1
  V  V24  1  0.25350439  -0.02427766  0.24069809  1
  V  V25  1  0.22618492  0.23681850  0.52141894  1
  V  V26  1  0.00412537  0.63420040  0.14270725  1
  V  V27  1  -0.03323133  0.48583762  0.49945267  1
  V  V28  1  0.87870188  0.76619171  0.15899989  1
  V  V29  1  0.74500957  0.76589097  0.01852152  1
  V  V30  1  0.51404061  0.23853974  0.74847318  1
  V  V31  1  0.62069276  0.14169732  0.50028891  1
  V  V32  1  0.38008571  0.61070045  0.24974780  1
  V  V33  1  0.35919900  0.52897510  0.88330273  1
  V  V34  1  0.37457383  -0.00519789  0.37089545  1
  V  V35  1  0.45608646  0.35539068  0.38244559  1
  V  V36  1  0.01576523  0.03064829  -0.00459140  1
  V  V37  1  0.40860433  0.64912282  0.74326617  1
  V  V38  1  0.36746613  -0.00502256  0.87627183  1
  V  V39  1  0.73965916  0.89031008  0.59761258  1
  V  V40  1  0.13912683  0.37342510  0.75665479  1
  V  V41  1  0.49693752  0.00120692  0.49868154  1
  V  V42  1  0.64327625  0.49793313  0.17030308  1
  V  V43  1  0.13193876  0.76703219  0.37340744  1
  V  V44  1  -0.00713003  0.52346919  0.00796322  1
  V  V45  1  0.73533996  0.14997237  0.36242824  1
  V  V46  1  0.63383131  0.75891228  0.86161725  1
  V  V47  1  0.17657825  0.59225260  0.49476851  1
  V  V48  1  0.23390802  0.49806549  0.26208011  1
  V  V49  1  0.71565008  0.23819398  -0.00079842  1
  V  V50  1  0.01359903  0.36799452  0.87956453  1
  V  V51  1  0.26533400  0.79478453  0.49891189  1
  V  V52  1  0.37237449  0.13497042  0.24846489  1
  V  V53  1  0.60956054  0.46692074  0.62625735  1
  V  V54  1  0.15997729  0.87057627  0.76901928  1
  V  V55  1  0.75275403  0.00200303  0.25050977  1
  V  V56  1  0.11115268  0.24240591  0.36977864  1
  V  V57  1  0.88570660  0.14019308  0.24856247  1
  V  V58  1  -0.04256696  0.62996248  0.61076409  1
  V  V59  1  0.24368099  0.54157877  0.74206656  1
  V  V60  1  0.87787702  0.00759743  0.86486147  1
  V  V61  1  0.37014418  0.74248588  0.12614823  1
  V  V62  1  0.23734113  0.11494399  0.37613371  1
  V  V63  1  0.11521321  -0.00035300  0.62156409  1
  Zn  Zn64  1  0.18918998  0.17476646  0.18311867  1
  Zn  Zn65  1  0.15612215  0.16785819  0.71406436  1
  Zn  Zn66  1  0.19584327  0.68010822  0.19596364  1
  Zn  Zn67  1  0.18208175  0.70646190  0.65505649  1
  Zn  Zn68  1  0.70344169  0.16552727  0.16128194  1
  Zn  Zn69  1  0.69031231  0.18392497  0.68764913  1
  Zn  Zn70  1  0.70092137  0.68304874  0.19388921  1
  Zn  Zn71  1  0.71588034  0.73016274  0.69212571  1
  Zn  Zn72  1  0.29171792  0.30621480  0.31454561  1
  Zn  Zn73  1  0.32143358  0.35594220  0.81806684  1
  Zn  Zn74  1  0.31820084  0.80170385  0.31793618  1
  Zn  Zn75  1  0.31642641  0.80664096  0.83059880  1
  Zn  Zn76  1  1.02407654  0.27321094  0.22283748  1
  Zn  Zn77  1  0.83773188  0.30798099  0.91378784  1
  Zn  Zn78  1  0.78194004  0.70240932  0.36575577  1
  Zn  Zn79  1  0.84906554  0.80624508  0.84027726  1
  Zn  Zn80  1  0.27851926  0.43115412  0.45474646  1
  Zn  Zn81  1  0.14785190  0.50626509  0.88801506  1
  Zn  Zn82  1  0.18079550  0.93744370  0.43282371  1
  Zn  Zn83  1  0.18582483  0.92217179  0.94574465  1
  Zn  Zn84  1  0.60763342  0.35055374  0.49372835  1
  Zn  Zn85  1  0.76496151  0.38577436  1.09263137  1
  Zn  Zn86  1  0.67145635  0.95579925  0.41928882  1
  Zn  Zn87  1  0.69735712  0.93747435  0.94199108  1
  Zn  Zn88  1  0.30310004  0.06523267  0.07657884  1
  Zn  Zn89  1  0.29827703  0.04019350  0.55709232  1
  Zn  Zn90  1  0.30196895  0.55401347  0.07462642  1
  Zn  Zn91  1  0.33481065  0.56382491  0.58572779  1
  Zn  Zn92  1  0.82184465  0.07806947  0.04922845  1
  Zn  Zn93  1  0.79620898  0.07175803  0.53831916  1
  Zn  Zn94  1  0.71804354  0.57388501  0.03864499  1
  Zn  Zn95  1  0.81704979  0.50785888  0.62464948  1
  Zn  Zn96  1  0.45307509  0.42520856  0.18638581  1
  Zn  Zn97  1  0.47114860  0.44998212  0.75052510  1
  Zn  Zn98  1  0.43951164  0.93720262  0.18815917  1
  Zn  Zn99  1  0.47372587  0.95294200  0.70755729  1
  Zn  Zn100  1  0.93434279  0.43461509  0.18314266  1
  Zn  Zn101  1  0.99249732  0.40834717  0.65791545  1
  Zn  Zn102  1  0.92726702  0.97312643  0.14868634  1
  Zn  Zn103  1  0.92434234  0.92033879  0.68204504  1
  Zn  Zn104  1  0.06068961  0.04740497  0.30312043  1
  Zn  Zn105  1  0.04569754  0.02554301  0.79460851  1
  Zn  Zn106  1  0.05547486  0.55662156  0.33827722  1
  Zn  Zn107  1  0.04533724  0.55997359  0.72755907  1
  Zn  Zn108  1  0.56016832  0.06868678  0.30503011  1
  Zn  Zn109  1  0.56547319  0.05701885  0.81026407  1
  Zn  Zn110  1  0.57887698  0.49879106  0.34873913  1
  Zn  Zn111  1  0.58101115  0.58084124  0.80257386  1
  Zn  Zn112  1  0.41543215  0.18441688  0.44824278  1
  Zn  Zn113  1  0.45770898  0.17003276  0.93201479  1
  Zn  Zn114  1  0.38071740  0.66059176  0.45483723  1
  Zn  Zn115  1  0.45414428  0.68155450  0.95289783  1
  Zn  Zn116  1  0.92442235  0.18216682  0.42982383  1
  Zn  Zn117  1  1.08620443  0.17928707  0.89503745  1
  Zn  Zn118  1  0.93599752  0.68160563  0.44454566  1
  Zn  Zn119  1  0.89193585  0.65699617  0.97262916  1
  Zn  Zn120  1  0.04505562  0.35350336  0.07392539  1
  Zn  Zn121  1  0.13007130  0.39734893  0.54536566  1
  Zn  Zn122  1  0.06458883  0.81004377  0.08141502  1
  Zn  Zn123  1  0.03843918  0.78587992  0.50942222  1
  Zn  Zn124  1  0.58530296  0.35529791  0.04708735  1
  Zn  Zn125  1  0.48129084  0.34110956  0.60949475  1
  Zn  Zn126  1  0.56212907  0.82076323  0.06353663  1
  Zn  Zn127  1  0.54067814  0.81424569  0.54745864  1
  O  O128  1  0.18957705  0.09232749  0.09922638  1
  O  O129  1  0.10207330  0.09400001  0.63752854  1
  O  O130  1  0.10281310  0.64102014  0.14289407  1
  O  O131  1  0.13444648  0.63138952  0.57964197  1
  O  O132  1  0.60550042  0.11107721  0.13589065  1
  O  O133  1  0.63782332  0.13380950  0.59862532  1
  O  O134  1  0.65186641  0.60053065  0.13817696  1
  O  O135  1  0.65683123  0.66495906  0.61085047  1
  O  O136  1  0.35241267  0.36027491  0.39348277  1
  O  O137  1  0.39496037  0.43654940  0.84094205  1
  O  O138  1  0.39124246  0.88482902  0.35999176  1
  O  O139  1  0.38933846  0.87917938  0.90098317  1
  O  O140  1  0.80961315  0.40595880  0.38301537  1
  O  O141  1  0.89912824  0.39287344  0.87060156  1
  O  O142  1  0.96855052  0.86377955  0.31490231  1
  O  O143  1  0.87419399  0.89871567  0.90693962  1
  O  O144  1  0.25717878  0.00048283  0.36004001  1
  O  O145  1  0.26954550  -0.01493953  0.89192876  1
  O  O146  1  0.26411683  0.49454340  0.35498800  1
  O  O147  1  0.25651746  0.53136792  0.86633050  1
  O  O148  1  0.74732784  0.00637754  0.35087173  1
  O  O149  1  0.76445779  0.00503566  0.87972024  1
  O  O150  1  0.74605179  0.42051374  0.41916740  1
  O  O151  1  0.79450478  0.54750855  0.85430581  1
  O  O152  1  0.25503696  0.47941210  0.14460743  1
  O  O153  1  0.25227893  0.51057605  0.64871188  1
  O  O154  1  0.26455475  0.97584506  0.14045235  1
  O  O155  1  0.21644932  0.99083758  0.61698508  1
  O  O156  1  0.75058086  0.49601844  0.11349070  1
  O  O157  1  0.70634096  0.49221450  0.62944465  1
  O  O158  1  0.73163343  1.01816626  0.12687565  1
  O  O159  1  0.72542811  0.99343990  0.59047600  1
  O  O160  1  0.03019979  0.37738503  0.18312310  1
  O  O161  1  0.01842520  0.37985184  0.77410037  1
  O  O162  1  -0.00022967  0.89374845  0.25763684  1
  O  O163  1  -0.00126184  0.82265347  0.66923917  1
  O  O164  1  0.47110265  0.37210471  0.28447749  1
  O  O165  1  0.47401884  0.33229199  0.73296853  1
  O  O166  1  0.50993427  0.87132281  0.24840907  1
  O  O167  1  0.49480536  0.86673241  0.78614828  1
  O  O168  1  0.48297893  0.11890883  0.23968230  1
  O  O169  1  0.49940437  0.12379605  0.72510922  1
  O  O170  1  0.49574015  0.64782757  0.23710705  1
  O  O171  1  0.50929314  0.64546450  0.74564661  1
  O  O172  1  0.97435360  0.09697715  0.25164476  1
  O  O173  1  1.07737439  0.12967777  0.79457327  1
  O  O174  1  0.98703788  0.60573021  0.24874662  1
  O  O175  1  1.00713757  0.65933495  0.69394242  1
  O  O176  1  0.38976020  0.25346604  0.00633245  1
  O  O177  1  0.32822853  0.22387080  0.50745840  1
  O  O178  1  0.37869954  0.75718612  0.01667485  1
  O  O179  1  0.36500073  0.76764676  0.47888193  1
  O  O180  1  0.87882811  0.24335835  0.00181579  1
  O  O181  1  0.87773470  0.23152121  0.52531896  1
  O  O182  1  0.87252219  0.77175028  0.00444596  1
  O  O183  1  0.84231814  0.74523552  0.44324218  1
  O  O184  1  0.13368242  0.21818154  0.47263307  1
  O  O185  1  0.12935293  0.28287581  1.02478069  1
  O  O186  1  0.15111293  0.77289228  0.48748330  1
  O  O187  1  0.14399826  0.75808615  1.02024512  1
  O  O188  1  0.61460341  0.23692250  0.48634678  1
  O  O189  1  0.61649780  0.25363180  1.00304994  1
  O  O190  1  0.55520341  0.71879849  0.49785017  1
  O  O191  1  0.64494967  0.75539405  1.02144599  1
  O  O192  1  0.50338914  0.23115517  0.12434386  1
  O  O193  1  0.47880711  0.22615786  0.62989426  1
  O  O194  1  0.49192861  0.75879507  0.13036809  1
  O  O195  1  0.45741104  0.80633815  0.63208789  1
  O  O196  1  0.99127901  0.24775969  0.10394403  1
  O  O197  1  0.97802466  0.19384366  0.61766905  1
  O  O198  1  0.98886441  0.75102668  0.14599590  1
  O  O199  1  0.95689176  0.72077928  0.55820087  1
  O  O200  1  0.00938142  0.23193943  0.38098496  1
  O  O201  1  0.01480077  0.27261644  0.89592080  1
  O  O202  1  0.03080182  0.74024727  0.40044400  1
  O  O203  1  0.04126387  0.72489618  0.88557710  1
  O  O204  1  0.47507311  0.25675291  0.38709709  1
  O  O205  1  0.49530286  0.22417509  0.84617895  1
  O  O206  1  0.51054758  0.76334244  0.34787664  1
  O  O207  1  0.52500818  0.76174237  0.89931786  1
  O  O208  1  0.24518993  0.10475304  0.47610030  1
  O  O209  1  0.32441453  0.22433092  1.02373372  1
  O  O210  1  0.27744263  0.61730297  0.49718058  1
  O  O211  1  0.24721252  0.63745850  1.02324004  1
  O  O212  1  0.73024064  0.12330507  0.47031797  1
  O  O213  1  0.73916740  0.13104967  0.99777457  1
  O  O214  1  0.69675620  0.64750405  0.55144928  1
  O  O215  1  0.76951848  0.65813303  0.98243134  1
  O  O216  1  0.21258376  0.38399567  0.04497272  1
  O  O217  1  0.22283009  0.34068126  0.51312210  1
  O  O218  1  0.26770985  0.86540831  0.00751567  1
  O  O219  1  0.26755606  0.89511770  0.49075955  1
  O  O220  1  0.75093655  0.33803082  -0.01417880  1
  O  O221  1  0.72824269  0.37701592  0.48291900  1
  O  O222  1  0.75670727  0.86735301  0.01043572  1
  O  O223  1  0.73529326  0.88909231  0.49209884  1
  O  O224  1  0.13645880  0.51154649  0.26616799  1
  O  O225  1  0.13621025  0.51449457  0.77024658  1
  O  O226  1  0.14269887  1.00385956  0.22939100  1
  O  O227  1  0.10239698  0.95217665  0.72410372  1
  O  O228  1  0.65989618  0.49413550  0.26840082  1
  O  O229  1  0.57715036  0.49345922  0.72580748  1
  O  O230  1  0.62958316  0.99596026  0.23726230  1
  O  O231  1  0.57842509  0.98380662  0.73079513  1
  O  O232  1  0.36710162  -0.00196072  0.25543397  1
  O  O233  1  0.38765201  -0.00966969  0.77983058  1
  O  O234  1  0.39631472  0.51573245  0.23972604  1
  O  O235  1  0.35551209  0.54942896  0.75752302  1
  O  O236  1  0.85226657  0.00815055  0.22714113  1
  O  O237  1  0.90864301  -0.00149239  0.76830162  1
  O  O238  1  0.86473137  0.50173098  0.24347775  1
  O  O239  1  0.85365852  0.46275853  0.72779131  1
  O  O240  1  0.12905354  0.33607112  0.36593310  1
  O  O241  1  0.11628529  0.39496095  0.87525947  1
  O  O242  1  0.12797813  0.86638593  0.36262119  1
  O  O243  1  0.12881340  0.87197786  0.86530429  1
  O  O244  1  0.59417218  0.37569185  0.37770683  1
  O  O245  1  0.67386166  0.38442620  0.80312782  1
  O  O246  1  0.61233777  0.88887380  0.34893706  1
  O  O247  1  0.61625515  0.87376908  0.88927736  1
  O  O248  1  0.38252432  0.12004771  0.13844148  1
  O  O249  1  0.36936814  0.10616058  0.62350312  1
  O  O250  1  0.37823116  0.64098889  0.13259883  1
  O  O251  1  0.38522067  0.64386911  0.64577409  1
  O  O252  1  0.86325347  0.14566147  0.13580145  1
  O  O253  1  0.84345612  0.12669485  0.62380290  1
  O  O254  1  0.88387527  0.65481853  0.16530557  1
  O  O255  1  0.85946850  0.61424731  0.63020608  1
  O  O256  1  0.23861231  0.27361624  0.14796690  1
  O  O257  1  0.20288858  0.21545651  0.61493724  1
  O  O258  1  0.26741322  0.75036798  0.12816489  1
  O  O259  1  0.25486325  0.77035554  0.59586765  1
  O  O260  1  0.74582866  0.24638965  0.10180055  1
  O  O261  1  0.77681868  0.24836406  0.64132949  1
  O  O262  1  0.77006520  0.74999759  0.12063217  1
  O  O263  1  0.75975676  0.78965769  0.60279152  1
  O  O264  1  0.23823434  0.21839358  0.36301402  1
  O  O265  1  0.31908516  0.25676416  0.85820509  1
  O  O266  1  0.24600861  0.75593713  0.38997749  1
  O  O267  1  0.25820819  0.74555594  0.90717875  1
  O  O268  1  0.74308751  0.24355911  0.36455131  1
  O  O269  1  0.75338621  0.22346252  0.89100333  1
  O  O270  1  0.67598282  0.73769541  0.38736276  1
  O  O271  1  0.73709949  0.77082910  0.88819716  1
  O  O272  1  0.02383877  0.12576910  -0.01478992  1
  O  O273  1  -0.04893586  0.08172709  0.48892896  1
  O  O274  1  -0.01707700  0.63998386  0.03814212  1
  O  O275  1  -0.01742340  0.59087356  0.50639483  1
  O  O276  1  0.49059476  0.11028687  0.01889607  1
  O  O277  1  0.49889401  0.12233593  0.51160822  1
  O  O278  1  0.50596864  0.60427077  0.01278787  1
  O  O279  1  0.45112647  0.58890931  0.50761645  1
  O  O280  1  0.48759589  0.36647321  0.49703474  1
  O  O281  1  0.50983975  0.42704481  1.01530729  1
  O  O282  1  0.50738780  0.89644371  0.47899195  1
  O  O283  1  0.49175985  0.88536265  1.00338204  1
  O  O284  1  1.01778464  0.40181855  0.53556124  1
  O  O285  1  1.00434055  0.41433844  0.98707305  1
  O  O286  1  0.97365227  0.87884114  0.48726484  1
  O  O287  1  0.99718404  0.86821042  1.00483304  1
  O  O288  1  0.48323958  0.47078072  0.40656834  1
  O  O289  1  0.52065422  0.51685791  0.87581672  1
  O  O290  1  0.49044813  0.99620060  0.36867656  1
  O  O291  1  0.49406677  0.99034180  0.89575610  1
  O  O292  1  0.98790277  0.48499373  0.40022773  1
  O  O293  1  0.96242435  0.53539917  0.81067944  1
  O  O294  1  1.01914120  0.99055410  0.39049781  1
  O  O295  1  0.98983228  1.00166334  0.89689836  1
  O  O296  1  0.02751595  0.02260568  0.11544488  1
  O  O297  1  -0.00301659  -0.02435990  0.60945814  1
  O  O298  1  -0.01223372  0.52165725  0.11444095  1
  O  O299  1  -0.00974963  0.51951429  0.62955697  1
  O  O300  1  0.50644884  0.00336798  0.12061950  1
  O  O301  1  0.48846068  0.00626763  0.60145324  1
  O  O302  1  0.54272685  0.49035811  0.16409479  1
  O  O303  1  0.47221685  0.45880013  0.62399429  1
  O  O304  1  0.25148825  0.38714135  0.24879827  1
  O  O305  1  0.23873388  0.40681696  0.76514076  1
  O  O306  1  0.25607924  0.88091658  0.25909921  1
  O  O307  1  0.25962826  0.87801748  0.76624389  1
  O  O308  1  0.63923860  0.32226437  0.25902007  1
  O  O309  1  0.74370763  0.36778323  0.80533603  1
  O  O310  1  0.73275093  0.89347545  0.24176938  1
  O  O311  1  0.72593263  0.90262763  0.69811071  1
  O  O312  1  0.26499336  0.10640783  0.25219965  1
  O  O313  1  0.25613868  0.13865163  0.76649127  1
  O  O314  1  0.27030722  0.60365419  0.23727789  1
  O  O315  1  0.22650842  0.63771649  0.73486454  1
  O  O316  1  0.75017503  0.11964048  0.25138982  1
  O  O317  1  0.73757258  0.12289487  0.76990794  1
  O  O318  1  0.77211422  0.64420590  0.27021047  1
  O  O319  1  0.76551357  0.66111251  0.75641439  1
  O  O320  1  0.36733560  0.11069157  0.36072660  1
  O  O321  1  0.36690754  0.10431772  0.89500878  1
  O  O322  1  0.38180628  0.63366707  0.34497537  1
  O  O323  1  0.39944794  0.62447107  0.87078355  1
  O  O324  1  0.85261986  0.13499789  0.35297048  1
  O  O325  1  0.86762980  0.10373189  0.88307963  1
  O  O326  1  0.88377299  0.61774018  0.36200504  1
  O  O327  1  0.86656416  0.69367868  0.86394701  1
  O  O328  1  0.19695642  0.31471995  0.00349789  1
  O  O329  1  0.11423530  0.38972489  0.65951155  1
  O  O330  1  0.12903410  0.90053219  0.11322816  1
  O  O331  1  0.05606848  0.82887487  0.62284190  1
  O  O332  1  0.65258707  0.39426473  0.12729778  1
  O  O333  1  0.60745633  0.36629394  0.61029868  1
  O  O334  1  0.61857885  0.89495430  0.13429918  1
  O  O335  1  0.63675835  0.86570318  0.59259930  1
  O  O336  1  0.11086914  0.21407363  0.25867286  1
  O  O337  1  0.14777446  0.27695322  0.76323433  1
  O  O338  1  0.14286903  0.73125291  0.27968011  1
  O  O339  1  0.13701095  0.78115170  0.73155654  1
  O  O340  1  0.62438255  0.30842424  0.32858603  1
  O  O341  1  0.61247267  0.24634873  0.73885312  1
  O  O342  1  0.61890170  0.76747986  0.22639813  1
  O  O343  1  0.63618582  0.77198806  0.76479008  1
  O  O344  1  0.36477673  0.23044810  0.25607743  1
  O  O345  1  0.31946680  0.29350322  0.68153209  1
  O  O346  1  0.38838774  0.75384646  0.23646878  1
  O  O347  1  0.38118827  0.74121802  0.76987221  1
  O  O348  1  0.90921317  0.23659600  0.24343334  1
  O  O349  1  0.89052148  0.21753179  0.73186851  1
  O  O350  1  0.86112231  0.78692358  0.24988063  1
  O  O351  1  0.85976969  0.84057893  0.73716624  1
  O  O352  1  0.36291284  0.46854063  0.52241141  1
  O  O353  1  0.35938865  0.51530025  0.98146531  1
  O  O354  1  0.38753423  1.01012798  0.47964774  1
  O  O355  1  0.37877488  0.98722083  1.01027954  1
  O  O356  1  0.86968901  0.47153634  0.52590633  1
  O  O357  1  0.90731281  0.53662170  0.95975507  1
  O  O358  1  0.89138536  1.02482393  0.49224873  1
  O  O359  1  0.90422340  0.99896001  1.02920864  1
  O  O360  1  0.11517945  -0.00317881  -0.00172637  1
  O  O361  1  0.10697421  -0.02137593  0.51301365  1
  O  O362  1  0.07877608  0.55157933  -0.03877192  1
  O  O363  1  0.17823341  0.49048850  0.49866581  1
  O  O364  1  0.61702497  -0.00736108  0.01596376  1
  O  O365  1  0.59985553  0.02320652  0.47859359  1
  O  O366  1  0.64396442  0.51569086  -0.02309817  1
  O  O367  1  0.57990484  0.50516516  0.53508528  1
  O  O368  1  0.37191161  0.36598213  0.13309881  1
  O  O369  1  0.33978804  0.33889135  0.62987726  1
  O  O370  1  0.38207418  0.86482672  0.11863973  1
  O  O371  1  0.41323320  0.86517629  0.64469014  1
  O  O372  1  0.86753973  0.34772992  0.12757649  1
  O  O373  1  0.90527862  0.32502420  0.63623870  1
  O  O374  1  0.88521851  0.87006651  0.11829670  1
  O  O375  1  0.84133109  0.90686726  0.59456158  1
  O  O376  1  0.13914340  0.10407531  0.36240374  1
  O  O377  1  0.19791178  0.16278915  0.91581554  1
  O  O378  1  0.12999909  0.61523174  0.40863927  1
  O  O379  1  0.09839030  0.68960164  0.86082549  1
  O  O380  1  0.63008331  0.13123094  0.36536080  1
  O  O381  1  0.63416348  0.10325514  0.88319395  1
  O  O382  1  0.58028425  0.60824703  0.37643613  1
  O  O383  1  0.65196568  0.65279056  0.86353577  1
