# generated using pymatgen
data_VZnO4
_symmetry_space_group_name_H-M   'P 1'
_cell_length_a   16.83859142
_cell_length_b   16.91259152
_cell_length_c   16.88301452
_cell_angle_alpha   90.02604632
_cell_angle_beta   89.81575692
_cell_angle_gamma   89.89154379
_symmetry_Int_Tables_number   1
_chemical_formula_structural   VZnO4
_chemical_formula_sum   'V64 Zn64 O256'
_cell_volume   4807.98211432
_cell_formula_units_Z   64
loop_
 _symmetry_equiv_pos_site_id
 _symmetry_equiv_pos_as_xyz
  1  'x, y, z'
loop_
 _atom_site_type_symbol
 _atom_site_label
 _atom_site_symmetry_multiplicity
 _atom_site_fract_x
 _atom_site_fract_y
 _atom_site_fract_z
 _atom_site_occupancy
  V  V0  1  0.74264201  0.47899273  0.75100355  1
  V  V1  1  0.75635772  0.51030389  0.25273744  1
  V  V2  1  0.00482532  0.87010479  0.88642955  1
  V  V3  1  -0.00211995  0.86799542  0.36596712  1
  V  V4  1  0.13257228  0.85502803  0.25157400  1
  V  V5  1  0.00947407  0.24645667  0.24856649  1
  V  V6  1  0.85253735  0.63230528  0.74437652  1
  V  V7  1  0.87286560  0.50255995  0.38089800  1
  V  V8  1  0.87672486  0.49823395  0.87693829  1
  V  V9  1  0.63665199  0.49859105  0.11250588  1
  V  V10  1  0.74323186  0.00104566  0.24088131  1
  V  V11  1  0.37926115  0.38490122  0.47761418  1
  V  V12  1  0.86286424  0.37135310  0.50927408  1
  V  V13  1  0.22715097  0.74638128  0.00257969  1
  V  V14  1  0.37452186  0.35982220  0.03258871  1
  V  V15  1  0.87408059  0.01364377  0.87236894  1
  V  V16  1  -0.00478259  0.00305954  0.50733909  1
  V  V17  1  0.60924829  0.85799468  0.76662110  1
  V  V18  1  0.23997565  0.89333012  0.11896533  1
  V  V19  1  0.62304990  0.49225408  0.62799750  1
  V  V20  1  0.50715690  0.14116776  0.10992675  1
  V  V21  1  0.49843854  0.26058273  0.74687930  1
  V  V22  1  0.50174509  0.50634815  0.49190503  1
  V  V23  1  0.87455539  0.00963415  0.37309649  1
  V  V24  1  0.00422114  0.37524743  0.87439070  1
  V  V25  1  0.63119228  0.74243832  0.39188525  1
  V  V26  1  0.50595825  0.25565597  0.26526964  1
  V  V27  1  0.63120376  0.00351704  0.09944996  1
  V  V28  1  0.46568019  0.51536856  0.00729415  1
  V  V29  1  0.27200237  0.49944096  0.24610444  1
  V  V30  1  0.36860636  0.61328859  0.75258020  1
  V  V31  1  0.23545822  0.13092936  0.87675317  1
  V  V32  1  0.87070277  0.22141221  0.63111882  1
  V  V33  1  0.01518490  0.01792668  0.01090539  1
  V  V34  1  0.36935915  0.26966982  0.62166067  1
  V  V35  1  0.50327516  0.64085372  0.63028342  1
  V  V36  1  0.12938827  0.11605560  0.49886963  1
  V  V37  1  0.38118831  0.12493160  0.26527306  1
  V  V38  1  0.63828390  0.36833419  0.26277174  1
  V  V39  1  0.13293089  0.51391747  0.61525209  1
  V  V40  1  -0.00212167  0.74477784  0.74916606  1
  V  V41  1  0.12280621  0.87163635  0.73972276  1
  V  V42  1  0.39152789  0.87254551  -0.00151511  1
  V  V43  1  0.73766251  0.23054848  0.49851700  1
  V  V44  1  0.86930987  0.13326265  0.23718911  1
  V  V45  1  0.53076149  0.72382260  0.24605883  1
  V  V46  1  0.75539458  0.86980357  0.62810672  1
  V  V47  1  0.73585577  0.01090038  0.75814704  1
  V  V48  1  0.12650332  0.39154618  0.24532415  1
  V  V49  1  0.00625349  0.36734501  0.38797764  1
  V  V50  1  0.68915149  0.20769807  -0.06450236  1
  V  V51  1  0.00079099  0.23933295  0.74471061  1
  V  V52  1  0.36280288  0.87763405  0.50054532  1
  V  V53  1  0.23511581  0.24724521  0.01341254  1
  V  V54  1  0.23400706  0.00011710  0.74346387  1
  V  V55  1  0.74779208  0.73540450  0.00314153  1
  V  V56  1  0.13537769  0.37537938  0.73267501  1
  V  V57  1  0.38218287  0.00205037  0.88286999  1
  V  V58  1  0.24585694  0.25278733  0.48439750  1
  V  V59  1  0.22943276  0.61031743  0.38131764  1
  V  V60  1  0.88486559  0.72994881  0.13123320  1
  V  V61  1  0.38170602  0.11304733  0.73645257  1
  V  V62  1  0.86758067  0.88274754  0.01485478  1
  V  V63  1  0.86722400  0.27144232  0.11657969  1
  Zn  Zn64  1  0.19576119  0.18583673  0.20721457  1
  Zn  Zn65  1  0.18615287  0.18690408  0.67826028  1
  Zn  Zn66  1  0.23119492  0.69796309  0.19748196  1
  Zn  Zn67  1  0.18139891  0.67513914  0.71457239  1
  Zn  Zn68  1  0.68876654  0.19058120  0.17860192  1
  Zn  Zn69  1  0.70509827  0.21879888  0.71735821  1
  Zn  Zn70  1  0.70190778  0.68330318  0.17989714  1
  Zn  Zn71  1  0.67569918  0.69308837  0.67732285  1
  Zn  Zn72  1  0.31599654  0.31413538  0.30229642  1
  Zn  Zn73  1  0.31127384  0.29693998  0.80696772  1
  Zn  Zn74  1  0.31932168  0.94640653  0.30266604  1
  Zn  Zn75  1  0.30441336  0.81463834  0.82637347  1
  Zn  Zn76  1  0.81329033  0.30808088  0.32282545  1
  Zn  Zn77  1  0.82138797  0.30208722  0.82750772  1
  Zn  Zn78  1  0.80519486  0.82277403  0.29412533  1
  Zn  Zn79  1  0.80644781  0.82504646  0.82000630  1
  Zn  Zn80  1  0.18883771  0.43556835  0.44418957  1
  Zn  Zn81  1  0.18951314  0.40501148  0.92791549  1
  Zn  Zn82  1  0.18066461  0.93818987  0.43247345  1
  Zn  Zn83  1  0.18885528  0.94231309  0.93289149  1
  Zn  Zn84  1  0.68600921  0.43580033  0.44091081  1
  Zn  Zn85  1  0.72295229  0.41386359  0.94594793  1
  Zn  Zn86  1  0.71997164  0.90399153  0.42695877  1
  Zn  Zn87  1  0.68800165  0.93322291  0.93315648  1
  Zn  Zn88  1  0.31119276  0.07978036  0.06402416  1
  Zn  Zn89  1  0.29910296  0.06528126  0.56196055  1
  Zn  Zn90  1  0.26610217  0.53806170  0.04017037  1
  Zn  Zn91  1  0.31551354  0.56712259  0.56554440  1
  Zn  Zn92  1  0.81208609  0.07772760  0.05264059  1
  Zn  Zn93  1  0.79313326  0.03944324  0.55812017  1
  Zn  Zn94  1  0.81553186  0.55575228  0.06468691  1
  Zn  Zn95  1  0.82596209  0.54916963  0.57889606  1
  Zn  Zn96  1  0.45389533  0.43912533  0.18492593  1
  Zn  Zn97  1  0.43444718  0.44586275  0.68363815  1
  Zn  Zn98  1  0.41600099  0.98212808  0.14224788  1
  Zn  Zn99  1  0.43859749  0.93071670  0.68831398  1
  Zn  Zn100  1  0.94073017  0.43513152  0.19826800  1
  Zn  Zn101  1  0.94400517  0.43230194  0.68524127  1
  Zn  Zn102  1  0.94631433  0.94515742  0.18948490  1
  Zn  Zn103  1  0.92900323  0.93274491  0.69358003  1
  Zn  Zn104  1  0.05408876  0.07808232  0.32959770  1
  Zn  Zn105  1  0.05513652  0.05859602  0.81829903  1
  Zn  Zn106  1  0.05117819  0.55755825  0.43294657  1
  Zn  Zn107  1  0.03954994  0.53642722  0.76366751  1
  Zn  Zn108  1  0.52968877  0.02906125  0.26106284  1
  Zn  Zn109  1  0.56760247  0.07222647  0.82563307  1
  Zn  Zn110  1  0.58536813  0.56900491  0.32235683  1
  Zn  Zn111  1  0.53134930  0.54341156  0.80494303  1
  Zn  Zn112  1  0.43549836  0.20006150  0.43402190  1
  Zn  Zn113  1  0.42985891  0.19177211  0.93057033  1
  Zn  Zn114  1  0.44968016  0.70214253  0.44404122  1
  Zn  Zn115  1  0.37201656  0.66774442  0.94685103  1
  Zn  Zn116  1  0.93414780  0.18766026  0.44038653  1
  Zn  Zn117  1  0.94474021  0.19410303  0.93924350  1
  Zn  Zn118  1  0.92129173  0.69099576  0.32158238  1
  Zn  Zn119  1  0.89279978  0.70750335  0.91130096  1
  Zn  Zn120  1  0.05702321  0.31802502  0.06670139  1
  Zn  Zn121  1  0.06062782  0.30336482  0.56865545  1
  Zn  Zn122  1  0.05906200  0.81316189  0.07103855  1
  Zn  Zn123  1  0.03129332  0.82509270  0.56775679  1
  Zn  Zn124  1  0.56698589  0.32463622  0.06989557  1
  Zn  Zn125  1  0.55710289  0.31216706  0.56632996  1
  Zn  Zn126  1  0.56983132  0.81611369  0.07094980  1
  Zn  Zn127  1  0.56237587  0.83728614  0.57363390  1
  O  O128  1  0.13359347  0.07771035  0.18197159  1
  O  O129  1  0.11705764  0.14228423  0.59807978  1
  O  O130  1  0.08976745  0.60384305  0.12470571  1
  O  O131  1  0.13391369  0.61536501  0.63091755  1
  O  O132  1  0.61604136  0.12502795  0.11959870  1
  O  O133  1  0.58906147  0.09816807  0.63223150  1
  O  O134  1  0.63899384  0.59912778  0.12720403  1
  O  O135  1  0.61008387  0.61642631  0.62170103  1
  O  O136  1  0.38309913  0.37732185  0.37955344  1
  O  O137  1  0.34960119  0.39698782  0.86233777  1
  O  O138  1  0.35711920  0.88266129  0.39389264  1
  O  O139  1  0.36759294  0.89123484  0.88621062  1
  O  O140  1  0.88147014  0.37877119  0.38996759  1
  O  O141  1  0.88998962  0.38973694  0.85554440  1
  O  O142  1  0.89125661  0.89044316  0.35225151  1
  O  O143  1  0.88679106  0.88558970  0.88907497  1
  O  O144  1  0.24732763  0.00227706  0.36949346  1
  O  O145  1  0.25427850  0.01243874  0.86542191  1
  O  O146  1  0.24415079  0.50571209  0.36637695  1
  O  O147  1  0.29225229  0.44826945  0.86180801  1
  O  O148  1  0.76867409  -0.00857535  0.36066998  1
  O  O149  1  0.76524327  -0.00442226  0.86861252  1
  O  O150  1  0.76305835  0.49679012  0.37262947  1
  O  O151  1  0.76045692  0.48915073  0.85980260  1
  O  O152  1  0.25192191  0.50675870  0.14813305  1
  O  O153  1  0.23474118  0.49779646  0.61025163  1
  O  O154  1  0.24604712  0.99352318  0.11340201  1
  O  O155  1  0.24151579  1.00624901  0.64441975  1
  O  O156  1  0.75474027  0.49516043  0.14515654  1
  O  O157  1  0.73347295  0.50732106  0.63594775  1
  O  O158  1  0.73856723  1.02398326  0.13020682  1
  O  O159  1  0.76383237  0.99118881  0.65769745  1
  O  O160  1  0.00933079  0.36602906  0.26415173  1
  O  O161  1  0.01131908  0.36461766  0.75045691  1
  O  O162  1  0.02095232  0.88462892  0.25486764  1
  O  O163  1  0.00643537  0.87124143  0.76316658  1
  O  O164  1  0.50959371  0.36116645  0.24941927  1
  O  O165  1  0.48746571  0.36078137  0.73986248  1
  O  O166  1  0.46572747  0.84071232  0.25869662  1
  O  O167  1  0.50708477  0.87423306  0.75708599  1
  O  O168  1  0.50061228  0.14173042  0.24324697  1
  O  O169  1  0.48231229  0.11979464  0.74996356  1
  O  O170  1  0.50911683  0.62593112  0.25414240  1
  O  O171  1  0.50041112  0.63355704  0.73543569  1
  O  O172  1  0.98980917  0.14163279  0.25587559  1
  O  O173  1  1.00397910  0.14054296  0.75770545  1
  O  O174  1  1.03255904  0.57164818  0.16126770  1
  O  O175  1  1.01402265  0.64658044  0.76363702  1
  O  O176  1  0.36395559  0.25801722  0.00009041  1
  O  O177  1  0.37425649  0.26507676  0.50512413  1
  O  O178  1  0.37060291  0.77478496  -0.00607673  1
  O  O179  1  0.37098369  0.77461996  0.50238797  1
  O  O180  1  0.89115072  0.25266455  0.01985748  1
  O  O181  1  0.86863483  0.25285015  0.51477015  1
  O  O182  1  0.87585654  0.76385705  0.01618811  1
  O  O183  1  0.82901296  0.71261949  0.49093872  1
  O  O184  1  0.14570127  0.26164088  0.49969339  1
  O  O185  1  0.13553646  0.25877444  1.00120353  1
  O  O186  1  0.06241342  0.70860452  0.51198164  1
  O  O187  1  0.12738761  0.73850127  1.01442542  1
  O  O188  1  0.63954361  0.25355945  0.51518095  1
  O  O189  1  0.62984274  0.26702315  0.99559486  1
  O  O190  1  0.61199575  0.78153825  0.48395002  1
  O  O191  1  0.64951343  0.75894943  1.01239054  1
  O  O192  1  0.50745627  0.24306098  0.13317294  1
  O  O193  1  0.47514942  0.24814126  0.62416814  1
  O  O194  1  0.51649524  0.75208459  0.14955031  1
  O  O195  1  0.50499468  0.73928384  0.61087156  1
  O  O196  1  0.99106742  0.25859408  0.14525349  1
  O  O197  1  0.98218512  0.24841861  0.63311785  1
  O  O198  1  0.98366177  0.75470668  0.13287551  1
  O  O199  1  0.99071051  0.75950400  0.65009725  1
  O  O200  1  -0.01305260  0.26119504  0.36406068  1
  O  O201  1  -0.01441090  0.26501672  0.85656508  1
  O  O202  1  -0.00885948  0.76769496  0.36791110  1
  O  O203  1  -0.00864104  0.76656431  0.87487321  1
  O  O204  1  0.51310556  0.24835171  0.36513041  1
  O  O205  1  0.48208449  0.24723948  0.84720756  1
  O  O206  1  0.52310968  0.74763353  0.36204512  1
  O  O207  1  0.55499566  0.71052005  0.90017828  1
  O  O208  1  0.23882125  0.13326210  0.49430419  1
  O  O209  1  0.25021075  0.13408552  0.98558430  1
  O  O210  1  0.26741676  0.61952433  0.47502314  1
  O  O211  1  0.26927444  0.64714398  1.00709901  1
  O  O212  1  0.74423690  0.12924375  0.50759274  1
  O  O213  1  0.75153211  0.14858419  0.98863373  1
  O  O214  1  0.78290214  0.65632593  0.50025401  1
  O  O215  1  0.75525070  0.63504020  1.00492097  1
  O  O216  1  0.25813588  0.35648281  0.00526101  1
  O  O217  1  0.26814935  0.36585857  0.49249204  1
  O  O218  1  0.23562742  0.86918554  0.01115678  1
  O  O219  1  0.25444358  0.87485455  0.49583059  1
  O  O220  1  0.76182131  0.31086368  -0.06920082  1
  O  O221  1  0.76028030  0.36542190  0.50050356  1
  O  O222  1  0.76694391  0.87758941  0.00191489  1
  O  O223  1  0.74024849  0.92161821  0.53357959  1
  O  O224  1  0.12020189  0.48819915  0.25425172  1
  O  O225  1  0.14058289  0.48306746  0.73843373  1
  O  O226  1  0.12834485  1.03274803  0.24327352  1
  O  O227  1  0.12661007  0.99111549  0.75370641  1
  O  O228  1  0.64394836  0.49350751  0.25430452  1
  O  O229  1  0.63128377  0.50371325  0.74585217  1
  O  O230  1  0.64369525  1.01186337  0.25596178  1
  O  O231  1  0.63285566  0.99331543  0.76854354  1
  O  O232  1  0.40716345  0.00852456  0.25820331  1
  O  O233  1  0.36390641  0.00106129  0.75395832  1
  O  O234  1  0.37160067  0.48960145  0.25035104  1
  O  O235  1  0.40772467  0.51754955  0.77118497  1
  O  O236  1  0.87448840  0.01803130  0.25047624  1
  O  O237  1  0.87865215  0.00077973  0.76973309  1
  O  O238  1  0.86618734  0.48875029  0.26866236  1
  O  O239  1  0.85433486  0.51018733  0.74603545  1
  O  O240  1  0.11001750  0.37626806  0.37453281  1
  O  O241  1  0.11241571  0.37692482  0.85224939  1
  O  O242  1  0.11818449  0.87703355  0.35861801  1
  O  O243  1  0.10780476  0.88104226  0.87175372  1
  O  O244  1  0.62282532  0.38112079  0.36213713  1
  O  O245  1  0.62622230  0.36785946  0.85432163  1
  O  O246  1  0.58768830  0.92672088  0.39833359  1
  O  O247  1  0.62741276  0.86791132  0.86807668  1
  O  O248  1  0.39713349  0.10736508  0.13541218  1
  O  O249  1  0.37434336  0.11175807  0.63476278  1
  O  O250  1  0.44205428  0.61172680  0.01860458  1
  O  O251  1  0.38497434  0.62105790  0.64172299  1
  O  O252  1  0.87791706  0.13480625  0.13570420  1
  O  O253  1  0.87242200  0.12407940  0.62325334  1
  O  O254  1  0.88663983  0.63048366  0.11899358  1
  O  O255  1  0.87709774  0.62479087  0.64577151  1
  O  O256  1  0.24316896  0.22698245  0.11200879  1
  O  O257  1  0.26816850  0.23733222  0.60720195  1
  O  O258  1  0.25367567  0.76952046  0.11498963  1
  O  O259  1  0.26915160  0.75629874  0.66973564  1
  O  O260  1  0.76709251  0.25527417  0.12692719  1
  O  O261  1  0.76546190  0.24544106  0.62187907  1
  O  O262  1  0.77076383  0.74852745  0.11604962  1
  O  O263  1  0.73442192  0.77055758  0.61564912  1
  O  O264  1  0.26173206  0.24861498  0.38515862  1
  O  O265  1  0.25096748  0.23560832  0.88042401  1
  O  O266  1  0.29174159  0.71524449  0.35803534  1
  O  O267  1  0.23923025  0.76021005  0.90056196  1
  O  O268  1  0.75640323  0.24428996  0.39880649  1
  O  O269  1  0.73276084  0.23031472  0.83089144  1
  O  O270  1  0.72073605  0.80443818  0.37151228  1
  O  O271  1  0.77745663  0.74946579  0.90063699  1
  O  O272  1  0.00682750  0.11708327  -0.00513101  1
  O  O273  1  -0.00084015  0.10821914  0.50019377  1
  O  O274  1  0.05518680  0.58348859  -0.01963582  1
  O  O275  1  0.00792084  0.65765008  0.50541733  1
  O  O276  1  0.49218122  0.13767002  0.01117373  1
  O  O277  1  0.51214869  0.13069117  0.50304908  1
  O  O278  1  0.51254868  0.51676120  -0.08391769  1
  O  O279  1  0.48168953  0.61360160  0.51130771  1
  O  O280  1  0.48726081  0.38750870  0.50501336  1
  O  O281  1  0.47569686  0.37657260  1.01022225  1
  O  O282  1  0.46558678  0.88540724  0.48490145  1
  O  O283  1  0.49052182  0.87531235  1.00753469  1
  O  O284  1  0.98966040  0.35752737  0.49108840  1
  O  O285  1  1.01143060  0.37212740  0.97450030  1
  O  O286  1  1.00842068  0.88725168  0.47701739  1
  O  O287  1  0.99555674  0.88151790  0.99537602  1
  O  O288  1  0.51112593  0.51267539  0.39355279  1
  O  O289  1  0.55883066  0.38202701  0.87903937  1
  O  O290  1  0.54211478  0.98407399  0.38240198  1
  O  O291  1  0.48070511  1.00912001  0.87258252  1
  O  O292  1  0.98623610  0.47893454  0.37939892  1
  O  O293  1  0.98935492  0.48923967  0.85848099  1
  O  O294  1  0.99068018  0.99554365  0.37833003  1
  O  O295  1  0.99035583  0.99242499  0.88735182  1
  O  O296  1  -0.00000368  0.00533093  0.11040138  1
  O  O297  1  -0.01423846  -0.01890181  0.60418828  1
  O  O298  1  -0.00091755  0.50714648  0.12397721  1
  O  O299  1  0.01839001  0.51020407  0.64971684  1
  O  O300  1  0.52464332  0.01853685  0.13484072  1
  O  O301  1  0.51437285  -0.05916270  0.60264648  1
  O  O302  1  0.51879526  0.49756170  0.10271594  1
  O  O303  1  0.50883808  0.51092082  0.62058118  1
  O  O304  1  0.23801902  0.38784916  0.26146870  1
  O  O305  1  0.23236568  0.34895741  0.74243600  1
  O  O306  1  0.23803566  0.88679900  0.23685518  1
  O  O307  1  0.23211940  0.88834314  0.76107869  1
  O  O308  1  0.74264780  0.37514962  0.25878711  1
  O  O309  1  0.75002756  0.38247497  0.74368920  1
  O  O310  1  0.75919548  0.90370727  0.22877586  1
  O  O311  1  0.74002567  0.87970267  0.74824051  1
  O  O312  1  0.28136395  0.12659890  0.24937880  1
  O  O313  1  0.25232108  0.11745458  0.75532281  1
  O  O314  1  0.25210542  0.60972890  0.26460592  1
  O  O315  1  0.26700577  0.60895484  0.75320059  1
  O  O316  1  0.76508529  0.12456608  0.24941274  1
  O  O317  1  0.73613431  0.10941458  0.74702455  1
  O  O318  1  0.75687694  0.60937406  0.25648212  1
  O  O319  1  0.75252857  0.63534418  0.74817078  1
  O  O320  1  0.39198015  0.12141402  0.36619676  1
  O  O321  1  0.36294604  0.11485566  0.86190006  1
  O  O322  1  0.36675169  0.69617223  0.35293369  1
  O  O323  1  0.38560235  0.67508460  0.83566227  1
  O  O324  1  0.87984775  0.11438245  0.36442375  1
  O  O325  1  0.88092227  0.11227663  0.88335852  1
  O  O326  1  0.89723771  0.60210305  0.38207366  1
  O  O327  1  0.88270766  0.60588506  0.85584148  1
  O  O328  1  0.11830049  0.37532264  0.14578739  1
  O  O329  1  0.11944001  0.38144402  0.62864740  1
  O  O330  1  0.12988966  0.87759662  0.13984486  1
  O  O331  1  0.11573423  0.87090440  0.64027737  1
  O  O332  1  0.62420045  0.39280974  0.14746177  1
  O  O333  1  0.61615277  0.39318235  0.62893459  1
  O  O334  1  0.62733875  0.90488663  0.11903529  1
  O  O335  1  0.63470749  0.87991802  0.65327237  1
  O  O336  1  0.11360649  0.24995524  0.25236285  1
  O  O337  1  0.10822965  0.25571916  0.73302925  1
  O  O338  1  0.14007537  0.75647582  0.25199648  1
  O  O339  1  0.11655499  0.76368886  0.75689439  1
  O  O340  1  0.62305431  0.26111534  0.24754936  1
  O  O341  1  0.59519016  0.24113212  0.72420590  1
  O  O342  1  0.63348988  0.73598384  0.26066184  1
  O  O343  1  0.62203897  0.75800828  0.75419306  1
  O  O344  1  0.39387765  0.24137826  0.25635630  1
  O  O345  1  0.37359446  0.23384995  0.73210003  1
  O  O346  1  0.39171348  0.83425322  0.24880552  1
  O  O347  1  0.32980986  0.76254760  0.71605308  1
  O  O348  1  0.87862145  0.24472814  0.24575569  1
  O  O349  1  0.88104593  0.24999815  0.73664093  1
  O  O350  1  0.86424716  0.74156716  0.24045173  1
  O  O351  1  0.88374030  0.73707281  0.76720634  1
  O  O352  1  0.38406732  0.48940290  0.50158594  1
  O  O353  1  0.36362841  0.47595950  1.00892193  1
  O  O354  1  0.35757320  0.98567991  0.50264531  1
  O  O355  1  0.36844549  0.99965334  0.98730840  1
  O  O356  1  0.86662513  0.48629253  0.49322181  1
  O  O357  1  0.86590547  0.49814615  0.97666715  1
  O  O358  1  0.88167674  1.00295354  0.48123681  1
  O  O359  1  0.88018976  0.99557751  0.99633445  1
  O  O360  1  0.11390559  0.00015775  -0.00310017  1
  O  O361  1  0.11350987  0.00831883  0.49797372  1
  O  O362  1  0.16549549  0.49987319  -0.00916836  1
  O  O363  1  0.11337937  0.49792009  0.50919048  1
  O  O364  1  0.63327907  0.00874020  -0.00003229  1
  O  O365  1  0.62550272  0.05028291  0.59226894  1
  O  O366  1  0.66264611  0.47871816  0.01579554  1
  O  O367  1  0.61321178  0.49587408  0.51220895  1
  O  O368  1  0.37392078  0.36428425  0.13166605  1
  O  O369  1  0.36463417  0.37003117  0.62634940  1
  O  O370  1  0.35975122  0.89136816  0.10404220  1
  O  O371  1  0.36321487  0.88724566  0.60470612  1
  O  O372  1  0.87991383  0.37179510  0.12695900  1
  O  O373  1  0.87723556  0.38183361  0.60910762  1
  O  O374  1  0.88121006  0.88208781  0.11550715  1
  O  O375  1  0.85799472  0.86522211  0.63662333  1
  O  O376  1  0.11040644  0.14410156  0.40072033  1
  O  O377  1  0.13674606  0.12308378  0.86943043  1
  O  O378  1  0.12971215  0.62651600  0.38486487  1
  O  O379  1  0.11779465  0.56533636  0.94628753  1
  O  O380  1  0.56938466  0.10372245  0.46394214  1
  O  O381  1  0.62104710  0.14564717  0.89046583  1
  O  O382  1  0.64523241  0.64275812  0.39521183  1
  O  O383  1  0.60179091  0.65699980  0.88639137  1
