# generated using pymatgen
data_VZnO4
_symmetry_space_group_name_H-M   'P 1'
_cell_length_a   16.92783777
_cell_length_b   16.94439092
_cell_length_c   16.95945322
_cell_angle_alpha   89.64800681
_cell_angle_beta   90.16699079
_cell_angle_gamma   89.65862358
_symmetry_Int_Tables_number   1
_chemical_formula_structural   VZnO4
_chemical_formula_sum   'V64 Zn64 O256'
_cell_volume   4864.31287908
_cell_formula_units_Z   64
loop_
 _symmetry_equiv_pos_site_id
 _symmetry_equiv_pos_as_xyz
  1  'x, y, z'
loop_
 _atom_site_type_symbol
 _atom_site_label
 _atom_site_symmetry_multiplicity
 _atom_site_fract_x
 _atom_site_fract_y
 _atom_site_fract_z
 _atom_site_occupancy
  V  V0  1  0.88183179  0.62957582  0.23703517  1
  V  V1  1  0.49450974  0.63046029  0.12452779  1
  V  V2  1  0.25246405  0.48309842  0.25802302  1
  V  V3  1  0.13106626  0.04244889  0.63262610  1
  V  V4  1  0.36095580  0.64934930  0.74628043  1
  V  V5  1  0.47971774  0.24452553  0.24396801  1
  V  V6  1  0.60469272  0.37817473  0.79609133  1
  V  V7  1  0.48475782  0.37622279  0.37079181  1
  V  V8  1  0.74701223  0.49778454  0.24766120  1
  V  V9  1  0.89429084  0.37091078  0.47756023  1
  V  V10  1  0.24676039  0.64625400  0.38040153  1
  V  V11  1  0.12509436  0.62329233  0.00440567  1
  V  V12  1  0.91711238  0.49369786  0.35906145  1
  V  V13  1  0.26540550  0.74202950  -0.00337993  1
  V  V14  1  0.25638634  0.00111991  0.75365889  1
  V  V15  1  0.25682234  0.85809486  0.11911405  1
  V  V16  1  0.52416637  0.75656990  0.76154190  1
  V  V17  1  0.87070048  0.35440250  0.03939138  1
  V  V18  1  0.48648344  0.16361632  0.61510883  1
  V  V19  1  0.50414855  0.64488041  0.62430678  1
  V  V20  1  0.88267396  0.73689928  0.63434336  1
  V  V21  1  0.88051693  0.76277675  0.12436803  1
  V  V22  1  0.74833224  0.88845198  0.62064570  1
  V  V23  1  0.36562843  0.63912954  0.25325611  1
  V  V24  1  0.63151554  0.24955393  0.36265527  1
  V  V25  1  0.85130510  0.11467552  0.20368222  1
  V  V26  1  -0.03140135  0.38222336  0.87289472  1
  V  V27  1  0.11339339  0.86235858  0.25582003  1
  V  V28  1  0.52667324  0.03637763  0.12208421  1
  V  V29  1  -0.00151770  0.24293230  0.75927566  1
  V  V30  1  0.87967230  0.86758222  -0.02748118  1
  V  V31  1  0.63066992  0.89610882  0.75046512  1
  V  V32  1  0.14094083  -0.00836000  0.10955422  1
  V  V33  1  0.75524307  0.25528945  0.48702386  1
  V  V34  1  0.87367989  0.24318834  0.63679446  1
  V  V35  1  0.73590358  0.75806829  -0.00429505  1
  V  V36  1  0.75204571  0.39221722  0.61544096  1
  V  V37  1  0.10607630  0.74448103  0.87117165  1
  V  V38  1  0.87186587  0.01208940  0.85225621  1
  V  V39  1  0.70306602  0.20727533  -0.01854831  1
  V  V40  1  0.49920296  0.88527219  0.37009440  1
  V  V41  1  0.13647841  0.48906655  0.12618677  1
  V  V42  1  0.76048811  0.61212331  0.87169999  1
  V  V43  1  0.26705967  0.49053020  0.73705960  1
  V  V44  1  0.01118727  -0.00364999  -0.01830592  1
  V  V45  1  0.49717262  0.49921718  0.51278194  1
  V  V46  1  0.02041784  0.12931911  0.11364435  1
  V  V47  1  0.61670506  0.62043725  -0.00946923  1
  V  V48  1  0.76083223  0.74691433  0.50264058  1
  V  V49  1  0.01529491  0.02353297  0.49612004  1
  V  V50  1  -0.01727712  0.50430891  0.01146813  1
  V  V51  1  0.61784193  0.74638990  0.38730933  1
  V  V52  1  0.36093380  0.86270169  0.50528198  1
  V  V53  1  0.07645081  0.50598494  0.62232762  1
  V  V54  1  0.12140486  0.38583379  0.75731658  1
  V  V55  1  0.76079439  0.10459284  0.37385763  1
  V  V56  1  0.63410615  0.36941760  0.24257611  1
  V  V57  1  0.51041602  0.74973864  0.24307200  1
  V  V58  1  0.49620829  0.00044784  0.51543455  1
  V  V59  1  0.37712025  0.49034205  0.88643413  1
  V  V60  1  0.61728417  0.50052288  0.12731226  1
  V  V61  1  0.74644826  0.62339016  0.37189123  1
  V  V62  1  0.62466479  0.12412501  0.50029689  1
  V  V63  1  0.24702323  -0.00888602  0.27448267  1
  Zn  Zn64  1  0.15871969  0.14999284  0.21614020  1
  Zn  Zn65  1  0.19027442  0.18436162  0.74633013  1
  Zn  Zn66  1  0.17214656  0.68587589  0.18342930  1
  Zn  Zn67  1  0.16288240  0.66169318  0.69899443  1
  Zn  Zn68  1  0.68471134  0.14005557  0.16970155  1
  Zn  Zn69  1  0.66475905  0.23985654  0.66866450  1
  Zn  Zn70  1  0.69024304  0.68789781  0.17948623  1
  Zn  Zn71  1  0.69040288  0.67382638  0.68620165  1
  Zn  Zn72  1  0.30381159  0.29431409  0.31917584  1
  Zn  Zn73  1  0.44424088  0.30805098  0.85927024  1
  Zn  Zn74  1  0.31528758  0.82041438  0.31399061  1
  Zn  Zn75  1  0.25599866  0.80544146  0.79760999  1
  Zn  Zn76  1  0.82292819  0.30125589  0.29472015  1
  Zn  Zn77  1  0.78729649  0.31064501  0.80953795  1
  Zn  Zn78  1  0.80598478  0.80409920  0.30982091  1
  Zn  Zn79  1  0.80146191  0.80091699  0.80506336  1
  Zn  Zn80  1  0.17260705  0.52872042  0.45077634  1
  Zn  Zn81  1  0.18657022  0.45465751  0.92104176  1
  Zn  Zn82  1  0.16132847  0.92832880  0.45619715  1
  Zn  Zn83  1  0.18727073  0.91341861  0.92505110  1
  Zn  Zn84  1  0.67887336  0.44140237  0.43502926  1
  Zn  Zn85  1  0.69899814  0.43379974  0.95494139  1
  Zn  Zn86  1  0.67703289  0.93184295  0.44370492  1
  Zn  Zn87  1  0.66669930  1.00478131  0.89882909  1
  Zn  Zn88  1  0.37177331  0.09961790  0.24493642  1
  Zn  Zn89  1  0.32365876  0.04461485  0.57408109  1
  Zn  Zn90  1  0.31273565  0.56473351  0.06997540  1
  Zn  Zn91  1  0.32576237  0.56021801  0.56297309  1
  Zn  Zn92  1  0.79229685  0.04006662  0.02850234  1
  Zn  Zn93  1  0.82411486  0.06442709  0.54551572  1
  Zn  Zn94  1  0.80092851  0.56918680  0.06240743  1
  Zn  Zn95  1  0.83400726  0.55969668  0.54455451  1
  Zn  Zn96  1  0.44726035  0.45579487  0.21714010  1
  Zn  Zn97  1  0.44631655  0.41287126  0.69235691  1
  Zn  Zn98  1  0.42464806  0.92891187  0.18760510  1
  Zn  Zn99  1  0.43595776  0.92637467  0.68903042  1
  Zn  Zn100  1  0.94957797  0.43957382  0.19365357  1
  Zn  Zn101  1  0.90925112  0.42723298  0.68826642  1
  Zn  Zn102  1  0.93970287  0.94194634  0.16582743  1
  Zn  Zn103  1  0.92246841  0.95166958  0.64212490  1
  Zn  Zn104  1  0.02050205  0.02238704  0.28281718  1
  Zn  Zn105  1  0.02555495  0.02485717  0.76458405  1
  Zn  Zn106  1  0.06863560  0.56441945  0.30560624  1
  Zn  Zn107  1  0.05880515  0.55270789  0.82795871  1
  Zn  Zn108  1  0.56531822  0.07196149  0.30551896  1
  Zn  Zn109  1  0.56188238  0.08219316  0.76921429  1
  Zn  Zn110  1  0.57070467  0.54859808  0.33880786  1
  Zn  Zn111  1  0.55657780  0.55962109  0.80309789  1
  Zn  Zn112  1  0.44293911  0.17294293  0.41080927  1
  Zn  Zn113  1  0.52994402  0.14545055  0.93814531  1
  Zn  Zn114  1  0.43128829  0.68420957  0.44079807  1
  Zn  Zn115  1  0.43835993  0.67636661  0.92426533  1
  Zn  Zn116  1  0.94682274  0.18019400  0.43213133  1
  Zn  Zn117  1  0.93370605  0.18577168  0.93904116  1
  Zn  Zn118  1  0.95178100  0.66561828  0.41427082  1
  Zn  Zn119  1  0.93739108  0.68334254  0.93601232  1
  Zn  Zn120  1  0.06609710  0.32577604  0.05204689  1
  Zn  Zn121  1  0.05358011  0.32092166  0.57711017  1
  Zn  Zn122  1  0.05929184  0.81229149  0.06262261  1
  Zn  Zn123  1  0.01612606  0.80994371  0.51272052  1
  Zn  Zn124  1  0.59526509  0.27707228  0.08479697  1
  Zn  Zn125  1  0.56979794  0.32323705  0.54620057  1
  Zn  Zn126  1  0.56053721  0.83214454  0.06503604  1
  Zn  Zn127  1  0.56676346  0.81862191  0.56192028  1
  O  O128  1  0.14022767  0.09587857  0.10489030  1
  O  O129  1  0.13948823  0.14055534  0.65060295  1
  O  O130  1  0.12023009  0.61097660  0.11263438  1
  O  O131  1  0.09658225  0.60615514  0.63345657  1
  O  O132  1  0.59778712  0.06754022  0.19510034  1
  O  O133  1  0.61198293  0.15544604  0.60150961  1
  O  O134  1  0.61309378  0.62086262  0.12126760  1
  O  O135  1  0.59982503  0.61603834  0.64185762  1
  O  O136  1  0.38795791  0.35749129  0.37254707  1
  O  O137  1  0.37571363  0.38791970  0.89450022  1
  O  O138  1  0.39580270  0.86821768  0.38837745  1
  O  O139  1  0.48797714  0.91114592  0.92462766  1
  O  O140  1  0.87802133  0.37858651  0.36826947  1
  O  O141  1  0.86933980  0.37921384  0.87333897  1
  O  O142  1  0.87436027  0.88275465  0.37213539  1
  O  O143  1  0.88258682  0.86372071  0.87293038  1
  O  O144  1  0.22575929  -0.00636678  0.36986190  1
  O  O145  1  0.16145228  0.13410824  0.93060216  1
  O  O146  1  0.24333088  0.50729189  0.35656057  1
  O  O147  1  0.26444097  0.50079039  0.85381168  1
  O  O148  1  0.74506441  0.00680415  0.39263084  1
  O  O149  1  0.77397455  -0.00740984  0.85401580  1
  O  O150  1  0.73997972  0.51009438  0.36030967  1
  O  O151  1  0.74368149  0.51361657  0.88833885  1
  O  O152  1  0.24251644  0.49807977  0.13136385  1
  O  O153  1  0.26114738  0.49304337  0.63527476  1
  O  O154  1  0.24218456  0.97258860  0.10511360  1
  O  O155  1  0.24046495  1.00624706  0.64085684  1
  O  O156  1  0.73229922  0.51135915  0.13901571  1
  O  O157  1  0.75341975  0.48861439  0.58749607  1
  O  O158  1  0.77946422  1.07538402  0.13387548  1
  O  O159  1  0.75710318  0.98677725  0.60565195  1
  O  O160  1  -0.00765818  0.45195762  0.30042095  1
  O  O161  1  -0.01392783  0.37977471  0.76587634  1
  O  O162  1  0.01503273  0.90445587  0.24585233  1
  O  O163  1  0.02506535  0.86557626  0.72844584  1
  O  O164  1  0.50623269  0.35417064  0.25045839  1
  O  O165  1  0.50514430  0.34831126  0.77046714  1
  O  O166  1  0.49113545  0.85760255  0.26418458  1
  O  O167  1  0.51794579  0.86385728  0.73921794  1
  O  O168  1  0.46841108  0.14109462  0.29576234  1
  O  O169  1  0.51125134  0.16304591  0.71493744  1
  O  O170  1  0.49101655  0.63910567  0.24502263  1
  O  O171  1  0.48904810  0.64910886  0.74364745  1
  O  O172  1  1.04308227  0.12040704  0.21769832  1
  O  O173  1  1.01011441  0.14615416  0.76744497  1
  O  O174  1  0.98054681  0.62322528  0.24964231  1
  O  O175  1  0.95370368  0.58808117  0.76014265  1
  O  O176  1  0.36982155  0.20926594  -0.02027083  1
  O  O177  1  0.27658000  0.14629732  0.50411871  1
  O  O178  1  0.36361670  0.73174582  -0.00733103  1
  O  O179  1  0.37667584  0.76183545  0.50151161  1
  O  O180  1  0.88106926  0.25784271  0.01249373  1
  O  O181  1  0.86919794  0.25875570  0.48204349  1
  O  O182  1  0.87883772  0.75801419  0.00539365  1
  O  O183  1  0.85863874  0.75324609  0.49394387  1
  O  O184  1  0.15029461  0.25986532  0.53406857  1
  O  O185  1  0.17244572  0.30077796  0.98940456  1
  O  O186  1  0.16473729  0.74948730  0.53932127  1
  O  O187  1  0.10681595  0.72971616  0.99459361  1
  O  O188  1  0.63595329  0.24830464  0.47930221  1
  O  O189  1  0.60156037  0.23463575  0.97260764  1
  O  O190  1  0.62527431  0.74217825  0.48884224  1
  O  O191  1  0.63065190  0.75213495  1.00704272  1
  O  O192  1  0.51350438  0.22609325  0.15115073  1
  O  O193  1  0.48391224  0.26083281  0.58811794  1
  O  O194  1  0.50900029  0.74991980  0.13717243  1
  O  O195  1  0.50584150  0.74773620  0.63187154  1
  O  O196  1  1.04621964  0.22344777  0.09025535  1
  O  O197  1  0.98255356  0.26089654  0.64596519  1
  O  O198  1  0.97943712  0.75221993  0.12289013  1
  O  O199  1  0.97722140  0.76531915  0.60970196  1
  O  O200  1  0.01988632  0.23664548  0.35606072  1
  O  O201  1  -0.01594589  0.26736559  0.86729335  1
  O  O202  1  -0.05369835  0.86724651  0.38450761  1
  O  O203  1  0.00901399  0.72121995  0.85619807  1
  O  O204  1  0.51244953  0.26143039  0.36583543  1
  O  O205  1  0.44380261  0.20519014  0.89531168  1
  O  O206  1  0.51037187  0.74510406  0.37056975  1
  O  O207  1  0.49573127  0.75180246  0.85711082  1
  O  O208  1  0.26150184  0.15399289  0.43148825  1
  O  O209  1  0.27402383  0.23956591  1.10675210  1
  O  O210  1  0.26002556  0.61010003  0.47983374  1
  O  O211  1  0.23388102  0.63496125  1.01115656  1
  O  O212  1  0.74305420  0.13496708  0.49196949  1
  O  O213  1  0.71844686  0.10649227  0.96662081  1
  O  O214  1  0.75800568  0.63330110  0.47972927  1
  O  O215  1  0.73075552  0.63448197  0.99475437  1
  O  O216  1  0.22768915  0.35178624  -0.01768267  1
  O  O217  1  0.21640518  0.29316867  0.53801429  1
  O  O218  1  0.24813358  0.85332759  0.00827508  1
  O  O219  1  0.26372349  0.88274712  0.48950375  1
  O  O220  1  0.77320789  0.38028566  0.02288589  1
  O  O221  1  0.75035675  0.36621647  0.49035255  1
  O  O222  1  0.77134309  0.85775509  -0.01375899  1
  O  O223  1  0.73653018  0.85526897  0.50913286  1
  O  O224  1  0.14097441  0.50695686  0.23533638  1
  O  O225  1  0.11730966  0.50015676  0.74274196  1
  O  O226  1  0.14228192  0.98742473  0.22661450  1
  O  O227  1  0.13842052  1.00052843  0.73810572  1
  O  O228  1  0.62889505  0.48902705  0.24574168  1
  O  O229  1  0.61605926  0.47151017  0.75804980  1
  O  O230  1  0.69472279  0.90992340  0.22373759  1
  O  O231  1  0.61969032  0.99247982  0.72640023  1
  O  O232  1  0.35096107  -0.02462733  0.26661531  1
  O  O233  1  0.35719361  -0.01348476  0.74084153  1
  O  O234  1  0.35388212  0.51966199  0.23996136  1
  O  O235  1  0.36912532  0.48079397  0.75055606  1
  O  O236  1  0.90341855  0.03188176  0.24052989  1
  O  O237  1  0.90697324  -0.00644671  0.75440410  1
  O  O238  1  0.86429900  0.51144966  0.25277166  1
  O  O239  1  0.89628871  0.54171532  0.75543700  1
  O  O240  1  0.15393850  0.36547418  0.40796025  1
  O  O241  1  0.10417460  0.39266021  0.86132861  1
  O  O242  1  0.12907064  0.87191196  0.35305960  1
  O  O243  1  0.10300360  0.84309082  0.88679996  1
  O  O244  1  0.62113269  0.36653756  0.35715674  1
  O  O245  1  0.61393730  0.38437877  0.89584553  1
  O  O246  1  0.61130344  0.85804924  0.37832545  1
  O  O247  1  0.63716501  0.89655940  0.85065238  1
  O  O248  1  0.43163207  0.05406458  0.15507527  1
  O  O249  1  0.39220423  0.12924740  0.61244072  1
  O  O250  1  0.38631078  0.62788306  0.13559879  1
  O  O251  1  0.39326171  0.61641042  0.64258968  1
  O  O252  1  0.91668652  0.13303019  0.11916953  1
  O  O253  1  0.86993216  0.14688026  0.61665622  1
  O  O254  1  0.86889811  0.63177957  0.13368915  1
  O  O255  1  0.87996874  0.63785186  0.60864868  1
  O  O256  1  0.22021652  0.25107427  0.15565300  1
  O  O257  1  0.28039127  0.23587178  0.68312446  1
  O  O258  1  0.24028264  0.75161696  0.11276882  1
  O  O259  1  0.20756784  0.74689397  0.59911332  1
  O  O260  1  0.70394986  0.22230134  0.08849638  1
  O  O261  1  0.76550734  0.26248324  0.60592782  1
  O  O262  1  0.76031863  0.74427773  0.10359321  1
  O  O263  1  0.75355904  0.73520645  0.60871934  1
  O  O264  1  0.22175759  0.33948624  0.42059092  1
  O  O265  1  0.30276913  0.19240831  0.95877654  1
  O  O266  1  0.25361649  0.74514319  0.37919582  1
  O  O267  1  0.23374447  0.74721104  0.89923812  1
  O  O268  1  0.74739904  0.24264498  0.37407159  1
  O  O269  1  0.75406740  0.25693977  0.91011044  1
  O  O270  1  0.73694658  0.74746449  0.38058758  1
  O  O271  1  0.75156551  0.73643163  0.89150016  1
  O  O272  1  0.00178760  0.10255576  -0.00520814  1
  O  O273  1  0.00734253  0.12579254  0.51142699  1
  O  O274  1  0.00248420  0.60642764  0.00107117  1
  O  O275  1  0.01596653  0.74958831  0.42097405  1
  O  O276  1  0.53972090  0.08575464  0.03770413  1
  O  O277  1  0.50236122  0.11881773  0.49692476  1
  O  O278  1  0.51096152  0.63904428  0.00964426  1
  O  O279  1  0.49286526  0.61954465  0.52077993  1
  O  O280  1  0.50699191  0.38870819  0.47466523  1
  O  O281  1  0.42096471  0.34892284  1.06334403  1
  O  O282  1  0.50585129  0.89065448  0.49115266  1
  O  O283  1  0.47075254  0.86043188  0.97553533  1
  O  O284  1  0.99266726  0.35774139  0.48616180  1
  O  O285  1  0.97986065  0.37943270  0.99444238  1
  O  O286  1  1.05566202  0.91314625  0.50574197  1
  O  O287  1  0.98433628  0.88449694  1.00356015  1
  O  O288  1  0.48537359  0.47529397  0.33293804  1
  O  O289  1  0.47527248  0.50998713  0.86483328  1
  O  O290  1  0.51132746  0.98519807  0.36221984  1
  O  O291  1  0.57124003  1.06121636  0.87640432  1
  O  O292  1  0.99201275  0.55436623  0.40104376  1
  O  O293  1  0.98916707  0.48851627  0.89751290  1
  O  O294  1  1.01626234  1.02584684  0.39471594  1
  O  O295  1  0.99935424  0.99525324  0.87998120  1
  O  O296  1  0.01816174  0.00406894  0.10287712  1
  O  O297  1  0.02749506  0.01362180  0.64028904  1
  O  O298  1  0.01508533  0.49218229  0.11399269  1
  O  O299  1  -0.02426509  0.49713788  0.62322827  1
  O  O300  1  0.52122032  -0.06856822  0.11446996  1
  O  O301  1  0.49893094  0.00330528  0.61417822  1
  O  O302  1  0.50878421  0.51551500  0.13760163  1
  O  O303  1  0.50132989  0.47445821  0.61179217  1
  O  O304  1  0.26025120  0.38374258  0.25871825  1
  O  O305  1  0.22427382  0.38803523  0.75278873  1
  O  O306  1  0.23827499  0.87293407  0.23760929  1
  O  O307  1  0.24487021  0.91715096  0.82540946  1
  O  O308  1  0.74413303  0.38285605  0.25138102  1
  O  O309  1  0.79360512  0.39502510  0.71201156  1
  O  O310  1  0.75973136  0.90677043  0.26067847  1
  O  O311  1  0.73993644  0.87236956  0.73333708  1
  O  O312  1  0.25671709  0.09560539  0.24484629  1
  O  O313  1  0.25193028  0.09412261  0.79198638  1
  O  O314  1  0.25873260  0.64153248  0.25552672  1
  O  O315  1  0.26260945  0.60778089  0.73378772  1
  O  O316  1  0.74935401  0.11238534  0.27017839  1
  O  O317  1  0.73493292  0.13882910  0.72661387  1
  O  O318  1  0.75390594  0.62019854  0.25378656  1
  O  O319  1  0.74424927  0.62645792  0.77239053  1
  O  O320  1  0.33036065  0.19629593  0.38350623  1
  O  O321  1  0.38446824  0.03587001  0.91421231  1
  O  O322  1  0.36720961  0.62819137  0.35974604  1
  O  O323  1  0.37315825  0.62209553  0.84491315  1
  O  O324  1  0.85966433  0.11734051  0.38829508  1
  O  O325  1  0.87900124  0.11035511  0.87112834  1
  O  O326  1  0.86346283  0.61636694  0.35673005  1
  O  O327  1  0.85919654  0.61817138  0.89089745  1
  O  O328  1  0.12687692  0.38903899  0.12437666  1
  O  O329  1  0.09848168  0.39455958  0.64948029  1
  O  O330  1  0.13034767  0.87574070  0.12615786  1
  O  O331  1  0.08586334  0.85048578  0.69202199  1
  O  O332  1  0.61530136  0.38256219  0.13412964  1
  O  O333  1  0.65018478  0.36090842  0.61881682  1
  O  O334  1  0.66550423  0.90667501  0.06838236  1
  O  O335  1  0.64086697  0.86808988  0.62996782  1
  O  O336  1  0.14371911  0.23179305  0.30391313  1
  O  O337  1  0.10448941  0.27218162  0.75244557  1
  O  O338  1  0.11045743  0.76254709  0.23848048  1
  O  O339  1  0.15389906  0.74307606  0.77372567  1
  O  O340  1  0.63302193  0.25233924  0.25463147  1
  O  O341  1  0.67333180  0.30108862  0.76707568  1
  O  O342  1  0.61412690  0.74909608  0.25443452  1
  O  O343  1  0.62408068  0.75097437  0.75717343  1
  O  O344  1  0.38028225  0.25366798  0.23426858  1
  O  O345  1  0.33858796  0.28203091  0.70891735  1
  O  O346  1  0.38553182  0.74331808  0.25292399  1
  O  O347  1  0.34388967  0.74904498  0.74627861  1
  O  O348  1  0.86274967  0.20944164  0.24129643  1
  O  O349  1  0.87264924  0.24974314  0.74192860  1
  O  O350  1  0.86376975  0.74109575  0.23674095  1
  O  O351  1  0.87032478  0.74198727  0.73411504  1
  O  O352  1  0.39965066  0.50413305  0.48853266  1
  O  O353  1  0.36533580  0.52227376  0.98144960  1
  O  O354  1  0.39360670  0.99761932  0.49227570  1
  O  O355  1  0.34097718  1.01980296  0.96994551  1
  O  O356  1  0.87955446  0.48085311  0.46805221  1
  O  O357  1  0.88252766  0.49404424  1.02634814  1
  O  O358  1  0.91512811  0.99543190  0.53015656  1
  O  O359  1  0.87814873  0.98357023  0.97668327  1
  O  O360  1  0.11837300  -0.02065160  -0.00586884  1
  O  O361  1  0.13235238  0.03168351  0.52676932  1
  O  O362  1  0.12566316  0.50535629  0.00820962  1
  O  O363  1  0.10720114  0.48756529  0.52635665  1
  O  O364  1  0.67164433  -0.02724943  0.02985893  1
  O  O365  1  0.60992651  0.01457328  0.49450447  1
  O  O366  1  0.62646870  0.51523540  0.01400623  1
  O  O367  1  0.58911813  0.51256882  0.45591753  1
  O  O368  1  0.38196468  0.38823343  0.11153729  1
  O  O369  1  0.36059249  0.33563601  0.65447887  1
  O  O370  1  0.35557056  0.86046181  0.12886088  1
  O  O371  1  0.37759501  0.88171511  0.60319157  1
  O  O372  1  0.89176250  0.36009602  0.13920480  1
  O  O373  1  0.87009093  0.36468492  0.58944250  1
  O  O374  1  0.86787791  0.86602749  0.12188542  1
  O  O375  1  0.85125592  0.85776476  0.62477375  1
  O  O376  1  0.09375641  0.20665632  0.36222246  1
  O  O377  1  0.15708529  0.19093719  0.88446720  1
  O  O378  1  0.14468679  0.62335628  0.37207705  1
  O  O379  1  0.12248064  0.61984503  0.89496105  1
  O  O380  1  0.63316276  0.13234993  0.38016381  1
  O  O381  1  0.70049483  0.12920519  0.79190634  1
  O  O382  1  0.63365479  0.63992490  0.36264906  1
  O  O383  1  0.61627573  0.61946641  0.89004896  1
