# generated using pymatgen
data_VZnO4
_symmetry_space_group_name_H-M   'P 1'
_cell_length_a   16.87200326
_cell_length_b   16.99689577
_cell_length_c   16.90943530
_cell_angle_alpha   90.10639188
_cell_angle_beta   89.71711889
_cell_angle_gamma   90.40627882
_symmetry_Int_Tables_number   1
_chemical_formula_structural   VZnO4
_chemical_formula_sum   'V64 Zn64 O256'
_cell_volume   4848.95812316
_cell_formula_units_Z   64
loop_
 _symmetry_equiv_pos_site_id
 _symmetry_equiv_pos_as_xyz
  1  'x, y, z'
loop_
 _atom_site_type_symbol
 _atom_site_label
 _atom_site_symmetry_multiplicity
 _atom_site_fract_x
 _atom_site_fract_y
 _atom_site_fract_z
 _atom_site_occupancy
  V  V0  1  0.11365987  0.71805444  0.84678125  1
  V  V1  1  0.28565329  0.37997584  0.13676273  1
  V  V2  1  0.62461583  0.24593075  0.39110482  1
  V  V3  1  0.49419067  0.88502720  0.88118047  1
  V  V4  1  0.11018927  0.49479740  0.61973908  1
  V  V5  1  0.12522808  0.15848928  0.01050877  1
  V  V6  1  0.11628170  -0.00251355  0.10695958  1
  V  V7  1  0.10937471  0.25266157  0.37376594  1
  V  V8  1  0.88364284  0.36279462  0.02133044  1
  V  V9  1  0.37574704  0.12981784  0.24284964  1
  V  V10  1  0.35955541  0.75426441  0.13148247  1
  V  V11  1  0.00944316  0.12479440  0.62886412  1
  V  V12  1  0.61703233  0.22909434  0.87752026  1
  V  V13  1  0.40146081  0.49928311  0.87679055  1
  V  V14  1  0.74280966  0.50175357  0.76580867  1
  V  V15  1  0.48482912  -0.00380568  0.48911272  1
  V  V16  1  0.38115012  0.64669782  0.27103116  1
  V  V17  1  0.38089364  0.62888483  0.73774205  1
  V  V18  1  -0.00211099  0.91413994  0.86662330  1
  V  V19  1  0.88152948  0.62189436  0.75608502  1
  V  V20  1  0.84012079  0.48710595  0.37728266  1
  V  V21  1  0.12083104  0.11886776  0.50299637  1
  V  V22  1  0.24077481  0.76090464  0.53125528  1
  V  V23  1  0.25551041  0.14698004  0.87390892  1
  V  V24  1  0.85628462  0.72575778  0.62431743  1
  V  V25  1  0.77577015  -0.01374569  0.22865503  1
  V  V26  1  0.61811691  0.50856119  0.62242326  1
  V  V27  1  0.62897379  0.00522498  0.60152833  1
  V  V28  1  0.10665863  0.62436018  0.50494258  1
  V  V29  1  0.81275225  0.61001932  0.25105573  1
  V  V30  1  0.25709189  0.50055545  0.75354674  1
  V  V31  1  0.25064911  0.12001977  0.36902771  1
  V  V32  1  0.00385617  0.39632067  0.39151575  1
  V  V33  1  0.49028947  0.75513169  0.73400631  1
  V  V34  1  0.62695757  0.75376978  0.87758881  1
  V  V35  1  0.23091039  -0.01308386  0.23853891  1
  V  V36  1  0.23548906  0.64971301  0.37170656  1
  V  V37  1  0.74610136  0.22370421  0.51709649  1
  V  V38  1  0.88922579  0.48570950  0.87969890  1
  V  V39  1  0.75195475  0.23765798  -0.00477253  1
  V  V40  1  0.24154389  0.72481490  -0.02642809  1
  V  V41  1  0.75235353  0.37392401  0.62945117  1
  V  V42  1  0.42839267  -0.03597233  0.30071443  1
  V  V43  1  -0.00410134  0.25806551  0.76776185  1
  V  V44  1  0.27717405  0.47544880  0.28554159  1
  V  V45  1  0.76590790  0.00131189  0.74825644  1
  V  V46  1  -0.00457954  0.15034424  0.14343443  1
  V  V47  1  0.04114842  0.59306293  0.12298199  1
  V  V48  1  0.74679662  0.86119654  0.60429522  1
  V  V49  1  0.26394494  0.25191717  0.49219289  1
  V  V50  1  0.62147225  0.88239020  0.74182376  1
  V  V51  1  0.34108446  0.88161511  -0.01345603  1
  V  V52  1  0.90798647  -0.00537898  0.42395399  1
  V  V53  1  0.49784510  0.12641307  0.62477503  1
  V  V54  1  0.36654749  0.01532116  0.86312580  1
  V  V55  1  0.50312807  0.08449455  0.13138011  1
  V  V56  1  0.11892619  0.37786368  0.24012145  1
  V  V57  1  0.88731894  0.25555473  0.61755125  1
  V  V58  1  0.27958615  0.26178784  0.01636831  1
  V  V59  1  0.26275998  0.38075342  0.61372883  1
  V  V60  1  0.61059310  0.36341131  0.75977446  1
  V  V61  1  0.38176059  0.24830345  0.63869031  1
  V  V62  1  0.12758024  0.37411257  0.75991188  1
  V  V63  1  0.51568847  0.28009860  0.26661132  1
  Zn  Zn64  1  0.18742324  0.19936002  0.18893374  1
  Zn  Zn65  1  0.19160899  0.19930800  0.68601319  1
  Zn  Zn66  1  0.24203285  0.60048313  0.15197233  1
  Zn  Zn67  1  0.18637107  0.67077266  0.69032065  1
  Zn  Zn68  1  0.79910789  0.20303319  0.17983997  1
  Zn  Zn69  1  0.68641388  0.18159085  0.69420699  1
  Zn  Zn70  1  0.73406085  0.77921920  0.20485643  1
  Zn  Zn71  1  0.68204648  0.68633518  0.69959087  1
  Zn  Zn72  1  0.31669952  0.29824988  0.30683466  1
  Zn  Zn73  1  0.32086564  0.32065794  0.81556002  1
  Zn  Zn74  1  0.29061541  0.82190846  0.31653854  1
  Zn  Zn75  1  0.30328823  0.81482970  0.80603462  1
  Zn  Zn76  1  0.83497620  0.29136369  0.35566453  1
  Zn  Zn77  1  0.80852768  0.30593106  0.80932089  1
  Zn  Zn78  1  0.87386242  0.81425848  0.29628327  1
  Zn  Zn79  1  0.82197353  0.82340539  0.79624770  1
  Zn  Zn80  1  0.18758047  0.43920241  0.44094582  1
  Zn  Zn81  1  0.25071677  0.48245489  0.97708374  1
  Zn  Zn82  1  0.12882153  0.92542036  0.57200849  1
  Zn  Zn83  1  0.17454941  0.96343480  0.92237563  1
  Zn  Zn84  1  0.66608971  0.42387238  0.45164645  1
  Zn  Zn85  1  0.70579142  0.40031272  0.92709433  1
  Zn  Zn86  1  0.68594171  0.94486284  0.40694493  1
  Zn  Zn87  1  0.71802740  0.90107244  0.91771560  1
  Zn  Zn88  1  0.30866917  0.06324060  0.06094798  1
  Zn  Zn89  1  0.30917173  0.06411824  0.56118300  1
  Zn  Zn90  1  0.40694018  0.58139555  0.05519656  1
  Zn  Zn91  1  0.31094143  0.57785547  0.55440220  1
  Zn  Zn92  1  0.82538491  0.06618295  0.05429731  1
  Zn  Zn93  1  0.83442771  0.05416504  0.58904097  1
  Zn  Zn94  1  0.89491509  0.55188972  0.06981357  1
  Zn  Zn95  1  0.77997281  0.55552412  0.55319165  1
  Zn  Zn96  1  0.45273549  0.46771967  0.31929327  1
  Zn  Zn97  1  0.43984347  0.43727327  0.67967878  1
  Zn  Zn98  1  0.47984262  0.88096165  0.11943040  1
  Zn  Zn99  1  0.45120867  0.96392602  0.69976209  1
  Zn  Zn100  1  0.93251949  0.43378433  0.20334436  1
  Zn  Zn101  1  0.93480000  0.43491647  0.69928032  1
  Zn  Zn102  1  0.94363756  0.95111411  0.17003651  1
  Zn  Zn103  1  0.94403797  0.91684244  0.67169967  1
  Zn  Zn104  1  0.05936588  0.05177910  0.31467022  1
  Zn  Zn105  1  0.06497379  0.09799885  0.82676963  1
  Zn  Zn106  1  0.07590703  0.56278602  0.30563573  1
  Zn  Zn107  1  0.09809085  0.51337646  0.89929900  1
  Zn  Zn108  1  0.65192341  0.09483817  0.27274312  1
  Zn  Zn109  1  0.56278761  0.06042801  0.80943814  1
  Zn  Zn110  1  0.60470863  0.64347020  0.28290322  1
  Zn  Zn111  1  0.56666459  0.57158771  0.80829369  1
  Zn  Zn112  1  0.43888667  0.17284865  0.43136653  1
  Zn  Zn113  1  0.44994779  0.18254542  0.95675018  1
  Zn  Zn114  1  0.37894964  0.87280847  0.47239963  1
  Zn  Zn115  1  0.43242690  0.69351576  0.91923665  1
  Zn  Zn116  1  0.88296020  0.12305215  0.29052576  1
  Zn  Zn117  1  0.92942348  0.17315132  0.94690067  1
  Zn  Zn118  1  0.91261689  0.64799840  0.43808043  1
  Zn  Zn119  1  0.95910772  0.66141878  0.93347557  1
  Zn  Zn120  1  0.09434551  0.37119530  0.02306456  1
  Zn  Zn121  1  0.07323892  0.31270022  0.55827537  1
  Zn  Zn122  1  0.07415901  0.83408269  -0.00524574  1
  Zn  Zn123  1  0.05952384  0.76844838  0.63648632  1
  Zn  Zn124  1  0.60966483  0.20862313  0.09406080  1
  Zn  Zn125  1  0.57046583  0.31157582  0.56094347  1
  Zn  Zn126  1  0.55679440  0.70219329  0.06747255  1
  Zn  Zn127  1  0.55812368  0.81626188  0.55279512  1
  O  O128  1  0.12121357  0.13518644  0.12048232  1
  O  O129  1  0.12530884  0.14292344  0.61209021  1
  O  O130  1  0.14040924  0.59883535  0.10408289  1
  O  O131  1  0.12468862  0.60121380  0.62042411  1
  O  O132  1  0.59979113  0.10474785  0.16771006  1
  O  O133  1  0.62037928  0.10701460  0.62243263  1
  O  O134  1  0.54022646  0.54751362  0.17613242  1
  O  O135  1  0.62029247  0.60560136  0.64645728  1
  O  O136  1  0.34388447  0.40859236  0.33239192  1
  O  O137  1  0.38349062  0.40044209  0.86353234  1
  O  O138  1  0.37185005  0.89361235  0.35696227  1
  O  O139  1  0.37155972  0.89366800  0.86882630  1
  O  O140  1  0.89353152  0.38703788  0.37846396  1
  O  O141  1  0.87546066  0.38704492  0.86283204  1
  O  O142  1  0.86151578  0.88773621  0.39643373  1
  O  O143  1  0.93038069  0.87347422  0.79438819  1
  O  O144  1  0.22341335  0.02167022  0.34710636  1
  O  O145  1  0.25815974  0.02838288  0.87374628  1
  O  O146  1  0.24807690  0.51661985  0.37701343  1
  O  O147  1  0.25379824  0.49415560  0.85259017  1
  O  O148  1  0.80744862  -0.04876922  0.38468272  1
  O  O149  1  0.76710099  -0.02225098  0.84766627  1
  O  O150  1  0.74357592  0.45885702  0.37471704  1
  O  O151  1  0.75277539  0.49039858  0.86803905  1
  O  O152  1  0.27193130  0.48508039  0.16220405  1
  O  O153  1  0.26381607  0.48898375  0.62455668  1
  O  O154  1  0.23393909  1.00744290  0.13189761  1
  O  O155  1  0.24568711  0.97869081  0.62120460  1
  O  O156  1  0.58090903  0.61702981  0.15916527  1
  O  O157  1  0.74752601  0.48331457  0.64485574  1
  O  O158  1  0.76529947  1.00005547  0.12759160  1
  O  O159  1  0.73432056  0.98623916  0.61717654  1
  O  O160  1  0.01644292  0.38458471  0.26695878  1
  O  O161  1  0.01498125  0.36789884  0.75175429  1
  O  O162  1  -0.03090705  0.86196758  0.24025483  1
  O  O163  1  0.12107890  0.96365659  0.72926446  1
  O  O164  1  0.49402294  0.37539639  0.26883535  1
  O  O165  1  0.51300216  0.37267549  0.74279253  1
  O  O166  1  0.48021972  0.90819245  0.23849263  1
  O  O167  1  0.49813548  0.87403151  0.75108884  1
  O  O168  1  0.47119365  0.08169216  0.24979779  1
  O  O169  1  0.50172200  0.11303101  0.72497006  1
  O  O170  1  0.47713477  0.66425533  0.27953959  1
  O  O171  1  0.49434115  0.64608625  0.74552703  1
  O  O172  1  0.99883652  0.12290852  0.24620934  1
  O  O173  1  1.02409219  0.15616117  0.73623237  1
  O  O174  1  1.02880766  0.62334375  0.22009464  1
  O  O175  1  0.97511149  0.62140519  0.73605800  1
  O  O176  1  0.37789449  0.25198860  0.01561074  1
  O  O177  1  0.36592688  0.24553440  0.49012233  1
  O  O178  1  0.34631438  0.76890068  -0.04424155  1
  O  O179  1  0.33855043  0.77463555  0.50023934  1
  O  O180  1  0.86446167  0.25502568  -0.00423113  1
  O  O181  1  0.86496239  0.25857395  0.52004957  1
  O  O182  1  0.80132255  0.72185288  0.06674536  1
  O  O183  1  0.83125858  0.70499503  0.51103049  1
  O  O184  1  0.13928549  0.24669886  0.48720464  1
  O  O185  1  0.14485010  0.25959926  1.00847853  1
  O  O186  1  0.11921244  0.72379434  0.53618711  1
  O  O187  1  0.13667091  0.74163797  0.98027035  1
  O  O188  1  0.64307832  0.22285861  0.52255140  1
  O  O189  1  0.63624028  0.24881599  0.98483627  1
  O  O190  1  0.60489727  0.72191353  0.50469162  1
  O  O191  1  0.60814294  0.76116647  0.97528959  1
  O  O192  1  0.53654827  0.25470832  0.17170651  1
  O  O193  1  0.48828146  0.24325015  0.61048474  1
  O  O194  1  0.46719130  0.76451988  0.11852422  1
  O  O195  1  0.49067769  0.76625477  0.63582418  1
  O  O196  1  1.00633463  0.24547995  0.14448493  1
  O  O197  1  0.99401452  0.26089240  0.62651007  1
  O  O198  1  1.02836185  0.79939455  0.20714109  1
  O  O199  1  0.95338381  0.73354129  0.60616221  1
  O  O200  1  0.01175493  0.26225202  0.38006663  1
  O  O201  1  -0.00837208  0.23601981  0.86477376  1
  O  O202  1  -0.05699557  0.74430115  0.37232072  1
  O  O203  1  0.01880398  0.74307744  0.88151391  1
  O  O204  1  0.50982357  0.23576887  0.36835308  1
  O  O205  1  0.51623960  0.23896307  0.88331309  1
  O  O206  1  0.56186573  0.69212767  0.44320444  1
  O  O207  1  0.50217000  0.77093336  0.85794898  1
  O  O208  1  0.24446358  0.13183380  0.48965629  1
  O  O209  1  0.25153508  0.15090578  1.00684603  1
  O  O210  1  0.23998344  0.64365050  0.49161542  1
  O  O211  1  0.25212175  0.62879368  0.97067399  1
  O  O212  1  0.76835271  0.12826005  0.52253528  1
  O  O213  1  0.75684611  0.13747905  0.98986979  1
  O  O214  1  0.76227938  0.66183804  0.50160847  1
  O  O215  1  0.73004255  0.70428885  1.05331731  1
  O  O216  1  0.26983830  0.37241128  0.02635618  1
  O  O217  1  0.25080376  0.36625132  0.50514057  1
  O  O218  1  0.24122389  0.88026625  -0.02245810  1
  O  O219  1  0.20240483  0.85387345  0.52049246  1
  O  O220  1  0.76958123  0.35990166  0.00581259  1
  O  O221  1  0.74554993  0.36563346  0.52980372  1
  O  O222  1  0.80289024  0.85619623  -0.00793139  1
  O  O223  1  0.73250140  0.86907324  0.50690620  1
  O  O224  1  0.15165124  0.47780843  0.26546990  1
  O  O225  1  0.14539614  0.48916238  0.73131968  1
  O  O226  1  0.12490396  1.00486694  0.22779214  1
  O  O227  1  0.14797001  1.02816602  0.75331422  1
  O  O228  1  0.55103291  0.52912258  0.25379947  1
  O  O229  1  0.63060349  0.48727488  0.74806436  1
  O  O230  1  0.68605166  0.98621039  0.29546067  1
  O  O231  1  0.62534949  0.99084049  0.73552809  1
  O  O232  1  0.34487801  0.00675483  0.24790988  1
  O  O233  1  0.37074966  0.01310274  0.76227047  1
  O  O234  1  0.37184333  0.53725089  0.26849118  1
  O  O235  1  0.37553320  0.50678216  0.74979225  1
  O  O236  1  0.87851499  0.00246560  0.24975414  1
  O  O237  1  0.85941580  -0.00574563  0.70576758  1
  O  O238  1  0.85867225  0.49465775  0.26640963  1
  O  O239  1  0.86266030  0.50465121  0.75952441  1
  O  O240  1  0.12074543  0.36665745  0.37665887  1
  O  O241  1  0.13361037  0.38826122  0.85580842  1
  O  O242  1  0.06817969  0.79916573  0.38552676  1
  O  O243  1  0.10251010  0.89102337  0.86889515  1
  O  O244  1  0.66558999  0.43208411  0.19968386  1
  O  O245  1  0.61781498  0.37037586  0.86348356  1
  O  O246  1  0.61455011  0.84834825  0.37862410  1
  O  O247  1  0.60519667  0.88454870  0.86267314  1
  O  O248  1  0.38541127  0.11643003  0.13625742  1
  O  O249  1  0.37754265  0.14031002  0.61992377  1
  O  O250  1  0.36259086  0.63841242  0.14617103  1
  O  O251  1  0.38039579  0.61977808  0.63717386  1
  O  O252  1  0.89171332  0.13645790  0.12322130  1
  O  O253  1  0.89907445  0.14583951  0.62875327  1
  O  O254  1  0.83249808  0.59142301  0.15166158  1
  O  O255  1  0.84372923  0.62084493  0.63980402  1
  O  O256  1  0.25869871  0.26611491  0.12442267  1
  O  O257  1  0.26594328  0.25750012  0.61462678  1
  O  O258  1  0.26691995  0.73790156  0.08373017  1
  O  O259  1  0.25074932  0.74395908  0.62989025  1
  O  O260  1  0.72541649  0.23816802  0.10398701  1
  O  O261  1  0.76160210  0.25166461  0.63175587  1
  O  O262  1  0.67304568  0.73415353  0.11426608  1
  O  O263  1  0.73559359  0.75706573  0.62685835  1
  O  O264  1  0.24599730  0.23913076  0.37730186  1
  O  O265  1  0.27213724  0.25260522  0.89784512  1
  O  O266  1  0.22392835  0.75013187  0.37369251  1
  O  O267  1  0.22080062  0.75261562  0.85932754  1
  O  O268  1  0.74016491  0.25968732  0.41271059  1
  O  O269  1  0.73761080  0.25668180  0.88366870  1
  O  O270  1  0.66196517  0.79305010  0.35200172  1
  O  O271  1  0.72853970  0.79027017  0.86752322  1
  O  O272  1  0.02309985  0.15257633  0.01317714  1
  O  O273  1  0.01814229  0.13107279  0.51569487  1
  O  O274  1  -0.02018916  0.63605632  0.04315073  1
  O  O275  1  0.00792857  0.62055030  0.49513739  1
  O  O276  1  0.51245075  0.13946934  0.04316127  1
  O  O277  1  0.49161349  0.10513437  0.50828692  1
  O  O278  1  0.48574721  0.64033160  0.00322464  1
  O  O279  1  0.45292687  0.54188406  0.47302195  1
  O  O280  1  0.58994571  0.34085085  0.45027035  1
  O  O281  1  0.51602535  0.38381945  1.01300583  1
  O  O282  1  0.49443619  0.88966350  0.49705121  1
  O  O283  1  0.47955497  0.87380777  0.97909820  1
  O  O284  1  1.01144857  0.38092285  0.49002658  1
  O  O285  1  0.98245839  0.36084403  0.99642485  1
  O  O286  1  1.00005437  0.79751898  0.41447406  1
  O  O287  1  0.97637638  0.88566002  0.96162548  1
  O  O288  1  0.49880605  0.49928457  0.42373864  1
  O  O289  1  0.50171157  0.50698687  0.87700768  1
  O  O290  1  0.49025227  1.00006668  0.38376760  1
  O  O291  1  0.48470480  0.99420959  0.86881482  1
  O  O292  1  1.01020600  0.49556752  0.37778489  1
  O  O293  1  0.98845244  0.49800917  0.87190608  1
  O  O294  1  1.00356792  0.98340985  0.38581070  1
  O  O295  1  0.99691063  1.01501499  0.85803977  1
  O  O296  1  0.01374548  0.02382357  0.11628056  1
  O  O297  1  0.00744434  0.03019131  0.64615695  1
  O  O298  1  -0.00273177  0.49882761  0.12413639  1
  O  O299  1  0.01238447  0.48416298  0.62974964  1
  O  O300  1  0.49749392  -0.00934696  0.10214958  1
  O  O301  1  0.50935613  0.00259652  0.61006868  1
  O  O302  1  0.50404329  0.43635035  0.06133433  1
  O  O303  1  0.52018885  0.48470464  0.61283762  1
  O  O304  1  0.24163518  0.36654356  0.24307345  1
  O  O305  1  0.24948460  0.38074989  0.73685541  1
  O  O306  1  0.23404680  0.88901518  0.24451133  1
  O  O307  1  0.25007348  0.88378286  0.71752155  1
  O  O308  1  0.72777892  0.40022586  0.18145137  1
  O  O309  1  0.73814607  0.37894182  0.74880056  1
  O  O310  1  0.78525827  0.87722363  0.23386447  1
  O  O311  1  0.73697326  0.88418112  0.72968042  1
  O  O312  1  0.26333376  0.13629823  0.25071804  1
  O  O313  1  0.24916005  0.15460948  0.77514710  1
  O  O314  1  0.24035971  0.62527363  0.26839598  1
  O  O315  1  0.26484023  0.60698381  0.74208670  1
  O  O316  1  0.76642383  0.10425434  0.24348179  1
  O  O317  1  0.74699713  0.10004049  0.74117168  1
  O  O318  1  0.71401073  0.59788785  0.26381964  1
  O  O319  1  0.74322864  0.60296697  0.75735836  1
  O  O320  1  0.36152828  0.11786373  0.36186029  1
  O  O321  1  0.37145553  0.12021460  0.89103124  1
  O  O322  1  0.34876917  0.65589829  0.37014839  1
  O  O323  1  0.38278786  0.60995779  0.85102944  1
  O  O324  1  0.88134757  0.08863545  0.40014443  1
  O  O325  1  0.88045933  0.07228974  0.95503451  1
  O  O326  1  0.85227108  0.59953934  0.35541608  1
  O  O327  1  0.87914828  0.60984200  0.86737862  1
  O  O328  1  0.11994115  0.37376118  0.14097396  1
  O  O329  1  0.14147841  0.38386220  0.62422410  1
  O  O330  1  0.10701613  0.90001787  0.08741286  1
  O  O331  1  0.04367074  0.87824846  0.62838779  1
  O  O332  1  0.65010803  0.48821515  0.03999020  1
  O  O333  1  0.63507062  0.37342366  0.64018059  1
  O  O334  1  0.63469646  0.89498203  0.07774236  1
  O  O335  1  0.62465839  0.88394258  0.62418915  1
  O  O336  1  0.12925297  0.26404456  0.26711462  1
  O  O337  1  0.12285625  0.27008901  0.74780684  1
  O  O338  1  0.09452864  0.80397946  0.23808071  1
  O  O339  1  0.10714034  0.73581491  0.74229045  1
  O  O340  1  0.62658645  0.28753588  0.29667260  1
  O  O341  1  0.62833975  0.25550988  0.76159600  1
  O  O342  1  0.63522096  0.76320012  0.27590120  1
  O  O343  1  0.60813230  0.76700639  0.74911218  1
  O  O344  1  0.40098205  0.23246959  0.25730154  1
  O  O345  1  0.37816904  0.25326324  0.73691027  1
  O  O346  1  0.34695607  0.75561558  0.23551494  1
  O  O347  1  0.37999188  0.74105020  0.75403035  1
  O  O348  1  0.86280922  0.23449233  0.26680677  1
  O  O349  1  0.89285177  0.25675851  0.74440094  1
  O  O350  1  0.82244518  0.71678891  0.25264816  1
  O  O351  1  0.85293628  0.72726626  0.73932754  1
  O  O352  1  0.38043274  0.50985306  0.48492992  1
  O  O353  1  0.36437626  0.50876281  0.97951593  1
  O  O354  1  0.38023390  0.98902402  0.50575936  1
  O  O355  1  0.35992082  0.98665230  0.98681516  1
  O  O356  1  0.85680664  0.51531716  0.47658089  1
  O  O357  1  0.87214637  0.47887204  0.98711979  1
  O  O358  1  0.90371009  0.98867460  0.52600406  1
  O  O359  1  0.84406190  0.90626726  1.03804655  1
  O  O360  1  0.13873067  0.03410777  0.00885562  1
  O  O361  1  0.13279955  0.02080301  0.50802842  1
  O  O362  1  0.14000388  0.47226531  -0.00754199  1
  O  O363  1  0.12986943  0.50797812  0.51334341  1
  O  O364  1  0.64896817  -0.05834499  0.02161227  1
  O  O365  1  0.61902424  -0.00495159  0.49877738  1
  O  O366  1  0.69549975  0.54020807  0.06376492  1
  O  O367  1  0.65945323  0.51155778  0.52620072  1
  O  O368  1  0.37990033  0.37141868  0.14926035  1
  O  O369  1  0.37324888  0.36058680  0.62179283  1
  O  O370  1  0.35784903  0.86091346  0.09186123  1
  O  O371  1  0.29299301  0.92620506  0.66575576  1
  O  O372  1  0.88192472  0.37023203  0.12095327  1
  O  O373  1  0.86225994  0.36530936  0.64010409  1
  O  O374  1  0.88785109  0.87093386  0.09273703  1
  O  O375  1  0.85127326  0.84846090  0.62129347  1
  O  O376  1  0.12380325  0.13798828  0.38415232  1
  O  O377  1  0.14616941  0.14002928  0.89677016  1
  O  O378  1  0.12849163  0.62243696  0.39366907  1
  O  O379  1  0.11675263  0.61915026  0.85647185  1
  O  O380  1  0.63254655  0.14644565  0.37486645  1
  O  O381  1  0.62782945  0.12966250  0.86897123  1
  O  O382  1  0.60091026  0.63492398  0.40630723  1
  O  O383  1  0.62635416  0.65531999  0.85857639  1
