# generated using pymatgen
data_VZnO4
_symmetry_space_group_name_H-M   'P 1'
_cell_length_a   16.91892179
_cell_length_b   16.88385539
_cell_length_c   16.88716586
_cell_angle_alpha   89.96653085
_cell_angle_beta   90.46107765
_cell_angle_gamma   89.85972703
_symmetry_Int_Tables_number   1
_chemical_formula_structural   VZnO4
_chemical_formula_sum   'V64 Zn64 O256'
_cell_volume   4823.75933722
_cell_formula_units_Z   64
loop_
 _symmetry_equiv_pos_site_id
 _symmetry_equiv_pos_as_xyz
  1  'x, y, z'
loop_
 _atom_site_type_symbol
 _atom_site_label
 _atom_site_symmetry_multiplicity
 _atom_site_fract_x
 _atom_site_fract_y
 _atom_site_fract_z
 _atom_site_occupancy
  V  V0  1  0.24783246  0.50517296  0.75485783  1
  V  V1  1  0.89250718  0.61460756  0.24860744  1
  V  V2  1  0.73588873  0.37840243  0.61699495  1
  V  V3  1  0.24199342  0.00833037  0.24954984  1
  V  V4  1  0.48666397  0.38018583  0.89122962  1
  V  V5  1  0.74490703  0.39724026  0.10334059  1
  V  V6  1  0.13780371  0.63438155  -0.01208406  1
  V  V7  1  0.23677354  0.12223470  0.89183624  1
  V  V8  1  0.50656639  0.52941642  0.00387427  1
  V  V9  1  0.61827981  0.36047180  0.75929829  1
  V  V10  1  0.88321835  0.62872660  0.73765746  1
  V  V11  1  0.11426652  0.49503124  0.60828521  1
  V  V12  1  0.36501373  0.25309620  0.61721869  1
  V  V13  1  0.25452789  0.86997261  0.12193083  1
  V  V14  1  0.88078272  0.87724483  0.00273086  1
  V  V15  1  0.46376574  0.87606651  0.87500263  1
  V  V16  1  0.87367155  0.49958468  0.87802280  1
  V  V17  1  0.85980787  0.23837233  0.11953358  1
  V  V18  1  0.14248114  0.50275811  0.12054706  1
  V  V19  1  0.75156125  0.13065935  0.40971787  1
  V  V20  1  0.89480751  0.74946134  0.12678746  1
  V  V21  1  0.73463102  0.50255169  0.75254571  1
  V  V22  1  0.74065544  0.75200496  -0.00664422  1
  V  V23  1  0.51284099  0.11384469  0.62583095  1
  V  V24  1  0.00008861  0.24306009  0.24847027  1
  V  V25  1  0.25438354  0.50718036  0.26495836  1
  V  V26  1  0.33561414  0.66901814  0.73691030  1
  V  V27  1  0.86875497  0.01162875  0.87482833  1
  V  V28  1  0.35632485  0.11251208  0.75386591  1
  V  V29  1  0.38221297  0.85818105  0.50351632  1
  V  V30  1  -0.00662109  0.50825110  0.00970572  1
  V  V31  1  0.49585442  0.34047232  0.37657544  1
  V  V32  1  0.86430600  0.26057344  0.62762234  1
  V  V33  1  0.01934853  0.12533298  0.12151562  1
  V  V34  1  -0.00672871  0.38653889  0.36894968  1
  V  V35  1  0.13551430  0.36564629  0.24421788  1
  V  V36  1  0.24986094  0.27074041  0.00083824  1
  V  V37  1  0.48843794  -0.00601278  0.01146784  1
  V  V38  1  0.38041884  0.74421363  0.11527072  1
  V  V39  1  -0.00026481  0.24971787  0.75394438  1
  V  V40  1  0.00955680  0.00794109  0.00945124  1
  V  V41  1  0.49054520  0.24445759  0.76110389  1
  V  V42  1  0.12820438  0.37514465  0.74751895  1
  V  V43  1  0.12216480  0.85916553  0.24710721  1
  V  V44  1  0.53189690  0.75898586  0.75949206  1
  V  V45  1  0.76087460  0.01626361  0.26532447  1
  V  V46  1  0.38060558  0.26181183  0.12959297  1
  V  V47  1  0.74047563  0.63051239  0.87867882  1
  V  V48  1  0.62234943  0.36985554  0.26367685  1
  V  V49  1  0.37367558  0.39196112  0.49783112  1
  V  V50  1  0.51410182  0.61915004  0.63883242  1
  V  V51  1  0.73423651  0.87664787  0.12373926  1
  V  V52  1  0.49877479  0.12461311  0.14189941  1
  V  V53  1  0.38182425  0.62918810  0.26255055  1
  V  V54  1  0.24753774  0.13438900  0.38667224  1
  V  V55  1  0.85158719  0.13406047  0.75889532  1
  V  V56  1  0.62501198  0.12627319  -0.01071781  1
  V  V57  1  0.74872243  0.64831066  0.35851335  1
  V  V58  1  0.00419028  0.37408890  0.88403042  1
  V  V59  1  0.50863893  0.83692849  0.37362404  1
  V  V60  1  0.00792210  0.87137518  0.86442189  1
  V  V61  1  0.11611476  0.16318108  0.50617337  1
  V  V62  1  0.38908916  0.00294553  0.37602661  1
  V  V63  1  0.01109460  0.89860906  0.38436791  1
  Zn  Zn64  1  0.20112901  0.18815010  0.17992338  1
  Zn  Zn65  1  0.18194677  0.19250274  0.68407357  1
  Zn  Zn66  1  0.18898318  0.68458895  0.18124818  1
  Zn  Zn67  1  0.16100339  0.67628595  0.65903114  1
  Zn  Zn68  1  0.67433768  0.18340400  0.18096621  1
  Zn  Zn69  1  0.68561565  0.18649510  0.57552064  1
  Zn  Zn70  1  0.72466368  0.72006779  0.20718694  1
  Zn  Zn71  1  0.68704811  0.68906003  0.69570090  1
  Zn  Zn72  1  0.31956851  0.31275127  0.30995785  1
  Zn  Zn73  1  0.30977541  0.30866274  0.82063699  1
  Zn  Zn74  1  0.32039337  0.81948354  0.30842640  1
  Zn  Zn75  1  0.29862495  0.94109621  0.81038743  1
  Zn  Zn76  1  0.81764830  0.32288104  0.28290399  1
  Zn  Zn77  1  0.80429387  0.31978437  0.81584037  1
  Zn  Zn78  1  0.82850286  0.83386503  0.30645627  1
  Zn  Zn79  1  0.83802607  0.80527919  0.82229522  1
  Zn  Zn80  1  0.18612492  0.41650704  0.43151131  1
  Zn  Zn81  1  0.18777415  0.44476597  0.93433581  1
  Zn  Zn82  1  0.19349213  0.93743249  0.42747325  1
  Zn  Zn83  1  0.18650831  0.94131755  0.94393400  1
  Zn  Zn84  1  0.70618119  0.41885224  0.41081600  1
  Zn  Zn85  1  0.67502648  0.44172509  0.93738364  1
  Zn  Zn86  1  0.62612692  0.87877728  0.27293699  1
  Zn  Zn87  1  0.69882437  0.97161471  0.96144403  1
  Zn  Zn88  1  0.31740961  0.06182551  0.06757001  1
  Zn  Zn89  1  0.32588016  0.06489949  0.55316175  1
  Zn  Zn90  1  0.32221654  0.56585904  0.05996102  1
  Zn  Zn91  1  0.31964882  0.54773287  0.59318943  1
  Zn  Zn92  1  0.81314535  0.06292531  0.07251942  1
  Zn  Zn93  1  0.84968893  0.06511183  0.56781286  1
  Zn  Zn94  1  0.81405958  0.57131113  0.06599634  1
  Zn  Zn95  1  0.78929449  0.56440691  0.56577309  1
  Zn  Zn96  1  0.44526251  0.44250576  0.19336096  1
  Zn  Zn97  1  0.43466007  0.43609394  0.68895593  1
  Zn  Zn98  1  0.43744872  0.93050676  0.19838549  1
  Zn  Zn99  1  0.43875130  0.93064867  0.68428083  1
  Zn  Zn100  1  0.93172831  0.42525397  0.18351521  1
  Zn  Zn101  1  0.93238350  0.44149031  0.69290448  1
  Zn  Zn102  1  0.93641368  0.93864806  0.19266669  1
  Zn  Zn103  1  0.93845372  0.94896867  0.68556844  1
  Zn  Zn104  1  0.06771155  0.06837124  0.31952913  1
  Zn  Zn105  1  0.05052155  0.07402322  0.83259053  1
  Zn  Zn106  1  0.06363688  0.56025086  0.30458797  1
  Zn  Zn107  1  0.06165888  0.56127896  0.81281935  1
  Zn  Zn108  1  0.57877697  0.06667329  0.32443097  1
  Zn  Zn109  1  0.54796764  0.06093348  0.82091344  1
  Zn  Zn110  1  0.58759100  0.57536683  0.26798576  1
  Zn  Zn111  1  0.55177117  0.56433570  0.82527587  1
  Zn  Zn112  1  0.43975162  0.17482435  0.44436160  1
  Zn  Zn113  1  0.42808816  0.18014696  0.94569359  1
  Zn  Zn114  1  0.42624916  0.66732110  0.44815198  1
  Zn  Zn115  1  0.42196213  0.69469874  0.92353956  1
  Zn  Zn116  1  0.95224178  0.23087694  0.44987640  1
  Zn  Zn117  1  0.88116127  0.22134291  0.92986724  1
  Zn  Zn118  1  0.93760308  0.71812311  0.39468681  1
  Zn  Zn119  1  0.94214282  0.68575540  0.93390633  1
  Zn  Zn120  1  0.06612035  0.31324867  0.06227953  1
  Zn  Zn121  1  0.04592054  0.33979498  0.56854677  1
  Zn  Zn122  1  0.07339171  0.81822387  0.05861666  1
  Zn  Zn123  1  0.06413176  0.79323591  0.53895787  1
  Zn  Zn124  1  0.57167898  0.30351465  0.06847501  1
  Zn  Zn125  1  0.55262105  0.30904272  0.56670193  1
  Zn  Zn126  1  0.55250063  0.80748247  0.05092808  1
  Zn  Zn127  1  0.53426128  0.76672585  0.54679911  1
  O  O128  1  0.11794422  0.12318050  0.12393440  1
  O  O129  1  0.13306149  0.13087682  0.60316967  1
  O  O130  1  0.12578737  0.60773372  0.11755950  1
  O  O131  1  0.09601204  0.59372423  0.61246473  1
  O  O132  1  0.60396650  0.11943534  0.11400066  1
  O  O133  1  0.61198675  0.12922381  0.63895597  1
  O  O134  1  0.61095675  0.61499632  0.14397292  1
  O  O135  1  0.61676020  0.62427560  0.63426262  1
  O  O136  1  0.38945719  0.37197492  0.38282474  1
  O  O137  1  0.38815128  0.37360250  0.87451718  1
  O  O138  1  0.39601488  0.87972116  0.38076830  1
  O  O139  1  0.36452177  0.86904419  0.87136997  1
  O  O140  1  0.89452692  0.37782169  0.34800827  1
  O  O141  1  0.88400338  0.39327748  0.86835728  1
  O  O142  1  0.92708522  0.83166036  0.37351442  1
  O  O143  1  0.88535431  0.88968531  0.88433035  1
  O  O144  1  0.25420776  0.01052930  0.36626706  1
  O  O145  1  0.24438265  0.01393990  0.87758414  1
  O  O146  1  0.24247661  0.49727148  0.36285529  1
  O  O147  1  0.23432613  0.51187245  0.85461522  1
  O  O148  1  0.78218537  0.03865198  0.37012246  1
  O  O149  1  0.77111326  -0.00406863  0.87653344  1
  O  O150  1  0.75087601  0.53455345  0.40187164  1
  O  O151  1  0.75404710  0.51369173  0.87577194  1
  O  O152  1  0.24237556  0.49582819  0.12428729  1
  O  O153  1  0.22640517  0.49767271  0.63894868  1
  O  O154  1  0.26379189  0.99190302  0.14537937  1
  O  O155  1  0.22901758  0.98312993  0.59747260  1
  O  O156  1  0.74998802  0.49663356  0.11960935  1
  O  O157  1  0.74461767  0.48825610  0.63994928  1
  O  O158  1  0.75684862  0.97627358  0.14010699  1
  O  O159  1  0.72420031  0.99475325  0.63879784  1
  O  O160  1  0.01039022  0.36228179  0.24594915  1
  O  O161  1  0.00722688  0.37370937  0.76442921  1
  O  O162  1  0.01929872  0.88329672  0.25209667  1
  O  O163  1  -0.00956226  0.88740839  0.76445854  1
  O  O164  1  0.49994542  0.36995513  0.27064895  1
  O  O165  1  0.50299270  0.36796568  0.75752204  1
  O  O166  1  0.50999929  0.87351791  0.26872211  1
  O  O167  1  0.49036946  0.86438368  0.76370441  1
  O  O168  1  0.51340208  0.11286419  0.24049705  1
  O  O169  1  0.48559892  0.13401360  0.75231661  1
  O  O170  1  0.48016175  0.61062964  0.25530698  1
  O  O171  1  0.51477020  0.64719691  0.75491733  1
  O  O172  1  1.01255055  0.13417864  0.23792666  1
  O  O173  1  0.99751521  0.14770545  0.76056343  1
  O  O174  1  0.99279623  0.63662047  0.25817642  1
  O  O175  1  0.98203580  0.60577409  0.74311627  1
  O  O176  1  0.36457724  0.24434176  0.01299384  1
  O  O177  1  0.37604397  0.24134366  0.51698849  1
  O  O178  1  0.36839399  0.74022469  0.01501744  1
  O  O179  1  0.37484144  0.75750353  0.50370838  1
  O  O180  1  0.88988706  0.27155180  0.02905353  1
  O  O181  1  0.87279536  0.25343674  0.52957938  1
  O  O182  1  0.87449203  0.76161040  0.00323711  1
  O  O183  1  0.88577971  0.73699434  0.52359036  1
  O  O184  1  0.12324635  0.26278718  0.51159083  1
  O  O185  1  0.14870461  0.25717071  1.00899680  1
  O  O186  1  0.11094113  0.69728312  0.40038690  1
  O  O187  1  0.12616213  0.73324237  1.00653471  1
  O  O188  1  0.63095838  0.25619770  0.50717881  1
  O  O189  1  0.62789577  0.22621671  1.00360557  1
  O  O190  1  0.66284388  0.78211109  0.54665674  1
  O  O191  1  0.64226099  0.75891417  0.99381911  1
  O  O192  1  0.49295000  0.23485176  0.12361495  1
  O  O193  1  0.48899688  0.23985824  0.64155357  1
  O  O194  1  0.48091521  0.76055163  0.12403660  1
  O  O195  1  0.50729407  0.75331196  0.65757901  1
  O  O196  1  1.00537926  0.23718598  0.12794678  1
  O  O197  1  0.97879598  0.27132229  0.64862142  1
  O  O198  1  0.99254676  0.75718295  0.11693207  1
  O  O199  1  0.93121430  0.76391427  0.57627070  1
  O  O200  1  0.00728092  0.24853880  0.34853388  1
  O  O201  1  -0.01699869  0.26941300  0.86999175  1
  O  O202  1  0.04016299  0.70625316  0.45301199  1
  O  O203  1  -0.00638310  0.77141955  0.87862831  1
  O  O204  1  0.49716658  0.24073799  0.37270925  1
  O  O205  1  0.48850214  0.25479656  0.86423281  1
  O  O206  1  0.49421696  0.73880922  0.37489461  1
  O  O207  1  0.49961775  0.76886624  0.86902838  1
  O  O208  1  0.24589164  0.12672463  0.49177265  1
  O  O209  1  0.24853324  0.12037074  0.99368185  1
  O  O210  1  0.25862967  0.62216424  0.50015459  1
  O  O211  1  0.23668391  0.61321585  0.99813210  1
  O  O212  1  0.75980939  0.11507401  0.51444767  1
  O  O213  1  0.72304518  0.08515430  1.00730490  1
  O  O214  1  0.74019034  0.59359433  0.46414247  1
  O  O215  1  0.75728578  0.64132745  0.99012110  1
  O  O216  1  0.25656152  0.37052818  -0.01264850  1
  O  O217  1  0.27598318  0.37132668  0.48615824  1
  O  O218  1  0.24791160  0.88791919  0.02360356  1
  O  O219  1  0.26398914  0.84807300  0.46319107  1
  O  O220  1  0.74950315  0.38381891  0.00393173  1
  O  O221  1  0.73734580  0.39234388  0.51803560  1
  O  O222  1  0.75810146  0.87295773  0.00548905  1
  O  O223  1  0.80229009  0.87783011  0.50801792  1
  O  O224  1  0.13561456  0.49690289  0.23673929  1
  O  O225  1  0.12277512  0.48708402  0.74305253  1
  O  O226  1  0.13906732  0.99772650  0.25346634  1
  O  O227  1  0.11432064  1.01221234  0.72930597  1
  O  O228  1  0.60696361  0.47021218  0.23707403  1
  O  O229  1  0.63208682  0.49853732  0.76352377  1
  O  O230  1  0.66013039  0.99046033  0.27691963  1
  O  O231  1  0.63355941  0.97281406  0.77638092  1
  O  O232  1  0.36303616  -0.01163849  0.27121157  1
  O  O233  1  0.35929135  0.00862176  0.73816404  1
  O  O234  1  0.35860001  0.50676365  0.24419549  1
  O  O235  1  0.34670257  0.48920837  0.74241911  1
  O  O236  1  0.84468003  -0.05131550  0.26366878  1
  O  O237  1  0.88252223  0.02298499  0.76505560  1
  O  O238  1  0.88842919  0.51578254  0.23921901  1
  O  O239  1  0.85766234  0.50622542  0.75916078  1
  O  O240  1  0.11471571  0.37424654  0.34937867  1
  O  O241  1  0.10855979  0.38055086  0.87020648  1
  O  O242  1  0.11780842  0.87878926  0.36179357  1
  O  O243  1  0.10601978  0.88788507  0.88213284  1
  O  O244  1  0.59977519  0.37625426  0.37658737  1
  O  O245  1  0.60982069  0.37667232  0.86372973  1
  O  O246  1  0.60899383  0.84918463  0.38586220  1
  O  O247  1  0.64595119  0.91972016  0.82686766  1
  O  O248  1  0.39319842  0.12538073  0.12721806  1
  O  O249  1  0.37520965  0.13175811  0.63873826  1
  O  O250  1  0.36445612  0.63964754  0.13875063  1
  O  O251  1  0.38519116  0.62585515  0.65146115  1
  O  O252  1  0.88754255  0.13547620  0.11913774  1
  O  O253  1  0.86492139  0.14708535  0.64936148  1
  O  O254  1  0.87774599  0.64131651  0.13228437  1
  O  O255  1  0.85503844  0.61898753  0.63852180  1
  O  O256  1  0.26527322  0.25109503  0.11208953  1
  O  O257  1  0.26707245  0.25416108  0.63512032  1
  O  O258  1  0.25433706  0.76415404  0.12862427  1
  O  O259  1  0.22511066  0.68167585  0.52868154  1
  O  O260  1  0.75988084  0.23157225  0.11726500  1
  O  O261  1  0.75270630  0.26674333  0.63186412  1
  O  O262  1  0.76416463  0.76006282  0.10285081  1
  O  O263  1  0.71745816  0.75531109  0.59243045  1
  O  O264  1  0.25916588  0.23191768  0.36791340  1
  O  O265  1  0.25952557  0.23465948  0.89244882  1
  O  O266  1  0.25623990  0.79031795  0.40688124  1
  O  O267  1  0.21721054  0.79071211  0.83495081  1
  O  O268  1  0.78474518  0.23179660  0.37328461  1
  O  O269  1  0.77677434  0.24734664  0.89437873  1
  O  O270  1  0.76734306  0.74736279  0.37287330  1
  O  O271  1  0.76003994  0.74387528  0.88369192  1
  O  O272  1  0.00181708  0.11406018  0.01127686  1
  O  O273  1  0.01584352  0.14580425  0.49440558  1
  O  O274  1  0.00865854  0.61119032  -0.00154686  1
  O  O275  1  -0.05139830  0.55168281  0.50054432  1
  O  O276  1  0.50415334  0.11106568  0.00204637  1
  O  O277  1  0.49542460  0.11746938  0.52584456  1
  O  O278  1  0.49869721  0.62744701  -0.01857920  1
  O  O279  1  0.49918345  0.65378250  0.53618943  1
  O  O280  1  0.48809711  0.36550822  0.48609213  1
  O  O281  1  0.50781419  0.36179613  0.98788476  1
  O  O282  1  0.49396369  0.85766493  0.48864844  1
  O  O283  1  0.49235154  0.88141049  0.98444633  1
  O  O284  1  0.99332831  0.34908886  0.46654142  1
  O  O285  1  1.00565555  0.38630257  0.98987990  1
  O  O286  1  1.03066826  0.88679716  0.48453567  1
  O  O287  1  0.99312606  0.88743123  1.00171469  1
  O  O288  1  0.53794186  0.53763534  0.42548681  1
  O  O289  1  0.49564041  0.48964743  0.89069454  1
  O  O290  1  0.48932534  1.01412091  0.37639839  1
  O  O291  1  0.48764805  0.97777967  0.86868874  1
  O  O292  1  1.00865671  0.48620166  0.37122052  1
  O  O293  1  0.99216580  0.49303187  0.88528823  1
  O  O294  1  0.99241965  0.99656589  0.37002316  1
  O  O295  1  0.99108528  0.99726124  0.89255137  1
  O  O296  1  -0.01039264  0.01341535  0.12041472  1
  O  O297  1  0.07471005  -0.00944287  0.67049479  1
  O  O298  1  -0.00355684  0.49112097  0.11019488  1
  O  O299  1  0.01388369  0.45292942  0.61526821  1
  O  O300  1  0.49101191  -0.00095549  0.11778836  1
  O  O301  1  0.50554867  0.01501659  0.65032025  1
  O  O302  1  0.48912526  0.50896472  0.10886998  1
  O  O303  1  0.49970721  0.51932200  0.64477923  1
  O  O304  1  0.23965836  0.38361414  0.25195012  1
  O  O305  1  0.23161898  0.38103044  0.76951320  1
  O  O306  1  0.23803734  0.88311756  0.24979912  1
  O  O307  1  0.21201116  0.88858787  0.74500595  1
  O  O308  1  0.72493994  0.38414423  0.30134682  1
  O  O309  1  0.73004299  0.38255807  0.75491390  1
  O  O310  1  0.72662055  0.83630116  0.23063034  1
  O  O311  1  0.77350464  0.86456869  0.72954486  1
  O  O312  1  0.24352060  0.11405550  0.25973315  1
  O  O313  1  0.25494555  0.13367555  0.75753177  1
  O  O314  1  0.24852438  0.61058493  0.25010215  1
  O  O315  1  0.23559454  0.62214774  0.73083215  1
  O  O316  1  0.75970677  0.10944157  0.22928772  1
  O  O317  1  0.75675716  0.13074604  0.76347679  1
  O  O318  1  0.77365755  0.62970075  0.25224458  1
  O  O319  1  0.75446003  0.62192884  0.76377377  1
  O  O320  1  0.36282337  0.10925953  0.38632341  1
  O  O321  1  0.36791832  0.12287395  0.85766535  1
  O  O322  1  0.36737787  0.62360288  0.36358467  1
  O  O323  1  0.36931405  0.65382077  0.83220517  1
  O  O324  1  0.85298488  0.18023218  0.38419150  1
  O  O325  1  0.88012251  0.11898026  0.87488642  1
  O  O326  1  0.87392219  0.63369965  0.35700922  1
  O  O327  1  0.87068698  0.61583347  0.86704101  1
  O  O328  1  0.11854242  0.39105062  0.13525929  1
  O  O329  1  0.13299679  0.36812402  0.64617374  1
  O  O330  1  0.13798238  0.87450625  0.13832507  1
  O  O331  1  0.12779433  0.77372949  0.62389491  1
  O  O332  1  0.64966466  0.36452845  0.13377186  1
  O  O333  1  0.62898420  0.37276083  0.64316160  1
  O  O334  1  0.63577833  0.87269755  0.10977909  1
  O  O335  1  0.73807403  0.90128657  0.48377200  1
  O  O336  1  0.12429643  0.26194264  0.23326072  1
  O  O337  1  0.10832398  0.26011023  0.75166109  1
  O  O338  1  0.12884702  0.75933573  0.24925027  1
  O  O339  1  0.18681260  0.81706204  0.77094041  1
  O  O340  1  0.62878031  0.26761052  0.24406509  1
  O  O341  1  0.60578920  0.25947978  0.75474366  1
  O  O342  1  0.61922788  0.69017003  0.14964865  1
  O  O343  1  0.63190951  0.76759933  0.76029351  1
  O  O344  1  0.36482906  0.24636359  0.22982455  1
  O  O345  1  0.38081211  0.24870600  0.74408137  1
  O  O346  1  0.36716145  0.73507024  0.24815114  1
  O  O347  1  0.32865121  0.76404781  0.71891577  1
  O  O348  1  0.89470501  0.24741530  0.23259232  1
  O  O349  1  0.87766984  0.24655268  0.75547372  1
  O  O350  1  0.87650534  0.75692371  0.22798020  1
  O  O351  1  0.87685249  0.72924286  0.75075287  1
  O  O352  1  0.37775669  0.49203041  0.51075407  1
  O  O353  1  0.39995910  0.49659367  1.01625691  1
  O  O354  1  0.36163040  0.98053815  0.48167595  1
  O  O355  1  0.38883088  1.00624663  0.99442557  1
  O  O356  1  0.89186716  0.50544385  0.50295954  1
  O  O357  1  0.88600910  0.51045810  0.99363345  1
  O  O358  1  0.90706867  0.97490456  0.58423774  1
  O  O359  1  0.88021239  0.99477853  0.99565869  1
  O  O360  1  0.10711825  -0.00421265  0.00980477  1
  O  O361  1  0.17389714  -0.03679077  0.55006870  1
  O  O362  1  0.11606532  0.50188843  0.00965282  1
  O  O363  1  0.13065974  0.47343675  0.51132950  1
  O  O364  1  0.59582578  -0.00011521  -0.00898325  1
  O  O365  1  0.67301978  -0.05024698  0.61342441  1
  O  O366  1  0.60634958  0.50490797  0.00025290  1
  O  O367  1  0.58681397  0.51695056  0.47595680  1
  O  O368  1  0.39358196  0.36071552  0.12681166  1
  O  O369  1  0.38732070  0.36326792  0.60946134  1
  O  O370  1  0.36187674  0.86158000  0.14052055  1
  O  O371  1  0.37736127  0.88330673  0.60105697  1
  O  O372  1  0.83709351  0.36113517  0.15450592  1
  O  O373  1  0.85019762  0.36962908  0.64442836  1
  O  O374  1  0.87222902  0.86774157  0.11543837  1
  O  O375  1  0.81739511  0.86900622  0.66943824  1
  O  O376  1  0.13742068  0.12329219  0.39428493  1
  O  O377  1  0.13787551  0.13009994  0.87464703  1
  O  O378  1  0.13004394  0.62430291  0.38709947  1
  O  O379  1  0.11743300  0.62387436  0.88817849  1
  O  O380  1  0.65449520  0.13126306  0.38208684  1
  O  O381  1  0.61670887  0.11952321  0.88683540  1
  O  O382  1  0.64900740  0.64602764  0.33275360  1
  O  O383  1  0.64273830  0.62746861  0.87536871  1
