# generated using pymatgen
data_VZnO4
_symmetry_space_group_name_H-M   'P 1'
_cell_length_a   16.94542837
_cell_length_b   16.94895665
_cell_length_c   16.89573112
_cell_angle_alpha   89.77744629
_cell_angle_beta   90.17054251
_cell_angle_gamma   89.86061473
_symmetry_Int_Tables_number   1
_chemical_formula_structural   VZnO4
_chemical_formula_sum   'V64 Zn64 O256'
_cell_volume   4852.50523741
_cell_formula_units_Z   64
loop_
 _symmetry_equiv_pos_site_id
 _symmetry_equiv_pos_as_xyz
  1  'x, y, z'
loop_
 _atom_site_type_symbol
 _atom_site_label
 _atom_site_symmetry_multiplicity
 _atom_site_fract_x
 _atom_site_fract_y
 _atom_site_fract_z
 _atom_site_occupancy
  V  V0  1  0.34114726  0.87043058  -0.02294398  1
  V  V1  1  0.74826382  0.24827112  0.00095442  1
  V  V2  1  0.13090550  0.12352360  0.00306941  1
  V  V3  1  0.21730348  0.49637869  0.75390725  1
  V  V4  1  -0.00047076  0.26988647  0.75718571  1
  V  V5  1  0.88053676  0.01467915  0.36875930  1
  V  V6  1  0.01986160  0.25106903  0.24752733  1
  V  V7  1  0.00963544  0.37033590  0.36812758  1
  V  V8  1  0.34240050  0.75678872  0.11510297  1
  V  V9  1  0.74999761  0.50145743  0.76504038  1
  V  V10  1  0.37308296  0.12514272  0.75748402  1
  V  V11  1  0.87406239  0.12639857  0.74996172  1
  V  V12  1  0.23057450  0.48926500  0.24208518  1
  V  V13  1  0.62244204  0.37337132  0.78284400  1
  V  V14  1  -0.00846789  0.61935962  0.14362246  1
  V  V15  1  0.73357017  0.13433271  0.39276672  1
  V  V16  1  0.87477873  0.36932637  0.49484550  1
  V  V17  1  0.00226447  0.64326626  0.65126093  1
  V  V18  1  0.13463385  0.87403588  0.23908232  1
  V  V19  1  0.37221249  0.87906951  0.46620815  1
  V  V20  1  0.23235424  0.63040576  0.87624951  1
  V  V21  1  0.73879722  0.37754958  0.61625584  1
  V  V22  1  0.25053992  0.12107280  0.86879365  1
  V  V23  1  0.87836470  0.50952698  0.36886745  1
  V  V24  1  0.38947734  0.61105164  0.23282755  1
  V  V25  1  -0.00278716  0.50501325  -0.01319814  1
  V  V26  1  0.74527842  0.36996181  0.14221654  1
  V  V27  1  0.87523626  -0.00873949  0.88119985  1
  V  V28  1  0.00293257  -0.00206662  0.00064695  1
  V  V29  1  0.42155965  0.62158030  0.72610784  1
  V  V30  1  0.63590943  0.62025502  0.01001061  1
  V  V31  1  0.58972290  0.63000018  0.48844038  1
  V  V32  1  0.62920889  0.11694904  0.00820512  1
  V  V33  1  0.50456879  0.25303904  0.77524886  1
  V  V34  1  0.00940028  -0.01350686  0.50982663  1
  V  V35  1  0.11403948  0.64103193  0.00234493  1
  V  V36  1  0.63702360  0.75592023  0.36250728  1
  V  V37  1  0.12822777  0.24283661  0.41105957  1
  V  V38  1  0.23994799  0.62309387  0.36858405  1
  V  V39  1  0.37649501  0.49986214  0.89780611  1
  V  V40  1  0.49506216  0.00292021  0.48465939  1
  V  V41  1  0.74217417  0.50102179  0.25939514  1
  V  V42  1  0.88310105  0.24739743  0.13320239  1
  V  V43  1  0.37500931  0.26626906  0.62448562  1
  V  V44  1  0.01951387  0.11864002  0.62845759  1
  V  V45  1  0.01296978  0.85534642  0.87469184  1
  V  V46  1  0.51109958  0.12934058  0.62865835  1
  V  V47  1  0.00363973  0.12275277  0.13010496  1
  V  V48  1  0.24134922  0.38706314  0.62092558  1
  V  V49  1  0.48939047  0.13421287  0.11347672  1
  V  V50  1  0.25500479  0.74508570  0.49876782  1
  V  V51  1  0.88574305  0.76446516  0.11712518  1
  V  V52  1  0.12679210  0.26295667  0.87226484  1
  V  V53  1  0.87291938  0.25265772  0.62359563  1
  V  V54  1  0.87696556  0.38201236  -0.00607519  1
  V  V55  1  0.75536985  -0.01698148  0.74176391  1
  V  V56  1  0.50241538  0.78275191  0.23222430  1
  V  V57  1  0.26328957  0.12079191  0.38122831  1
  V  V58  1  0.01974465  0.49463748  0.50645128  1
  V  V59  1  0.73207079  0.01051535  0.24752469  1
  V  V60  1  0.74796205  0.13304937  0.87332923  1
  V  V61  1  0.00352211  0.86526546  0.36970678  1
  V  V62  1  0.62960596  -0.01424347  0.62107491  1
  V  V63  1  0.50759830  -0.02005697  -0.01740717  1
  Zn  Zn64  1  0.19773992  0.06593602  0.21421755  1
  Zn  Zn65  1  0.19032359  0.20464549  0.68931519  1
  Zn  Zn66  1  0.16950128  0.68473355  0.19301715  1
  Zn  Zn67  1  0.19896065  0.65820923  0.66083454  1
  Zn  Zn68  1  0.70216085  0.18443677  0.19619691  1
  Zn  Zn69  1  0.68834860  0.19760368  0.69154645  1
  Zn  Zn70  1  0.69542972  0.69343551  0.20569278  1
  Zn  Zn71  1  0.62910502  0.65027899  0.69557019  1
  Zn  Zn72  1  0.23531930  0.27107257  0.26305410  1
  Zn  Zn73  1  0.30732623  0.31630835  0.81665921  1
  Zn  Zn74  1  0.30743671  0.80786412  0.30165335  1
  Zn  Zn75  1  0.30797591  0.79377349  0.78861100  1
  Zn  Zn76  1  0.82070285  0.29932921  0.31610524  1
  Zn  Zn77  1  0.81189268  0.31788073  0.81034374  1
  Zn  Zn78  1  0.81327680  0.83677603  0.31980526  1
  Zn  Zn79  1  0.86679903  0.80710964  0.79202053  1
  Zn  Zn80  1  0.20228342  0.43305445  0.42658257  1
  Zn  Zn81  1  0.18085966  0.44600177  0.94399693  1
  Zn  Zn82  1  0.18672419  0.94072062  0.43336219  1
  Zn  Zn83  1  0.17603841  0.94140348  0.87530136  1
  Zn  Zn84  1  0.69107724  0.45145630  0.44535457  1
  Zn  Zn85  1  0.69448910  0.43323929  0.94988808  1
  Zn  Zn86  1  0.57169868  0.93824926  0.31360466  1
  Zn  Zn87  1  0.69261034  0.94292463  0.93278041  1
  Zn  Zn88  1  0.32763119  0.05439628  0.03454478  1
  Zn  Zn89  1  0.31945292  0.06773360  0.56113369  1
  Zn  Zn90  1  0.29796447  0.56307558  0.06679130  1
  Zn  Zn91  1  0.31865088  0.56474673  0.56388101  1
  Zn  Zn92  1  0.81816048  0.06219382  0.06821994  1
  Zn  Zn93  1  0.82071768  0.05925743  0.55825239  1
  Zn  Zn94  1  0.82172585  0.55689435  0.08410442  1
  Zn  Zn95  1  0.83339932  0.54657390  0.57909517  1
  Zn  Zn96  1  0.38405703  0.40107315  0.25075151  1
  Zn  Zn97  1  0.41183324  0.42185520  0.74207495  1
  Zn  Zn98  1  0.43439745  0.94022249  0.15147628  1
  Zn  Zn99  1  0.44673360  0.94337922  0.70451607  1
  Zn  Zn100  1  0.93782822  0.43542930  0.18514136  1
  Zn  Zn101  1  0.93497791  0.45691320  0.68742809  1
  Zn  Zn102  1  0.94331625  0.93814718  0.19323571  1
  Zn  Zn103  1  1.04781544  0.93118168  0.70984512  1
  Zn  Zn104  1  0.07069774  0.05616828  0.32784354  1
  Zn  Zn105  1  0.06210570  0.07254783  0.81371398  1
  Zn  Zn106  1  0.06724781  0.55701306  0.32032143  1
  Zn  Zn107  1  0.04743864  0.57380675  0.81351365  1
  Zn  Zn108  1  0.56983495  0.13452690  0.29054919  1
  Zn  Zn109  1  0.57131337  0.05995190  0.80768401  1
  Zn  Zn110  1  0.56969936  0.56822965  0.30364413  1
  Zn  Zn111  1  0.56052049  0.54964946  0.83079479  1
  Zn  Zn112  1  0.41778980  0.18008218  0.45007648  1
  Zn  Zn113  1  0.43186033  0.18849356  0.95536226  1
  Zn  Zn114  1  0.42709257  0.69803376  0.41055204  1
  Zn  Zn115  1  0.39758308  0.71046433  0.90056034  1
  Zn  Zn116  1  0.94896544  0.18695969  0.44409979  1
  Zn  Zn117  1  0.93499616  0.18742229  0.93834860  1
  Zn  Zn118  1  0.94576358  0.67976378  0.44960873  1
  Zn  Zn119  1  0.91023459  0.68925964  0.93630672  1
  Zn  Zn120  1  0.04774255  0.30201791  0.04082879  1
  Zn  Zn121  1  0.05333150  0.32903490  0.57599107  1
  Zn  Zn122  1  0.06133063  0.81463615  0.07227755  1
  Zn  Zn123  1  0.06410789  0.79385418  0.55439561  1
  Zn  Zn124  1  0.55866829  0.30150082  0.18520767  1
  Zn  Zn125  1  0.54401032  0.32510388  0.57072936  1
  Zn  Zn126  1  0.52796291  0.77323370  0.02126292  1
  Zn  Zn127  1  0.58826681  0.84255320  0.50539399  1
  O  O128  1  0.12309908  0.11952336  0.10546991  1
  O  O129  1  0.11691345  0.13112615  0.64238629  1
  O  O130  1  0.10462957  0.62789850  0.11103195  1
  O  O131  1  0.09988811  0.61814887  0.63044840  1
  O  O132  1  0.62063562  0.12214143  0.10891451  1
  O  O133  1  0.61219659  0.13511924  0.62933797  1
  O  O134  1  0.64523253  0.63152931  0.11481158  1
  O  O135  1  0.60954904  0.64043523  0.58712926  1
  O  O136  1  0.45135412  0.29165196  0.34368055  1
  O  O137  1  0.37340663  0.40060366  0.85665576  1
  O  O138  1  0.37587464  0.88320143  0.36799913  1
  O  O139  1  0.36697715  0.83944338  0.87999574  1
  O  O140  1  0.88731793  0.36897476  0.38289024  1
  O  O141  1  0.86860701  0.37066112  0.89557497  1
  O  O142  1  0.89290290  0.89351833  0.37751929  1
  O  O143  1  0.86673289  0.89212574  0.88377781  1
  O  O144  1  0.23767888  0.02285223  0.37008702  1
  O  O145  1  0.25554254  0.02303030  0.86425951  1
  O  O146  1  0.25693801  0.51197378  0.36223857  1
  O  O147  1  0.24391330  0.50112582  0.86325366  1
  O  O148  1  0.77451391  0.01951414  0.37517929  1
  O  O149  1  0.75926792  0.00736980  0.86408425  1
  O  O150  1  0.76949924  0.48803598  0.36893485  1
  O  O151  1  0.74060001  0.49430659  0.86634348  1
  O  O152  1  0.23564093  0.50060234  0.14191765  1
  O  O153  1  0.24951230  0.50081876  0.64182361  1
  O  O154  1  0.28591777  1.02122953  0.14315942  1
  O  O155  1  0.29417277  0.97607150  0.63846776  1
  O  O156  1  0.76100263  0.47904098  0.14658666  1
  O  O157  1  0.75335303  0.47947799  0.63331090  1
  O  O158  1  0.75341988  1.01954425  0.14741366  1
  O  O159  1  0.74243660  1.00406619  0.63224398  1
  O  O160  1  -0.00334655  0.36685109  0.26066675  1
  O  O161  1  -0.01150801  0.36694089  0.75176996  1
  O  O162  1  0.00709152  0.87220174  0.26521616  1
  O  O163  1  -0.02569783  0.86196834  0.77433567  1
  O  O164  1  0.47042775  0.43400361  0.34589657  1
  O  O165  1  0.51225219  0.36219258  0.75688510  1
  O  O166  1  0.50049615  0.88762195  0.23288709  1
  O  O167  1  0.50404895  0.85715871  0.75765543  1
  O  O168  1  0.48304042  0.11504447  0.21216410  1
  O  O169  1  0.49782179  0.13928804  0.74932376  1
  O  O170  1  0.49037182  0.61061114  0.23158307  1
  O  O171  1  0.52502430  0.61957657  0.74508337  1
  O  O172  1  1.01851926  0.13334609  0.23327902  1
  O  O173  1  0.98877930  0.12958395  0.74297993  1
  O  O174  1  1.00930488  0.61778664  0.24195052  1
  O  O175  1  1.00655425  0.65967637  0.75228870  1
  O  O176  1  0.40126507  0.31255636  0.00252123  1
  O  O177  1  0.38460554  0.25920118  0.52455899  1
  O  O178  1  0.35481077  0.75633172  0.00611174  1
  O  O179  1  0.37662479  0.77379032  0.48627836  1
  O  O180  1  0.87541627  0.25888879  0.01044768  1
  O  O181  1  0.88717369  0.25792475  0.51343322  1
  O  O182  1  0.85682911  0.74478140  0.02254120  1
  O  O183  1  0.83752764  0.70105575  0.51168875  1
  O  O184  1  0.11547284  0.25201560  0.50934235  1
  O  O185  1  0.11594334  0.23354151  0.98382997  1
  O  O186  1  0.15568145  0.75791296  0.49785171  1
  O  O187  1  0.11481359  0.73933027  1.00120438  1
  O  O188  1  0.60124717  0.29766997  0.45761091  1
  O  O189  1  0.64845208  0.23567440  1.00192618  1
  O  O190  1  0.62205929  0.73993217  0.47401532  1
  O  O191  1  0.64303789  0.72402795  1.00187985  1
  O  O192  1  0.50978706  0.23333200  0.10666361  1
  O  O193  1  0.49438286  0.24242338  0.63387912  1
  O  O194  1  0.50224898  0.75855169  0.13013102  1
  O  O195  1  0.53213547  0.79642507  0.71000228  1
  O  O196  1  1.00209646  0.24447893  0.12831386  1
  O  O197  1  0.99341811  0.24596482  0.64244844  1
  O  O198  1  0.99096727  0.73555202  0.12173301  1
  O  O199  1  0.98174595  0.73069054  0.59998156  1
  O  O200  1  0.01235458  0.25368841  0.36776689  1
  O  O201  1  0.00619799  0.24457954  0.86314990  1
  O  O202  1  -0.01086617  0.76787695  0.39770093  1
  O  O203  1  -0.00965161  0.76394975  0.90261826  1
  O  O204  1  0.49312251  0.22925800  0.36749131  1
  O  O205  1  0.49486141  0.24601901  0.87270096  1
  O  O206  1  0.49070833  0.75533424  0.33243539  1
  O  O207  1  0.50485538  0.72338259  0.92416332  1
  O  O208  1  0.26158068  0.12924954  0.48787198  1
  O  O209  1  0.23745829  0.11697557  0.98674163  1
  O  O210  1  0.27195578  0.63052041  0.47898670  1
  O  O211  1  0.22067417  0.61670547  0.99301071  1
  O  O212  1  0.75379631  0.12159178  0.49290605  1
  O  O213  1  0.74892481  0.12684961  0.99408348  1
  O  O214  1  0.78726564  0.64569155  0.52571078  1
  O  O215  1  0.74207623  0.61137798  1.01076699  1
  O  O216  1  0.23950137  0.37528369  0.02018467  1
  O  O217  1  0.25708741  0.39335989  0.52151402  1
  O  O218  1  0.24617063  0.89438114  -0.03134347  1
  O  O219  1  0.26656349  0.86936791  0.48684657  1
  O  O220  1  0.76141055  0.36708787  0.01633007  1
  O  O221  1  0.75803802  0.37876899  0.50949781  1
  O  O222  1  0.73663912  0.87483670  0.03005184  1
  O  O223  1  0.77035434  0.85120042  0.51117775  1
  O  O224  1  0.13278581  0.48099711  0.26101455  1
  O  O225  1  0.11881687  0.49206809  0.75845501  1
  O  O226  1  0.11883636  0.99346111  0.24801085  1
  O  O227  1  0.11946320  0.98462556  0.77880285  1
  O  O228  1  0.64218660  0.48533699  0.27156931  1
  O  O229  1  0.62030909  0.47573277  0.76247473  1
  O  O230  1  0.62773101  1.02098685  0.25899051  1
  O  O231  1  0.64638226  0.99737183  0.74160380  1
  O  O232  1  0.34517691  0.00836714  0.19576607  1
  O  O233  1  0.38912801  0.02765475  0.76117196  1
  O  O234  1  0.36571520  0.51137905  0.22735473  1
  O  O235  1  0.38461769  0.53124716  0.76513722  1
  O  O236  1  0.88648300  0.00521230  0.26484228  1
  O  O237  1  0.86351941  0.01328772  0.76097228  1
  O  O238  1  0.87353651  0.49200655  0.26591191  1
  O  O239  1  0.85019466  0.48541864  0.75760727  1
  O  O240  1  0.11656039  0.35870213  0.38408582  1
  O  O241  1  0.12269699  0.36017328  0.88859160  1
  O  O242  1  0.10847737  0.87890606  0.37478855  1
  O  O243  1  0.11199634  0.84895259  0.86770451  1
  O  O244  1  0.61054513  0.35656694  0.41140717  1
  O  O245  1  0.62633145  0.36871722  0.88180798  1
  O  O246  1  0.61160346  0.85838897  0.38445558  1
  O  O247  1  0.65493596  0.84270379  0.87685660  1
  O  O248  1  0.39459858  0.14364170  0.05998322  1
  O  O249  1  0.38063844  0.14004177  0.64406113  1
  O  O250  1  0.35952002  0.64304978  0.12836024  1
  O  O251  1  0.39911809  0.61759461  0.62906983  1
  O  O252  1  0.89360022  0.13695397  0.11614702  1
  O  O253  1  0.87612982  0.13571813  0.63637581  1
  O  O254  1  0.88630808  0.63484216  0.13358478  1
  O  O255  1  0.92118187  0.57456169  0.64572614  1
  O  O256  1  0.23225108  0.28334500  0.11593550  1
  O  O257  1  0.26787257  0.27147411  0.63929422  1
  O  O258  1  0.24536379  0.75395034  0.12824337  1
  O  O259  1  0.26754682  0.72407812  0.60023076  1
  O  O260  1  0.76525939  0.25117059  0.12246861  1
  O  O261  1  0.76345518  0.26545707  0.63537315  1
  O  O262  1  0.78514311  0.76054262  0.17449821  1
  O  O263  1  0.75595767  0.74188360  0.65956384  1
  O  O264  1  0.22906029  0.24980753  0.38694488  1
  O  O265  1  0.23294046  0.24716050  0.86655896  1
  O  O266  1  0.26019108  0.73301776  0.37759116  1
  O  O267  1  0.23913702  0.72786847  0.86201128  1
  O  O268  1  0.76041799  0.23271487  0.38021850  1
  O  O269  1  0.76433191  0.24126183  0.88712789  1
  O  O270  1  0.73675022  0.75664918  0.35447012  1
  O  O271  1  0.70425829  0.78826878  0.86492742  1
  O  O272  1  0.00875679  0.12077628  0.00437526  1
  O  O273  1  0.00240775  0.12552845  0.52791822  1
  O  O274  1  -0.00497542  0.61737525  -0.00305750  1
  O  O275  1  -0.00220276  0.59485113  0.50490772  1
  O  O276  1  0.52796778  0.12406394  -0.01545322  1
  O  O277  1  0.48357652  0.11223593  0.52435716  1
  O  O278  1  0.53447849  0.61415647  0.02475580  1
  O  O279  1  0.48931517  0.62941348  0.47759813  1
  O  O280  1  0.48870513  0.40368203  0.50257779  1
  O  O281  1  0.48749618  0.44497912  1.09034530  1
  O  O282  1  0.48588328  0.89470089  0.50365173  1
  O  O283  1  0.52745049  0.88317902  0.99674350  1
  O  O284  1  0.99243226  0.37494161  0.48446277  1
  O  O285  1  0.98664304  0.38853219  1.00705147  1
  O  O286  1  1.00591290  0.88419539  0.50983726  1
  O  O287  1  1.01024485  0.89459289  0.98874471  1
  O  O288  1  0.48778892  0.50220201  0.37017031  1
  O  O289  1  0.47651423  0.51532250  0.89755249  1
  O  O290  1  0.50731881  1.01059942  0.38736110  1
  O  O291  1  0.51422635  0.99699628  0.88131801  1
  O  O292  1  0.99272122  0.48754285  0.38052449  1
  O  O293  1  0.98817533  0.50600790  0.88695019  1
  O  O294  1  0.99907725  0.99006178  0.39171670  1
  O  O295  1  0.98395146  0.99967077  0.87980747  1
  O  O296  1  -0.00659197  0.00911371  0.10665183  1
  O  O297  1  0.00715485  0.00927232  0.62666388  1
  O  O298  1  -0.01250559  0.51526787  0.11759055  1
  O  O299  1  0.01521041  0.45682439  0.60320962  1
  O  O300  1  0.49320402  0.01679419  0.08690397  1
  O  O301  1  0.51827652  0.01563055  0.64768338  1
  O  O302  1  0.49504744  0.41692248  0.15909862  1
  O  O303  1  0.45008410  0.46346790  0.53847828  1
  O  O304  1  0.27045772  0.38342253  0.25798850  1
  O  O305  1  0.25597185  0.39572965  0.74307223  1
  O  O306  1  0.23533280  0.88221044  0.25671932  1
  O  O307  1  0.22858767  0.85157864  0.72409550  1
  O  O308  1  0.75896921  0.36771700  0.24497139  1
  O  O309  1  0.73126938  0.37489254  0.74762364  1
  O  O310  1  0.74516821  0.91118735  0.26549697  1
  O  O311  1  0.77345899  0.88684984  0.74628266  1
  O  O312  1  0.24178496  0.15402426  0.27001492  1
  O  O313  1  0.26412289  0.13722582  0.75587404  1
  O  O314  1  0.23781524  0.61071649  0.25372672  1
  O  O315  1  0.23023315  0.60843099  0.76182571  1
  O  O316  1  0.75347616  0.11696172  0.27361312  1
  O  O317  1  0.75990869  0.13173353  0.75651907  1
  O  O318  1  0.74615111  0.59979510  0.24751942  1
  O  O319  1  0.71966997  0.59716862  0.74065161  1
  O  O320  1  0.36424245  0.12524838  0.36880830  1
  O  O321  1  0.35954078  0.14500572  0.87140751  1
  O  O322  1  0.36705688  0.63287340  0.33287646  1
  O  O323  1  0.34008831  0.60990613  0.89469414  1
  O  O324  1  0.89960106  0.11543091  0.37490795  1
  O  O325  1  0.86861736  0.12063516  0.86755055  1
  O  O326  1  0.88417657  0.60727245  0.37770107  1
  O  O327  1  0.84962067  0.70897841  0.84339512  1
  O  O328  1  0.19655320  0.34283695  0.08152780  1
  O  O329  1  0.14534028  0.36810627  0.63150334  1
  O  O330  1  0.11997513  0.88295963  0.13707933  1
  O  O331  1  0.11464941  0.85028782  0.65171155  1
  O  O332  1  0.64705348  0.36238153  0.13151792  1
  O  O333  1  0.63817226  0.36719950  0.61715793  1
  O  O334  1  0.68780178  0.85938962  0.08339671  1
  O  O335  1  0.62573980  0.88731983  0.61124283  1
  O  O336  1  0.11735339  0.26404601  0.24433875  1
  O  O337  1  0.10971094  0.25523433  0.76013178  1
  O  O338  1  0.12535186  0.77105153  0.24987161  1
  O  O339  1  0.16524905  0.80688572  0.70350349  1
  O  O340  1  0.61705806  0.23211803  0.25016304  1
  O  O341  1  0.61361342  0.25871230  0.75713774  1
  O  O342  1  0.61254518  0.75940651  0.24854981  1
  O  O343  1  0.60217986  0.77110105  0.73138965  1
  O  O344  1  0.44972463  0.30395376  0.25987787  1
  O  O345  1  0.39166794  0.24938196  0.75036586  1
  O  O346  1  0.38305015  0.76134909  0.22206260  1
  O  O347  1  0.38514142  0.70897530  0.76987778  1
  O  O348  1  0.89465313  0.24967511  0.23792112  1
  O  O349  1  0.88406296  0.24739182  0.74724572  1
  O  O350  1  0.84918003  0.75808434  0.23107187  1
  O  O351  1  0.82724498  0.74043236  0.67648866  1
  O  O352  1  0.38421109  0.48370833  0.50136168  1
  O  O353  1  0.35156141  0.48958822  0.99551895  1
  O  O354  1  0.38523502  0.99241811  0.49747699  1
  O  O355  1  0.38980430  0.97046440  0.98071066  1
  O  O356  1  0.88153501  0.48363660  0.48861774  1
  O  O357  1  0.87558055  0.48757191  1.00665025  1
  O  O358  1  0.89814956  1.00660633  0.49475473  1
  O  O359  1  0.88497027  1.01108859  0.98768605  1
  O  O360  1  0.10777243  0.01710626  -0.02152452  1
  O  O361  1  0.10914151  0.00108129  0.50021211  1
  O  O362  1  0.09973574  0.50321891  0.00176785  1
  O  O363  1  0.11633499  0.48918898  0.48436841  1
  O  O364  1  0.62662846  0.00926057  -0.00491694  1
  O  O365  1  0.60164514  0.00769044  0.52161213  1
  O  O366  1  0.63875407  0.51445278  0.01510301  1
  O  O367  1  0.62269142  0.53291316  0.47160362  1
  O  O368  1  0.37938451  0.31626386  0.07224335  1
  O  O369  1  0.38339720  0.36871157  0.64218955  1
  O  O370  1  0.36543908  0.86477388  0.09469033  1
  O  O371  1  0.34686088  0.91876001  0.64029000  1
  O  O372  1  0.87251150  0.36244046  0.11922972  1
  O  O373  1  0.87032177  0.36794742  0.61501662  1
  O  O374  1  0.89918502  0.86498065  0.11860940  1
  O  O375  1  0.82711637  0.86464870  0.55428001  1
  O  O376  1  0.11664317  0.14280061  0.38724443  1
  O  O377  1  0.13692883  0.13654016  0.87601520  1
  O  O378  1  0.14025330  0.62450247  0.37770947  1
  O  O379  1  0.12229679  0.62120240  0.88865290  1
  O  O380  1  0.63268571  0.12848906  0.38844931  1
  O  O381  1  0.64533617  0.12119827  0.87610405  1
  O  O382  1  0.61416239  0.64871886  0.36823794  1
  O  O383  1  0.62914362  0.61620467  0.90666952  1
