# generated using pymatgen
data_VZnO4
_symmetry_space_group_name_H-M   'P 1'
_cell_length_a   16.91614757
_cell_length_b   16.96869572
_cell_length_c   16.99034137
_cell_angle_alpha   89.76255650
_cell_angle_beta   89.95525574
_cell_angle_gamma   89.96137806
_symmetry_Int_Tables_number   1
_chemical_formula_structural   VZnO4
_chemical_formula_sum   'V64 Zn64 O256'
_cell_volume   4876.94740918
_cell_formula_units_Z   64
loop_
 _symmetry_equiv_pos_site_id
 _symmetry_equiv_pos_as_xyz
  1  'x, y, z'
loop_
 _atom_site_type_symbol
 _atom_site_label
 _atom_site_symmetry_multiplicity
 _atom_site_fract_x
 _atom_site_fract_y
 _atom_site_fract_z
 _atom_site_occupancy
  V  V0  1  0.35562393  0.87926501  0.52166272  1
  V  V1  1  0.49346501  0.12009089  0.15448824  1
  V  V2  1  0.86686132  0.87696582  0.00907882  1
  V  V3  1  0.00933491  -0.00710495  -0.00566517  1
  V  V4  1  0.28011820  0.37370647  0.12855424  1
  V  V5  1  0.51355880  0.35624833  0.84491103  1
  V  V6  1  0.47118563  0.77413601  0.73309599  1
  V  V7  1  0.51107752  0.87444643  0.87470393  1
  V  V8  1  0.24152525  -0.00803837  0.75106662  1
  V  V9  1  0.37877779  -0.00441850  0.87404824  1
  V  V10  1  0.15054214  0.61464542  -0.00671056  1
  V  V11  1  0.72903277  0.10012085  0.90243997  1
  V  V12  1  -0.00484897  -0.01059483  0.49539253  1
  V  V13  1  0.36300867  0.35314297  0.49206996  1
  V  V14  1  0.24964871  0.76856490  0.00731979  1
  V  V15  1  0.12377838  0.13791243  0.00880019  1
  V  V16  1  0.00333218  0.62606585  0.12661556  1
  V  V17  1  0.88069060  0.76664176  0.61983330  1
  V  V18  1  0.87491904  0.25436954  0.61795288  1
  V  V19  1  0.07488641  0.41626462  0.75660304  1
  V  V20  1  0.11425495  0.86793516  0.25434330  1
  V  V21  1  0.63493624  0.00753422  0.15685895  1
  V  V22  1  0.26757293  0.25340849  0.00260391  1
  V  V23  1  0.74825671  0.12470826  0.35780440  1
  V  V24  1  0.37362187  0.14198066  0.74066766  1
  V  V25  1  0.47929295  0.88746116  0.37533526  1
  V  V26  1  0.11949001  0.60697503  0.48850762  1
  V  V27  1  0.63984550  0.62873438  0.48650311  1
  V  V28  1  0.50165924  0.75671728  0.25289365  1
  V  V29  1  0.63901463  0.53775780  0.16721286  1
  V  V30  1  0.26282298  0.12265567  0.37181681  1
  V  V31  1  0.75871159  0.72495401  -0.01211381  1
  V  V32  1  0.57524264  0.64289515  -0.03259612  1
  V  V33  1  0.50036259  0.00650194  0.51333908  1
  V  V34  1  -0.00494565  0.12500181  0.63453462  1
  V  V35  1  0.12587962  0.13745535  0.49875409  1
  V  V36  1  0.13674867  0.48909963  0.13764900  1
  V  V37  1  0.88142392  0.00545791  0.86505400  1
  V  V38  1  0.63222803  0.76917028  0.38593835  1
  V  V39  1  -0.00639364  0.75488569  0.76313099  1
  V  V40  1  0.11143134  0.25643106  0.85990536  1
  V  V41  1  0.76331109  0.89215692  0.64267603  1
  V  V42  1  0.13198363  -0.00882004  0.62246402  1
  V  V43  1  -0.00871480  0.13673425  0.13223259  1
  V  V44  1  0.00422499  0.36420752  0.37304269  1
  V  V45  1  0.70500323  0.23253986  0.49201219  1
  V  V46  1  0.12403055  0.24537991  0.34089770  1
  V  V47  1  0.36305537  0.65026660  0.27371307  1
  V  V48  1  0.00662224  0.48833972  -0.01206270  1
  V  V49  1  0.38399427  0.49098390  0.89181163  1
  V  V50  1  0.86165541  0.37462899  0.02227049  1
  V  V51  1  0.89865047  0.52361036  0.36006443  1
  V  V52  1  0.61071827  0.50849029  0.62125233  1
  V  V53  1  0.26449215  0.36990753  0.64511451  1
  V  V54  1  0.26432535  -0.00110760  0.24818351  1
  V  V55  1  0.12731612  0.75465159  0.39594029  1
  V  V56  1  0.71901307  0.36903981  0.61970808  1
  V  V57  1  0.50853564  0.13866106  0.62770205  1
  V  V58  1  0.24940551  0.13301369  0.86871760  1
  V  V59  1  0.87554965  -0.00179532  0.36343100  1
  V  V60  1  0.48453828  0.37194141  0.35679546  1
  V  V61  1  0.46897326  0.52133587  0.49040523  1
  V  V62  1  0.13129462  -0.00066156  0.13262850  1
  V  V63  1  0.65127579  0.36962757  0.27097674  1
  Zn  Zn64  1  0.31735820  0.17924858  0.18353727  1
  Zn  Zn65  1  0.18685163  0.18910627  0.68056993  1
  Zn  Zn66  1  0.19498886  0.69019682  0.17137660  1
  Zn  Zn67  1  0.13353100  0.61058754  0.67687043  1
  Zn  Zn68  1  0.68181394  0.19479855  0.19138043  1
  Zn  Zn69  1  0.70350210  0.17843000  0.68005183  1
  Zn  Zn70  1  0.69042539  0.74067550  0.18470281  1
  Zn  Zn71  1  0.69072641  0.69209797  0.66361735  1
  Zn  Zn72  1  0.31117645  0.30676408  0.31470154  1
  Zn  Zn73  1  0.31921013  0.31892193  0.82587462  1
  Zn  Zn74  1  0.30419092  0.82147789  0.31159591  1
  Zn  Zn75  1  0.30608738  0.80661301  0.82007877  1
  Zn  Zn76  1  0.79668226  0.34546053  0.38975580  1
  Zn  Zn77  1  0.78465112  0.28652932  0.78979120  1
  Zn  Zn78  1  0.79635358  0.84275024  0.31284443  1
  Zn  Zn79  1  0.82753078  0.81463057  0.81708682  1
  Zn  Zn80  1  0.15604664  0.39954425  0.46422926  1
  Zn  Zn81  1  0.19129969  0.43126542  0.93015289  1
  Zn  Zn82  1  0.18333637  0.94226104  0.43073004  1
  Zn  Zn83  1  0.24072727  0.97775427  0.98382901  1
  Zn  Zn84  1  0.65547551  0.42577726  0.45535636  1
  Zn  Zn85  1  0.57846036  0.44973050  0.96946898  1
  Zn  Zn86  1  0.68295175  0.95417346  0.44048348  1
  Zn  Zn87  1  0.71234316  0.89546480  0.90704209  1
  Zn  Zn88  1  0.39725943  0.11411446  0.01101730  1
  Zn  Zn89  1  0.31386717  0.06308642  0.55723409  1
  Zn  Zn90  1  0.32719644  0.54809238  0.06437262  1
  Zn  Zn91  1  0.27509104  0.54153636  0.57096182  1
  Zn  Zn92  1  0.81154291  0.05872115  0.07113764  1
  Zn  Zn93  1  0.81232940  0.06606059  0.55129517  1
  Zn  Zn94  1  0.81630140  0.55174677  0.06049729  1
  Zn  Zn95  1  0.80198153  0.54375316  0.54618771  1
  Zn  Zn96  1  0.49989482  0.40333826  0.13823536  1
  Zn  Zn97  1  0.44718241  0.42180287  0.67661846  1
  Zn  Zn98  1  0.44149128  0.93274106  0.17071324  1
  Zn  Zn99  1  0.42951811  0.95079366  0.68831427  1
  Zn  Zn100  1  0.94739044  0.44160353  0.19130977  1
  Zn  Zn101  1  0.87939831  0.44367676  0.70139145  1
  Zn  Zn102  1  0.94196121  0.94668907  0.18346677  1
  Zn  Zn103  1  0.95619256  0.93112970  0.69292337  1
  Zn  Zn104  1  0.05821859  0.06669827  0.31261048  1
  Zn  Zn105  1  0.06869943  0.06726744  0.81388517  1
  Zn  Zn106  1  0.07061056  0.56882183  0.31189645  1
  Zn  Zn107  1  0.05441348  0.59293179  0.82465215  1
  Zn  Zn108  1  0.56282403  0.05754638  0.31802448  1
  Zn  Zn109  1  0.55583771  0.16492470  0.83336970  1
  Zn  Zn110  1  0.55331992  0.56876314  0.32042065  1
  Zn  Zn111  1  0.51722343  0.55698635  0.79662566  1
  Zn  Zn112  1  0.44926620  0.18701151  0.43267800  1
  Zn  Zn113  1  0.51423973  0.25681415  1.00608174  1
  Zn  Zn114  1  0.42889588  0.70699567  0.44554912  1
  Zn  Zn115  1  0.41443446  0.69284170  0.90617795  1
  Zn  Zn116  1  0.93767978  0.18417068  0.43608114  1
  Zn  Zn117  1  0.92923394  0.18927652  0.94077444  1
  Zn  Zn118  1  0.95476082  0.69234024  0.44433044  1
  Zn  Zn119  1  0.96625503  0.70555616  0.97444315  1
  Zn  Zn120  1  0.06831607  0.31348462  0.07308143  1
  Zn  Zn121  1  0.05664416  0.31865282  0.57545260  1
  Zn  Zn122  1  0.07738940  0.81121267  0.06558919  1
  Zn  Zn123  1  0.06394582  0.80798736  0.56964402  1
  Zn  Zn124  1  0.67326390  0.34343536  0.07586274  1
  Zn  Zn125  1  0.53900697  0.31560829  0.54698449  1
  Zn  Zn126  1  0.46319414  0.78504985  0.05527509  1
  Zn  Zn127  1  0.55763648  0.81873717  0.55172765  1
  O  O128  1  0.12072676  0.12306737  0.11130657  1
  O  O129  1  0.11757017  0.12065733  0.61374911  1
  O  O130  1  0.13103183  0.61021461  0.11316670  1
  O  O131  1  0.18311424  0.61623669  0.57594216  1
  O  O132  1  0.61380412  0.11212261  0.15267371  1
  O  O133  1  0.60769790  0.13117219  0.63791963  1
  O  O134  1  0.64366430  0.63973015  0.17051533  1
  O  O135  1  0.62789890  0.61472634  0.60305833  1
  O  O136  1  0.37334239  0.37633873  0.38180448  1
  O  O137  1  0.40370773  0.37530385  0.87432496  1
  O  O138  1  0.37793842  0.88082442  0.38399300  1
  O  O139  1  0.35908685  0.89738927  0.87055973  1
  O  O140  1  0.90794137  0.35167950  0.39821214  1
  O  O141  1  0.83315277  0.37549187  0.84273405  1
  O  O142  1  0.86428213  0.89691919  0.37984734  1
  O  O143  1  0.87980146  0.89860201  0.89045512  1
  O  O144  1  0.24040271  0.01396197  0.35873531  1
  O  O145  1  0.23819814  0.01603771  0.86038192  1
  O  O146  1  0.24629412  0.47279874  0.32767093  1
  O  O147  1  0.28294695  0.47708491  0.88034864  1
  O  O148  1  0.76321423  0.01226394  0.38366647  1
  O  O149  1  0.76487406  0.00074575  0.87719366  1
  O  O150  1  0.80242921  0.47947282  0.40343058  1
  O  O151  1  0.77865748  0.43866524  0.83790886  1
  O  O152  1  0.24928209  0.48107935  0.11823648  1
  O  O153  1  0.21440887  0.45286346  0.61079975  1
  O  O154  1  0.23488827  1.01171491  0.13649154  1
  O  O155  1  0.23733524  1.01160089  0.63630866  1
  O  O156  1  0.72744828  0.51411772  0.11730035  1
  O  O157  1  0.72537995  0.47810701  0.60516021  1
  O  O158  1  0.73436631  1.00887202  0.13483792  1
  O  O159  1  0.77239007  0.99158218  0.62944747  1
  O  O160  1  0.00016520  0.37524137  0.27194455  1
  O  O161  1  -0.02621677  0.41605234  0.75659038  1
  O  O162  1  0.01541560  0.88164287  0.24295833  1
  O  O163  1  0.01630659  0.85376536  0.75552084  1
  O  O164  1  0.48314120  0.38764219  0.25831219  1
  O  O165  1  0.51285654  0.35090898  0.74440291  1
  O  O166  1  0.48915078  0.87443250  0.26985494  1
  O  O167  1  0.48604233  0.87957873  0.75778266  1
  O  O168  1  0.49183060  0.12209563  0.25490090  1
  O  O169  1  0.48396358  0.13133763  0.74293184  1
  O  O170  1  0.48669018  0.65272012  0.27120017  1
  O  O171  1  0.53207462  0.67410821  0.72854754  1
  O  O172  1  0.99924926  0.11829905  0.23094684  1
  O  O173  1  1.00629183  0.12084565  0.73249505  1
  O  O174  1  1.02009749  0.62893391  0.22601777  1
  O  O175  1  0.91350046  0.57306930  0.80636904  1
  O  O176  1  0.36437327  0.23464255  -0.01136378  1
  O  O177  1  0.37321896  0.25551681  0.49430910  1
  O  O178  1  0.31274560  0.74690832  -0.07617078  1
  O  O179  1  0.37231523  0.77872560  0.50913657  1
  O  O180  1  0.88629334  0.28578811  -0.01998896  1
  O  O181  1  0.86255386  0.23719441  0.51986885  1
  O  O182  1  0.87276112  0.77241299  -0.01333978  1
  O  O183  1  0.88559591  0.73154819  0.52640445  1
  O  O184  1  0.12324751  0.23522869  0.50903918  1
  O  O185  1  0.13006116  0.24408020  0.99383771  1
  O  O186  1  0.12849818  0.74558065  0.49875904  1
  O  O187  1  0.14685713  0.73326435  1.00554010  1
  O  O188  1  0.60620893  0.24183601  0.48306253  1
  O  O189  1  0.72533888  0.24817954  1.10481285  1
  O  O190  1  0.61709402  0.73755718  0.49642025  1
  O  O191  1  0.64787872  0.71375065  0.98464362  1
  O  O192  1  0.50305910  0.22273408  0.12211947  1
  O  O193  1  0.49396925  0.23683669  0.61573819  1
  O  O194  1  0.51911308  0.76355576  0.15547626  1
  O  O195  1  0.49188523  0.78564284  0.63522628  1
  O  O196  1  1.00421016  0.23605402  0.12057083  1
  O  O197  1  0.98186234  0.24326705  0.62753351  1
  O  O198  1  1.00565122  0.72745899  0.09149983  1
  O  O199  1  0.98748568  0.75700514  0.63809476  1
  O  O200  1  0.01677522  0.24921952  0.37621349  1
  O  O201  1  0.01452107  0.24433867  0.87765503  1
  O  O202  1  0.02427401  0.75239928  0.37663421  1
  O  O203  1  -0.01121564  0.72963743  0.86266339  1
  O  O204  1  0.49121964  0.27211927  0.37035905  1
  O  O205  1  0.50905442  0.25479235  0.88682286  1
  O  O206  1  0.50083799  0.77496863  0.38121961  1
  O  O207  1  0.48736500  0.77053556  0.84998587  1
  O  O208  1  0.23423888  0.11484012  0.48589185  1
  O  O209  1  0.23752241  0.13784124  0.98846359  1
  O  O210  1  0.27824851  0.52123198  0.36924960  1
  O  O211  1  0.25164486  0.61471349  1.00639782  1
  O  O212  1  0.73023142  0.13398618  0.51307479  1
  O  O213  1  0.73977927  0.11421773  0.99916271  1
  O  O214  1  0.73978936  0.62336452  0.49251195  1
  O  O215  1  0.79002675  0.63029230  0.97822586  1
  O  O216  1  0.25099721  0.35692397  0.00322983  1
  O  O217  1  0.26309180  0.37105871  0.48650991  1
  O  O218  1  0.23234624  0.86698938  -0.00079651  1
  O  O219  1  0.25712525  0.89336710  0.49888015  1
  O  O220  1  0.76183442  0.38707389  0.01312610  1
  O  O221  1  0.73250189  0.34997366  0.49002335  1
  O  O222  1  0.76932812  0.89804750  0.01070101  1
  O  O223  1  0.71960630  0.87653862  0.53309157  1
  O  O224  1  0.13323530  0.50599479  0.23561161  1
  O  O225  1  0.10496643  0.51414911  0.74296103  1
  O  O226  1  0.12218311  0.99947107  0.23896429  1
  O  O227  1  0.13144969  1.00637731  0.73647560  1
  O  O228  1  0.63852460  0.51112408  0.27023972  1
  O  O229  1  0.60555047  0.51211218  0.71876199  1
  O  O230  1  0.62826981  0.98420341  0.25400858  1
  O  O231  1  0.62123677  0.99285779  0.73676361  1
  O  O232  1  0.36110953  -0.01456083  0.24096920  1
  O  O233  1  0.35648133  0.01410250  0.75822952  1
  O  O234  1  0.38603712  0.54606840  0.22462013  1
  O  O235  1  0.42768365  0.49829492  0.75546863  1
  O  O236  1  0.88254571  0.00205131  0.26381982  1
  O  O237  1  0.89524965  -0.00277243  0.76746156  1
  O  O238  1  0.88165162  0.50460743  0.26278618  1
  O  O239  1  0.78913241  0.48284051  0.77604073  1
  O  O240  1  0.13008298  0.34852148  0.35953555  1
  O  O241  1  0.12238613  0.36912529  0.84917793  1
  O  O242  1  0.12053200  0.87089109  0.36261263  1
  O  O243  1  0.13248690  0.84143499  0.86459420  1
  O  O244  1  0.59666972  0.39002579  0.36602096  1
  O  O245  1  0.60933183  0.37535253  0.87839449  1
  O  O246  1  0.61184498  0.87177696  0.39653279  1
  O  O247  1  0.60952231  0.88795357  0.86497631  1
  O  O248  1  0.38889373  0.10889219  0.12783647  1
  O  O249  1  0.37181946  0.12445346  0.63894878  1
  O  O250  1  0.38790528  0.59240051  0.15980596  1
  O  O251  1  0.29393309  0.59509600  0.73305148  1
  O  O252  1  0.89328360  0.12344617  0.11011840  1
  O  O253  1  0.89469680  0.12088117  0.61778802  1
  O  O254  1  0.90497078  0.60438233  0.11568570  1
  O  O255  1  0.84942723  0.61545375  0.67756807  1
  O  O256  1  0.26298531  0.25539592  0.10942488  1
  O  O257  1  0.22769075  0.27713104  0.62493860  1
  O  O258  1  0.27693425  0.74424862  0.10067135  1
  O  O259  1  0.33235480  0.60042614  0.66465436  1
  O  O260  1  0.84652545  0.25495548  0.20015310  1
  O  O261  1  0.71667766  0.26012830  0.59878694  1
  O  O262  1  0.75471912  0.74520304  0.08547674  1
  O  O263  1  0.77334478  0.76436190  0.63581969  1
  O  O264  1  0.23538612  0.22913150  0.36326484  1
  O  O265  1  0.23931556  0.24926510  0.88231557  1
  O  O266  1  0.22646305  0.76257573  0.36841763  1
  O  O267  1  0.16832231  0.78710178  0.83177312  1
  O  O268  1  0.75341671  0.23097441  0.39400961  1
  O  O269  1  0.72805493  0.19869269  0.84305749  1
  O  O270  1  0.73135872  0.77056548  0.38117328  1
  O  O271  1  0.75006351  0.78352460  0.89416298  1
  O  O272  1  0.01533501  0.12251716  0.00045319  1
  O  O273  1  0.01269624  0.11787266  0.50713653  1
  O  O274  1  0.02162954  0.60568346  0.00444558  1
  O  O275  1  0.02278070  0.61317154  0.51167638  1
  O  O276  1  0.50910853  0.14187269  0.02189684  1
  O  O277  1  0.48799580  0.11712220  0.51484744  1
  O  O278  1  0.48135390  0.68351154  0.00219768  1
  O  O279  1  0.49149168  0.62075506  0.49355913  1
  O  O280  1  0.47344070  0.38939462  0.48644202  1
  O  O281  1  0.55747406  0.35942571  1.04016641  1
  O  O282  1  0.48469908  0.89128408  0.49850495  1
  O  O283  1  0.49601698  0.86160568  0.97253175  1
  O  O284  1  1.04339431  0.37863849  0.48207896  1
  O  O285  1  1.01869159  0.38858479  1.00096458  1
  O  O286  1  1.01005635  0.89169453  0.50464576  1
  O  O287  1  1.02234349  0.89329576  0.99640045  1
  O  O288  1  0.48263152  0.50033423  0.38712396  1
  O  O289  1  0.50372124  0.46902895  0.87996719  1
  O  O290  1  0.49775729  0.99194036  0.38740840  1
  O  O291  1  0.47941195  0.99111702  0.87269315  1
  O  O292  1  0.99982444  0.49118368  0.37151757  1
  O  O293  1  1.01769539  0.50248933  0.88904912  1
  O  O294  1  0.99066348  1.00729864  0.38732688  1
  O  O295  1  0.99813274  1.01335060  0.88801668  1
  O  O296  1  0.01479022  0.01382766  0.10996697  1
  O  O297  1  0.01201240  0.00824205  0.61914352  1
  O  O298  1  0.02357568  0.50235746  0.11721274  1
  O  O299  1  -0.11986373  0.54458424  0.63451146  1
  O  O300  1  0.51624823  0.01131703  0.13484746  1
  O  O301  1  0.49622510  0.01488198  0.62038910  1
  O  O302  1  0.54159686  0.51255582  0.13709900  1
  O  O303  1  0.50517060  0.49632230  0.59745878  1
  O  O304  1  0.26398628  0.36163785  0.22587994  1
  O  O305  1  0.27117076  0.38252725  0.74372645  1
  O  O306  1  0.23340613  0.89630618  0.25339124  1
  O  O307  1  0.24925595  0.89468678  0.75542797  1
  O  O308  1  0.74970599  0.37667783  0.29047675  1
  O  O309  1  0.71443511  0.35578981  0.71719934  1
  O  O310  1  0.74506018  0.83187132  0.21897469  1
  O  O311  1  0.75700274  0.87909890  0.74221835  1
  O  O312  1  0.25713016  0.11192081  0.25930387  1
  O  O313  1  0.25233190  0.12562219  0.75381791  1
  O  O314  1  0.26551745  0.64557117  0.24816437  1
  O  O315  1  0.23375516  0.64354827  0.74267403  1
  O  O316  1  0.75894846  0.13622148  0.26021856  1
  O  O317  1  0.68029711  0.03413661  0.74143933  1
  O  O318  1  0.84906949  0.68718354  0.23486503  1
  O  O319  1  0.77466430  0.60724706  0.70061715  1
  O  O320  1  0.36003321  0.12743665  0.38499885  1
  O  O321  1  0.35908060  0.11920065  0.86039181  1
  O  O322  1  0.36332725  0.64456847  0.37335765  1
  O  O323  1  0.39994843  0.59125591  0.86165141  1
  O  O324  1  0.86365575  0.11281686  0.38601273  1
  O  O325  1  0.86185902  0.11060120  0.88687036  1
  O  O326  1  0.89850326  0.62257154  0.37337560  1
  O  O327  1  0.86453718  0.60113744  0.85220660  1
  O  O328  1  0.13623714  0.38633433  0.12705381  1
  O  O329  1  0.09649181  0.36654108  0.67314838  1
  O  O330  1  0.12436118  0.89538331  0.12975883  1
  O  O331  1  0.12612073  0.89291838  0.62180742  1
  O  O332  1  0.63554244  0.39787739  0.17160939  1
  O  O333  1  0.61450089  0.38911631  0.59657164  1
  O  O334  1  0.62152729  0.89472850  0.10457891  1
  O  O335  1  0.66060530  0.87683755  0.59431233  1
  O  O336  1  0.12015819  0.23619658  0.24657578  1
  O  O337  1  0.12106220  0.23560612  0.76425752  1
  O  O338  1  0.13192920  0.77181669  0.22893319  1
  O  O339  1  0.06025638  0.67191816  0.73887536  1
  O  O340  1  0.63404160  0.27110158  0.26324179  1
  O  O341  1  0.66251709  0.20687934  0.78615533  1
  O  O342  1  0.60886213  0.75906679  0.27912863  1
  O  O343  1  0.59934839  0.71922687  0.73757847  1
  O  O344  1  0.37803276  0.24282204  0.25227028  1
  O  O345  1  0.36382390  0.23914295  0.75152212  1
  O  O346  1  0.38413883  0.75624235  0.25567570  1
  O  O347  1  0.37242831  0.75312368  0.74284755  1
  O  O348  1  0.89136427  0.25027945  0.25560263  1
  O  O349  1  0.81855176  0.21701815  0.70269946  1
  O  O350  1  0.88902492  0.74574583  0.24785099  1
  O  O351  1  0.88767651  0.75100677  0.74225329  1
  O  O352  1  0.36847669  0.51833653  0.50843596  1
  O  O353  1  0.39769670  0.49875258  0.99242552  1
  O  O354  1  0.38477395  0.99372812  0.50314760  1
  O  O355  1  0.35089845  1.01558075  0.97498340  1
  O  O356  1  0.86099221  0.48458006  0.46619858  1
  O  O357  1  0.89603253  0.48121503  0.99732506  1
  O  O358  1  0.89362649  1.00089081  0.50176647  1
  O  O359  1  0.89984490  0.99465491  1.00010696  1
  O  O360  1  0.12814096  0.01613430  0.00778536  1
  O  O361  1  0.11778376  0.00846752  0.50932315  1
  O  O362  1  0.13131578  0.50214687  0.00359354  1
  O  O363  1  0.14524715  0.51360506  0.46441315  1
  O  O364  1  0.61999146  -0.05926495  0.04423499  1
  O  O365  1  0.60080411  0.00312825  0.50308693  1
  O  O366  1  0.60624964  0.55361519  0.00476793  1
  O  O367  1  0.61015465  0.52180269  0.49102487  1
  O  O368  1  0.37871928  0.38328569  0.11868907  1
  O  O369  1  0.36702056  0.37722492  0.60593472  1
  O  O370  1  0.39494187  0.86156800  0.09992991  1
  O  O371  1  0.35935963  0.89081034  0.62189319  1
  O  O372  1  0.88722605  0.37511258  0.11992626  1
  O  O373  1  0.84643919  0.35830531  0.62766108  1
  O  O374  1  0.89651533  0.88018695  0.10538927  1
  O  O375  1  0.87604215  0.87347924  0.62283583  1
  O  O376  1  0.12285724  0.13273580  0.38473023  1
  O  O377  1  0.13204699  0.13654028  0.88301287  1
  O  O378  1  0.12968721  0.64086769  0.38411223  1
  O  O379  1  0.14024482  0.62221897  0.89447591  1
  O  O380  1  0.64750722  0.11360864  0.36946166  1
  O  O381  1  0.62977265  0.09185017  0.88679460  1
  O  O382  1  0.61950477  0.64450535  0.38537146  1
  O  O383  1  0.57187412  0.62590544  0.86909547  1
