# generated using pymatgen
data_VZnO4
_symmetry_space_group_name_H-M   'P 1'
_cell_length_a   16.95578508
_cell_length_b   16.95838763
_cell_length_c   16.96856132
_cell_angle_alpha   90.10790079
_cell_angle_beta   90.26911616
_cell_angle_gamma   88.97150191
_symmetry_Int_Tables_number   1
_chemical_formula_structural   VZnO4
_chemical_formula_sum   'V64 Zn64 O256'
_cell_volume   4878.33943251
_cell_formula_units_Z   64
loop_
 _symmetry_equiv_pos_site_id
 _symmetry_equiv_pos_as_xyz
  1  'x, y, z'
loop_
 _atom_site_type_symbol
 _atom_site_label
 _atom_site_symmetry_multiplicity
 _atom_site_fract_x
 _atom_site_fract_y
 _atom_site_fract_z
 _atom_site_occupancy
  V  V0  1  0.90551351  0.42643069  0.49552905  1
  V  V1  1  0.26794537  0.63262940  0.88350368  1
  V  V2  1  0.38895494  0.23776365  0.13094440  1
  V  V3  1  0.87420938  0.62950543  0.74255220  1
  V  V4  1  0.63740790  0.86986236  0.25595188  1
  V  V5  1  0.03144889  0.79564487  0.77594882  1
  V  V6  1  0.14549190  0.75710308  0.30963213  1
  V  V7  1  0.49133313  0.35994411  0.36131554  1
  V  V8  1  0.01708526  0.10120055  0.62350896  1
  V  V9  1  0.37587769  0.89000780  0.46500747  1
  V  V10  1  0.76267196  0.26410477  -0.00438436  1
  V  V11  1  0.00082308  0.24469766  0.25258217  1
  V  V12  1  0.74064155  0.48891540  0.74222480  1
  V  V13  1  0.12565034  0.10314425  0.49335045  1
  V  V14  1  0.50198349  0.00278017  0.50185257  1
  V  V15  1  0.49605530  0.75380763  0.25077988  1
  V  V16  1  0.50349744  0.00484456  0.01660467  1
  V  V17  1  0.00390319  0.36690590  0.87783180  1
  V  V18  1  0.74957057  0.24840038  0.53989890  1
  V  V19  1  0.48923008  0.49397536  0.49420121  1
  V  V20  1  0.37053016  0.61146123  0.25751879  1
  V  V21  1  0.12383249  0.63334114  -0.00997558  1
  V  V22  1  0.25535256  0.37412281  0.13055598  1
  V  V23  1  0.64131413  -0.00559705  0.14153784  1
  V  V24  1  0.61731583  0.86526357  0.74916723  1
  V  V25  1  0.87832600  0.28590014  0.12537678  1
  V  V26  1  0.63015796  0.48065788  0.12655593  1
  V  V27  1  -0.00431309  0.50220268  -0.00868007  1
  V  V28  1  0.88602159  0.10889039  0.75270602  1
  V  V29  1  -0.00685309  0.87366181  0.39002555  1
  V  V30  1  0.50281744  0.62094580  0.12008091  1
  V  V31  1  0.74279187  0.73918605  0.51790782  1
  V  V32  1  0.37351916  0.75395246  0.10864512  1
  V  V33  1  0.37312320  0.37024373  -0.01557938  1
  V  V34  1  0.81825791  0.02687640  0.36420664  1
  V  V35  1  0.24079648  0.24361201  0.49321240  1
  V  V36  1  0.51135266  0.23124212  0.75096532  1
  V  V37  1  0.12913921  0.49732661  0.11304623  1
  V  V38  1  0.37859185  0.63404590  0.72183504  1
  V  V39  1  0.62617942  0.72996001  0.37002636  1
  V  V40  1  0.12135889  0.38026375  0.25882241  1
  V  V41  1  0.62525813  0.63312004  -0.01861813  1
  V  V42  1  0.87932175  0.62497807  0.23113093  1
  V  V43  1  0.49596460  0.49438136  -0.00921577  1
  V  V44  1  0.86477103  0.50106145  0.87197824  1
  V  V45  1  0.61485329  0.47183341  0.63117042  1
  V  V46  1  0.26263486  0.49597112  0.75422743  1
  V  V47  1  0.64965090  0.10919520  -0.01117701  1
  V  V48  1  0.78689348  0.79633693  0.01406518  1
  V  V49  1  0.37355907  0.22881646  0.63201565  1
  V  V50  1  0.51461953  0.36315466  0.86636669  1
  V  V51  1  0.64838330  0.25063757  0.33766471  1
  V  V52  1  0.23307624  -0.00563822  0.74667454  1
  V  V53  1  0.37297061  0.36298446  0.50573182  1
  V  V54  1  0.63058061  0.11459436  0.55014764  1
  V  V55  1  0.23898402  0.24470078  -0.00881169  1
  V  V56  1  0.61288361  0.61769821  0.52052171  1
  V  V57  1  0.11513331  0.52355842  0.62470918  1
  V  V58  1  0.12800215  0.37943621  0.74214972  1
  V  V59  1  0.24141926  0.12878508  0.86461290  1
  V  V60  1  0.37543067  0.88041488  -0.00463822  1
  V  V61  1  -0.00032509  0.25990981  0.72293897  1
  V  V62  1  0.38598480  0.01118447  0.86113178  1
  V  V63  1  0.36902054  0.76909106  0.60214635  1
  Zn  Zn64  1  0.19130478  0.20139599  0.18958851  1
  Zn  Zn65  1  0.18940103  0.19102532  0.68057902  1
  Zn  Zn66  1  0.20493307  0.67816827  0.16431738  1
  Zn  Zn67  1  0.16713622  0.74175113  0.64643565  1
  Zn  Zn68  1  0.69071261  0.19055702  0.15732522  1
  Zn  Zn69  1  0.70164539  0.18404820  0.71145335  1
  Zn  Zn70  1  0.68387674  0.69367680  0.16576894  1
  Zn  Zn71  1  0.68523681  0.66971900  0.69966918  1
  Zn  Zn72  1  0.32308391  0.30349200  0.31871829  1
  Zn  Zn73  1  0.31196915  0.30832344  0.80670213  1
  Zn  Zn74  1  0.32300719  0.83220347  0.28963547  1
  Zn  Zn75  1  0.33932709  0.80419169  0.81310761  1
  Zn  Zn76  1  0.85161649  0.29504490  0.34295605  1
  Zn  Zn77  1  0.82202242  0.31267475  0.81028707  1
  Zn  Zn78  1  0.79837960  0.83102170  0.35205957  1
  Zn  Zn79  1  0.79163185  0.79672366  0.82724967  1
  Zn  Zn80  1  0.18824764  0.43652998  0.45180581  1
  Zn  Zn81  1  0.18761718  0.43874501  0.92695302  1
  Zn  Zn82  1  0.19192953  0.91921073  0.56372853  1
  Zn  Zn83  1  0.22208884  0.90409462  0.89491848  1
  Zn  Zn84  1  0.66705624  0.41247039  0.44855759  1
  Zn  Zn85  1  0.68003412  0.44001858  0.93818310  1
  Zn  Zn86  1  0.67753196  0.92744620  0.45334340  1
  Zn  Zn87  1  0.68575469  0.91103168  0.94792059  1
  Zn  Zn88  1  0.31066151  0.06597343  0.05994399  1
  Zn  Zn89  1  0.30947526  0.05577125  0.55990876  1
  Zn  Zn90  1  0.31577674  0.56091180  0.05623234  1
  Zn  Zn91  1  0.25769120  0.60737877  0.58939483  1
  Zn  Zn92  1  0.80939709  0.00672284  0.05399531  1
  Zn  Zn93  1  0.84287389  0.10138316  0.54615982  1
  Zn  Zn94  1  0.79903229  0.55399281  0.04852089  1
  Zn  Zn95  1  0.79807440  0.55819392  0.56886959  1
  Zn  Zn96  1  0.44011512  0.43389556  0.17708014  1
  Zn  Zn97  1  0.43846911  0.42669081  0.68347177  1
  Zn  Zn98  1  0.44765758  0.93476114  0.17987757  1
  Zn  Zn99  1  0.43219479  0.94672128  0.67610089  1
  Zn  Zn100  1  0.94911360  0.44078437  0.18363085  1
  Zn  Zn101  1  0.93680067  0.44704516  0.67947833  1
  Zn  Zn102  1  0.93621069  0.92604732  0.24510364  1
  Zn  Zn103  1  0.97900857  0.93601645  0.72111949  1
  Zn  Zn104  1  0.01125438  0.07600325  0.33913988  1
  Zn  Zn105  1  0.05086878  0.08799206  0.82734734  1
  Zn  Zn106  1  0.08436612  0.57807880  0.28189434  1
  Zn  Zn107  1  0.06139938  0.57233986  0.80929314  1
  Zn  Zn108  1  0.61748414  0.05661504  0.34693964  1
  Zn  Zn109  1  0.56745668  0.05786427  0.81414240  1
  Zn  Zn110  1  0.55282713  0.55063798  0.30646812  1
  Zn  Zn111  1  0.55188240  0.55216340  0.81013304  1
  Zn  Zn112  1  0.47394726  0.18702045  0.44645095  1
  Zn  Zn113  1  0.44187910  0.18228329  0.94068772  1
  Zn  Zn114  1  0.43287983  0.68997497  0.43645157  1
  Zn  Zn115  1  0.45336202  0.69018690  0.92882597  1
  Zn  Zn116  1  0.94119060  0.19211222  0.44597759  1
  Zn  Zn117  1  0.91084010  0.19838490  0.92244185  1
  Zn  Zn118  1  0.89792814  0.63359591  0.44891906  1
  Zn  Zn119  1  0.93848548  0.68645482  0.92822021  1
  Zn  Zn120  1  0.06127570  0.31400086  0.06293533  1
  Zn  Zn121  1  0.06598538  0.33498532  0.55369717  1
  Zn  Zn122  1  0.09574352  0.80997690  0.10495357  1
  Zn  Zn123  1  0.01790914  0.83666773  0.58466339  1
  Zn  Zn124  1  0.56897045  0.29669028  0.05375891  1
  Zn  Zn125  1  0.55345225  0.30083123  0.56701090  1
  Zn  Zn126  1  0.56046623  0.81524350  0.06409867  1
  Zn  Zn127  1  0.54430994  0.80701177  0.55187331  1
  O  O128  1  0.15225401  0.09818495  0.12960894  1
  O  O129  1  0.12087337  0.12958519  0.61145157  1
  O  O130  1  0.13630839  0.60205449  0.11165020  1
  O  O131  1  0.13927902  0.62498662  0.62334170  1
  O  O132  1  0.63626354  0.09959313  0.11629621  1
  O  O133  1  0.63683241  0.10815099  0.64898125  1
  O  O134  1  0.61174171  0.61729101  0.11257375  1
  O  O135  1  0.60807154  0.61928155  0.62018871  1
  O  O136  1  0.38290188  0.37438137  0.38941038  1
  O  O137  1  0.37601397  0.36892691  0.88390856  1
  O  O138  1  0.38149971  0.89193642  0.36544599  1
  O  O139  1  0.37513743  0.89928917  0.88838844  1
  O  O140  1  0.86186486  0.37796376  0.41784801  1
  O  O141  1  0.89524546  0.39009113  0.86572183  1
  O  O142  1  0.77641908  0.93405682  0.39781440  1
  O  O143  1  0.81525111  0.92129165  0.84084080  1
  O  O144  1  0.24920979  0.03429451  0.34302098  1
  O  O145  1  0.26039860  0.01719635  0.86923708  1
  O  O146  1  0.24527784  0.54521055  0.41191394  1
  O  O147  1  0.24085536  0.51392091  0.86094905  1
  O  O148  1  0.73282543  0.07702081  0.34848219  1
  O  O149  1  0.75954456  -0.03235476  0.86254584  1
  O  O150  1  0.72719977  0.48544546  0.36885093  1
  O  O151  1  0.76210826  0.48914991  0.87431324  1
  O  O152  1  0.24366290  0.48116058  0.10877228  1
  O  O153  1  0.23786505  0.50824237  0.65242437  1
  O  O154  1  0.20315751  1.04196007  0.11886319  1
  O  O155  1  0.24947853  0.99287931  0.64201050  1
  O  O156  1  0.72934692  0.49379613  0.11181446  1
  O  O157  1  0.72922578  0.49222934  0.63467270  1
  O  O158  1  0.73936083  0.98301038  0.14183403  1
  O  O159  1  0.78722088  0.96655406  0.60858902  1
  O  O160  1  0.01726216  0.38079122  0.25372630  1
  O  O161  1  0.00577437  0.37005516  0.75125471  1
  O  O162  1  -0.08743599  0.83734689  0.33532273  1
  O  O163  1  0.05053862  0.89238737  0.80293715  1
  O  O164  1  0.48864524  0.38010040  0.26420832  1
  O  O165  1  0.49702416  0.36602938  0.76416247  1
  O  O166  1  0.50191234  0.85634571  0.24447026  1
  O  O167  1  0.51233213  0.87358302  0.74662276  1
  O  O168  1  0.41728734  0.08725083  0.30301968  1
  O  O169  1  0.50130433  0.13269200  0.76055145  1
  O  O170  1  0.49060898  0.63032458  0.23579103  1
  O  O171  1  0.46860616  0.60932209  0.76021471  1
  O  O172  1  1.01187739  0.14590706  0.24341853  1
  O  O173  1  1.02070701  0.14612797  0.72783680  1
  O  O174  1  0.98478459  0.61968606  0.22945909  1
  O  O175  1  0.97608816  0.62652473  0.75506691  1
  O  O176  1  0.37090764  0.25969461  0.00545614  1
  O  O177  1  0.38083894  0.25128193  0.50922994  1
  O  O178  1  0.39433575  0.76739885  0.00257458  1
  O  O179  1  0.37788002  0.78004202  0.48600461  1
  O  O180  1  0.87700029  0.25324353  0.01754475  1
  O  O181  1  0.84812580  0.22193207  0.50599839  1
  O  O182  1  0.87444435  0.74717007  0.00040381  1
  O  O183  1  0.84026654  0.72197023  0.49424495  1
  O  O184  1  0.14146217  0.26233276  0.50215752  1
  O  O185  1  0.14066676  0.25756037  0.99958871  1
  O  O186  1  0.03382265  0.71067804  0.51631565  1
  O  O187  1  0.10963652  0.72675528  1.02367482  1
  O  O188  1  0.63306370  0.22663195  0.53278844  1
  O  O189  1  0.65538625  0.22276366  1.00865210  1
  O  O190  1  0.60718348  0.72656024  0.48754953  1
  O  O191  1  0.59622503  0.73126846  0.99452610  1
  O  O192  1  0.48761958  0.24984077  0.11572604  1
  O  O193  1  0.48667160  0.24803194  0.64314241  1
  O  O194  1  0.49837199  0.73855159  0.13205752  1
  O  O195  1  0.46730188  0.73725801  0.60008960  1
  O  O196  1  0.98792449  0.26415780  0.13271321  1
  O  O197  1  0.99932184  0.26747650  0.62435476  1
  O  O198  1  0.97544347  0.81143372  0.12650400  1
  O  O199  1  0.97163773  0.82219272  0.68719804  1
  O  O200  1  -0.02386741  0.25534558  0.35395779  1
  O  O201  1  -0.00009752  0.26650365  0.87563611  1
  O  O202  1  -0.00993716  0.71827028  0.45611918  1
  O  O203  1  -0.01351235  0.75715591  0.85807875  1
  O  O204  1  0.47957323  0.25876281  0.36264830  1
  O  O205  1  0.49266313  0.25540888  0.86472429  1
  O  O206  1  0.50551742  0.74083157  0.35480094  1
  O  O207  1  0.44478503  0.76268712  0.84725163  1
  O  O208  1  0.23398756  0.13152721  0.50238904  1
  O  O209  1  0.25247254  0.14032523  0.99001761  1
  O  O210  1  0.25076538  0.60443636  0.45685313  1
  O  O211  1  0.23570430  0.61753035  0.99125827  1
  O  O212  1  0.73306235  0.12934328  0.52468396  1
  O  O213  1  0.75024971  0.09281600  1.00047996  1
  O  O214  1  0.71606916  0.62012323  0.50236528  1
  O  O215  1  0.72571274  0.62385727  0.99529542  1
  O  O216  1  0.25967022  0.36619916  -0.00505175  1
  O  O217  1  0.26694456  0.36255847  0.49633721  1
  O  O218  1  0.27521170  0.88845327  0.00100958  1
  O  O219  1  0.27914110  0.90608918  0.48951012  1
  O  O220  1  0.74533973  0.36039425  -0.00733319  1
  O  O221  1  0.73228017  0.34392158  0.50934498  1
  O  O222  1  0.78925923  0.90231551  0.01295413  1
  O  O223  1  0.71630378  0.83706570  0.51013977  1
  O  O224  1  0.12464940  0.48959956  0.22395008  1
  O  O225  1  0.12453847  0.49600940  0.74573958  1
  O  O226  1  0.21616523  1.07337242  0.28843116  1
  O  O227  1  0.13655531  1.01041282  0.76118115  1
  O  O228  1  0.61264257  0.49817408  0.22541512  1
  O  O229  1  0.62692201  0.49665577  0.73929695  1
  O  O230  1  0.62257183  0.98361523  0.24965093  1
  O  O231  1  0.62339156  0.97019423  0.74483339  1
  O  O232  1  0.33722109  -0.01955826  0.20379680  1
  O  O233  1  0.37374212  -0.00030019  0.75999497  1
  O  O234  1  0.38384056  0.51325963  0.23965552  1
  O  O235  1  0.36192383  0.48022514  0.74956205  1
  O  O236  1  0.85266021  -0.00652008  0.27388131  1
  O  O237  1  0.89637388  0.00845390  0.74763372  1
  O  O238  1  0.88262456  0.51942860  0.24153792  1
  O  O239  1  0.86348819  0.50209087  0.75685633  1
  O  O240  1  0.14530182  0.39689363  0.35407032  1
  O  O241  1  0.11011201  0.38373058  0.85806262  1
  O  O242  1  0.07811871  0.81508072  0.36670287  1
  O  O243  1  0.11859633  0.87557723  0.94792506  1
  O  O244  1  0.60668614  0.34566469  0.37677984  1
  O  O245  1  0.61304249  0.36466572  0.88003499  1
  O  O246  1  0.62055380  0.85676225  0.35937238  1
  O  O247  1  0.61556046  0.87312193  0.85294095  1
  O  O248  1  0.37166045  0.13934409  0.11910108  1
  O  O249  1  0.37515732  0.13017241  0.62119092  1
  O  O250  1  0.38643558  0.63547533  0.11526965  1
  O  O251  1  0.37277228  0.60251678  0.62753661  1
  O  O252  1  0.84957166  0.10334291  0.15493781  1
  O  O253  1  0.90692336  0.11956911  0.63997211  1
  O  O254  1  0.87460751  0.60768327  0.12718133  1
  O  O255  1  0.86291492  0.61574057  0.64281348  1
  O  O256  1  0.25521849  0.26014668  0.10851586  1
  O  O257  1  0.26589318  0.24513988  0.61047504  1
  O  O258  1  0.27446857  0.75002726  0.10910157  1
  O  O259  1  0.27090871  0.72391850  0.59096274  1
  O  O260  1  0.77367861  0.25249142  0.11194374  1
  O  O261  1  0.75913323  0.25129912  0.63947534  1
  O  O262  1  0.73459141  0.76373564  0.09390663  1
  O  O263  1  0.73470749  0.72730165  0.61764930  1
  O  O264  1  0.26085563  0.24614364  0.39461323  1
  O  O265  1  0.25764686  0.24012304  0.88167565  1
  O  O266  1  0.23785439  0.78101946  0.33641428  1
  O  O267  1  0.26329515  0.73277384  0.86995605  1
  O  O268  1  0.74700642  0.25381714  0.35845572  1
  O  O269  1  0.79054213  0.24013397  0.89677311  1
  O  O270  1  0.72760975  0.74153197  0.38174510  1
  O  O271  1  0.73386240  0.79241571  0.92318328  1
  O  O272  1  -0.05494072  0.09826140  0.03212756  1
  O  O273  1  0.01144540  0.12705749  0.51831955  1
  O  O274  1  0.01056077  0.60907973  -0.00909924  1
  O  O275  1  0.01312986  0.57352039  0.42170684  1
  O  O276  1  0.52120755  0.10883104  -0.00613989  1
  O  O277  1  0.52088477  0.11814152  0.51994706  1
  O  O278  1  0.49935826  0.61063176  0.00072005  1
  O  O279  1  0.50374366  0.60250910  0.48854244  1
  O  O280  1  0.49374704  0.37194989  0.49269155  1
  O  O281  1  0.48979063  0.36993772  0.98698478  1
  O  O282  1  0.49032116  0.89018705  0.49497655  1
  O  O283  1  0.49865415  0.89673899  1.00281102  1
  O  O284  1  1.00491370  0.40410609  0.48926631  1
  O  O285  1  1.01038449  0.38593569  0.98368050  1
  O  O286  1  0.97808011  0.88109097  0.48806885  1
  O  O287  1  1.11523126  0.89440256  1.02182747  1
  O  O288  1  0.51334564  0.47887739  0.39062576  1
  O  O289  1  0.50038477  0.47742871  0.88321826  1
  O  O290  1  0.52853393  1.01206488  0.40057868  1
  O  O291  1  0.48771076  1.00596154  0.88088037  1
  O  O292  1  1.01708541  0.52286275  0.36601757  1
  O  O293  1  0.99504890  0.49508610  0.88122663  1
  O  O294  1  1.01010248  0.96146786  0.33748843  1
  O  O295  1  1.05012272  1.00914749  0.93424726  1
  O  O296  1  0.03929899  -0.02626276  0.16908899  1
  O  O297  1  0.02205729  0.00234299  0.63271651  1
  O  O298  1  0.01726100  0.48707416  0.10199167  1
  O  O299  1  0.01529652  0.51612156  0.63360947  1
  O  O300  1  0.50840801  0.00848213  0.12018488  1
  O  O301  1  0.50293419  -0.00419550  0.60818318  1
  O  O302  1  0.50319905  0.50297363  0.10842701  1
  O  O303  1  0.50888667  0.48645355  0.61318478  1
  O  O304  1  0.24418877  0.36619249  0.23261649  1
  O  O305  1  0.23498543  0.38453701  0.76216998  1
  O  O306  1  0.28496619  0.92763121  0.22160041  1
  O  O307  1  0.25025711  0.89334738  0.78141583  1
  O  O308  1  0.74821766  0.45081326  0.30685801  1
  O  O309  1  0.75511864  0.38931127  0.75810712  1
  O  O310  1  0.73483527  0.85348461  0.25128363  1
  O  O311  1  0.72058502  0.85943638  0.74391894  1
  O  O312  1  0.25878689  0.13695590  0.25968756  1
  O  O313  1  0.24747954  0.11893616  0.75818367  1
  O  O314  1  0.27186889  0.62685531  0.23823378  1
  O  O315  1  0.28126075  0.61204397  0.76704732  1
  O  O316  1  0.80116881  0.12473413  0.20650416  1
  O  O317  1  0.78796068  0.12680118  0.76154409  1
  O  O318  1  0.77471457  0.63267423  0.22869347  1
  O  O319  1  0.75046108  0.59726108  0.75724513  1
  O  O320  1  0.39004063  0.11614446  0.36390994  1
  O  O321  1  0.36744581  0.11449560  0.88251501  1
  O  O322  1  0.38318581  0.62647899  0.35643182  1
  O  O323  1  0.36384992  0.61575053  0.90457860  1
  O  O324  1  0.90270213  0.10784055  0.37183967  1
  O  O325  1  0.93536648  0.11496187  0.85094797  1
  O  O326  1  0.87832689  0.63587522  0.33320824  1
  O  O327  1  0.87466609  0.60394579  0.86978387  1
  O  O328  1  0.13922757  0.38004072  0.12317142  1
  O  O329  1  0.12194489  0.39207080  0.64003252  1
  O  O330  1  0.09800938  0.92640516  0.17300058  1
  O  O331  1  0.12940677  0.83515091  0.59343486  1
  O  O332  1  0.61604280  0.38203490  0.10999120  1
  O  O333  1  0.61904212  0.37465797  0.63109949  1
  O  O334  1  0.61507093  0.88453844  0.14054017  1
  O  O335  1  0.61039800  0.85813138  0.64453117  1
  O  O336  1  0.11318605  0.26784504  0.24345789  1
  O  O337  1  0.11762997  0.26950434  0.73834434  1
  O  O338  1  0.13398085  0.76428715  0.20470575  1
  O  O339  1  0.11725029  0.74694316  0.74993582  1
  O  O340  1  0.63697419  0.24617108  0.23770686  1
  O  O341  1  0.61030930  0.24213973  0.74948110  1
  O  O342  1  0.61619434  0.74853563  0.25103821  1
  O  O343  1  0.61490039  0.76041566  0.75446825  1
  O  O344  1  0.36877123  0.25334158  0.22898471  1
  O  O345  1  0.37387807  0.24743336  0.73523548  1
  O  O346  1  0.38623930  0.74810523  0.23226980  1
  O  O347  1  0.36324258  0.73893725  0.71503783  1
  O  O348  1  0.88674207  0.26711351  0.23331920  1
  O  O349  1  0.90077301  0.24526010  0.75116961  1
  O  O350  1  0.88928259  0.72604586  0.21309497  1
  O  O351  1  0.84418311  0.72590491  0.76324584  1
  O  O352  1  0.38983156  0.48174319  0.50236599  1
  O  O353  1  0.38310507  0.47820871  1.00528511  1
  O  O354  1  0.39210185  1.00422913  0.49300662  1
  O  O355  1  0.38953603  0.99753133  1.00776438  1
  O  O356  1  0.87335501  0.53025877  0.48684055  1
  O  O357  1  0.88762859  0.50354393  0.98863773  1
  O  O358  1  0.86956318  1.02821629  0.46385794  1
  O  O359  1  0.92489202  1.02626821  1.03319316  1
  O  O360  1  0.08465882  0.03074974  -0.00500198  1
  O  O361  1  0.13330460  0.00537996  0.50159416  1
  O  O362  1  0.11859505  0.50381314  -0.00081475  1
  O  O363  1  0.13621353  0.49761050  0.52814852  1
  O  O364  1  0.62276574  -0.00741811  0.01082602  1
  O  O365  1  0.62839812  0.01107926  0.51245787  1
  O  O366  1  0.61131261  0.50642739  0.00341233  1
  O  O367  1  0.61743366  0.49865813  0.51613829  1
  O  O368  1  0.36369650  0.36725092  0.11503300  1
  O  O369  1  0.37955129  0.36312259  0.60914064  1
  O  O370  1  0.38880753  0.86055269  0.11187246  1
  O  O371  1  0.36787500  0.86795636  0.62301911  1
  O  O372  1  0.87209552  0.38454151  0.12177195  1
  O  O373  1  0.87825620  0.40264533  0.59116238  1
  O  O374  1  0.92970933  0.87211022  0.13954450  1
  O  O375  1  0.82876069  0.90771405  0.62176231  1
  O  O376  1  0.10151786  0.11992126  0.39645789  1
  O  O377  1  0.14291004  0.13143177  0.87674542  1
  O  O378  1  0.13086787  0.66120919  0.33497222  1
  O  O379  1  0.12847416  0.63057314  0.88686606  1
  O  O380  1  0.60487140  0.16763725  0.37717315  1
  O  O381  1  0.64046469  0.10112716  0.88921748  1
  O  O382  1  0.61770864  0.62920079  0.36430224  1
  O  O383  1  0.61074342  0.61563468  0.88238294  1
