# generated using pymatgen
data_VZnO4
_symmetry_space_group_name_H-M   'P 1'
_cell_length_a   16.94408215
_cell_length_b   16.97032008
_cell_length_c   17.05843118
_cell_angle_alpha   89.50624046
_cell_angle_beta   90.31119195
_cell_angle_gamma   90.33686212
_symmetry_Int_Tables_number   1
_chemical_formula_structural   VZnO4
_chemical_formula_sum   'V64 Zn64 O256'
_cell_volume   4904.75422094
_cell_formula_units_Z   64
loop_
 _symmetry_equiv_pos_site_id
 _symmetry_equiv_pos_as_xyz
  1  'x, y, z'
loop_
 _atom_site_type_symbol
 _atom_site_label
 _atom_site_symmetry_multiplicity
 _atom_site_fract_x
 _atom_site_fract_y
 _atom_site_fract_z
 _atom_site_occupancy
  V  V0  1  0.75179206  0.24684365  0.00143788  1
  V  V1  1  0.36523980  -0.00867112  0.38273674  1
  V  V2  1  0.02454905  0.63480604  0.12258798  1
  V  V3  1  0.89461174  0.25015537  0.62117979  1
  V  V4  1  0.50449675  0.10934251  0.14150250  1
  V  V5  1  0.73338420  0.56854049  0.33900626  1
  V  V6  1  0.71655064  0.71369145  0.45174419  1
  V  V7  1  0.62382257  0.25907360  0.87273118  1
  V  V8  1  0.11762259  0.13598145  0.01374080  1
  V  V9  1  0.36941849  0.23334501  0.12413805  1
  V  V10  1  0.37193021  0.37993763  0.02255085  1
  V  V11  1  0.88326697  0.38614409  -0.01046077  1
  V  V12  1  0.23627989  0.78926727  -0.00240837  1
  V  V13  1  0.36146566  0.38597508  0.49424470  1
  V  V14  1  0.60207956  0.60724145  -0.00223025  1
  V  V15  1  0.75061864  0.12762770  0.87166524  1
  V  V16  1  -0.01164327  0.26482459  0.27232728  1
  V  V17  1  0.48984670  0.11734385  0.62479740  1
  V  V18  1  0.13178566  0.26262703  0.39519394  1
  V  V19  1  0.50349571  0.52280771  0.49974366  1
  V  V20  1  0.61317758  0.11199344  -0.00487008  1
  V  V21  1  0.20966033  0.03025246  0.24499400  1
  V  V22  1  0.49646704  0.26864852  0.75377229  1
  V  V23  1  0.24347135  0.00294943  0.75216577  1
  V  V24  1  0.37746533  0.76324097  0.12637884  1
  V  V25  1  0.89133733  0.13626417  0.74776903  1
  V  V26  1  0.13324943  0.37369562  0.24332548  1
  V  V27  1  0.35995264  0.27069347  0.62685064  1
  V  V28  1  0.72989099  0.12378952  0.38710981  1
  V  V29  1  0.12412112  0.85841117  0.74444022  1
  V  V30  1  0.38737845  0.00718296  0.87345053  1
  V  V31  1  0.23851786  0.63549530  0.90792046  1
  V  V32  1  0.25006685  0.62326224  0.35780460  1
  V  V33  1  0.85119660  0.60786175  0.75863598  1
  V  V34  1  0.88716939  0.00188927  0.87869217  1
  V  V35  1  0.88462287  0.24435005  0.12382739  1
  V  V36  1  0.61156166  0.87903764  0.74929624  1
  V  V37  1  0.49023538  0.72630485  0.75686859  1
  V  V38  1  0.77258666  0.86571098  0.62661987  1
  V  V39  1  0.48990147  0.38364784  0.89286831  1
  V  V40  1  0.00513256  0.00350466  0.01969456  1
  V  V41  1  0.53206932  0.32462420  0.40331880  1
  V  V42  1  0.75338065  -0.00672469  0.74974761  1
  V  V43  1  0.00981784  0.87153026  0.87176283  1
  V  V44  1  0.86922377  0.39859988  0.49613494  1
  V  V45  1  0.12985072  0.02848973  0.61729468  1
  V  V46  1  0.62372773  0.51268515  0.64962513  1
  V  V47  1  0.39274887  0.89377737  -0.00222783  1
  V  V48  1  0.36399992  0.14248754  0.75492213  1
  V  V49  1  0.87130183  0.61841265  0.22884034  1
  V  V50  1  0.73584342  0.35950235  0.63840540  1
  V  V51  1  0.24299060  0.14178069  0.88850410  1
  V  V52  1  0.63523813  0.74996097  0.87789500  1
  V  V53  1  0.88713811  0.00349767  0.39792483  1
  V  V54  1  0.23317280  0.39767553  0.64713308  1
  V  V55  1  0.63790715  0.34056880  0.23837894  1
  V  V56  1  -0.02548790  0.59776501  0.62082006  1
  V  V57  1  0.25773142  0.52701764  0.76881688  1
  V  V58  1  0.02877215  0.50133738  0.00422881  1
  V  V59  1  0.10774387  0.26572088  0.86616970  1
  V  V60  1  0.75176898  0.38533962  0.12101202  1
  V  V61  1  0.00627169  0.83424534  0.39025100  1
  V  V62  1  0.87810967  0.11701508  0.25040329  1
  V  V63  1  0.74645818  -0.01121701  0.23998657  1
  Zn  Zn64  1  0.16960410  0.21771665  0.18367638  1
  Zn  Zn65  1  0.17917389  0.20054446  0.68784214  1
  Zn  Zn66  1  0.23918105  0.65247634  0.13165596  1
  Zn  Zn67  1  0.12842570  0.63629359  0.75389562  1
  Zn  Zn68  1  0.69418440  0.16334854  0.17788301  1
  Zn  Zn69  1  0.67251592  0.17914451  0.68878378  1
  Zn  Zn70  1  0.65496610  0.61407378  0.18853971  1
  Zn  Zn71  1  0.69135182  0.69493983  0.69891045  1
  Zn  Zn72  1  0.30833797  0.29154209  0.30912721  1
  Zn  Zn73  1  0.30819791  0.32785788  0.82283457  1
  Zn  Zn74  1  0.44634972  0.81125430  0.31392911  1
  Zn  Zn75  1  0.30837796  0.81953924  0.81639030  1
  Zn  Zn76  1  0.80369730  0.31063707  0.32067819  1
  Zn  Zn77  1  0.81908634  0.31721167  0.80883002  1
  Zn  Zn78  1  0.85527468  0.82047199  0.29650776  1
  Zn  Zn79  1  0.82537280  0.80523825  0.83205056  1
  Zn  Zn80  1  0.21245065  0.41720884  0.41755267  1
  Zn  Zn81  1  0.20119763  0.43707238  0.94329323  1
  Zn  Zn82  1  0.17665891  0.94160686  0.41837342  1
  Zn  Zn83  1  0.18071400  0.95577581  0.93516848  1
  Zn  Zn84  1  0.67905217  0.41176392  0.46127510  1
  Zn  Zn85  1  0.67819528  0.43562331  0.95322638  1
  Zn  Zn86  1  0.74206784  0.90321717  0.41713054  1
  Zn  Zn87  1  0.68787391  0.93465856  0.92663799  1
  Zn  Zn88  1  0.30946498  0.05403621  0.07122779  1
  Zn  Zn89  1  0.34489157  -0.02274102  0.58857678  1
  Zn  Zn90  1  0.39783150  0.58999034  0.01937652  1
  Zn  Zn91  1  0.29578860  0.54614252  0.55248913  1
  Zn  Zn92  1  0.81447642  0.05766144  0.06051559  1
  Zn  Zn93  1  0.80891003  0.06968750  0.56751767  1
  Zn  Zn94  1  0.81570166  0.56568125  0.05564899  1
  Zn  Zn95  1  0.79684389  0.57038998  0.56724086  1
  Zn  Zn96  1  0.45985942  0.33309831  0.22297912  1
  Zn  Zn97  1  0.43472986  0.45787923  0.69475547  1
  Zn  Zn98  1  0.48003122  0.90919562  0.15585648  1
  Zn  Zn99  1  0.43615512  0.84685080  0.66189642  1
  Zn  Zn100  1  0.94269366  0.44704483  0.18301355  1
  Zn  Zn101  1  0.92286025  0.43246113  0.69797482  1
  Zn  Zn102  1  1.00334474  0.94746445  0.22752515  1
  Zn  Zn103  1  0.94712290  0.94937138  0.69323604  1
  Zn  Zn104  1  0.05833212  0.08287096  0.31650513  1
  Zn  Zn105  1  0.06860942  0.07334115  0.81288590  1
  Zn  Zn106  1  0.07456428  0.56652728  0.28168654  1
  Zn  Zn107  1  0.06888369  0.45003231  0.81278369  1
  Zn  Zn108  1  0.54887912  -0.01380410  0.31129584  1
  Zn  Zn109  1  0.56593665  0.07290880  0.79011633  1
  Zn  Zn110  1  0.54596038  0.47980030  0.30547484  1
  Zn  Zn111  1  0.56111790  0.56312184  0.82334954  1
  Zn  Zn112  1  0.52452564  0.12494194  0.41873244  1
  Zn  Zn113  1  0.43277867  0.19558831  0.94119253  1
  Zn  Zn114  1  0.45918849  0.64104403  0.36945094  1
  Zn  Zn115  1  0.41974399  0.71621920  0.91295405  1
  Zn  Zn116  1  0.92940809  0.18531508  0.44108064  1
  Zn  Zn117  1  0.93967552  0.18901031  0.93902136  1
  Zn  Zn118  1  0.90125431  0.65967742  0.44111137  1
  Zn  Zn119  1  1.02277652  0.64309877  0.89836125  1
  Zn  Zn120  1  0.06636950  0.31705230  0.05693768  1
  Zn  Zn121  1  0.05486315  0.33543291  0.56479152  1
  Zn  Zn122  1  0.02516053  0.79408161  0.02297783  1
  Zn  Zn123  1  0.05122357  0.90775194  0.55483842  1
  Zn  Zn124  1  0.55954157  0.29485457  0.06597916  1
  Zn  Zn125  1  0.54777980  0.34183134  0.57678517  1
  Zn  Zn126  1  0.53713733  0.77481620  0.03004697  1
  Zn  Zn127  1  0.56199157  0.69722270  0.57439486  1
  O  O128  1  0.11948551  0.14088148  0.11067126  1
  O  O129  1  0.13428056  0.12747303  0.61332889  1
  O  O130  1  0.12357000  0.63404532  0.13873820  1
  O  O131  1  0.18410616  0.67334928  0.60934007  1
  O  O132  1  0.61522460  0.12438318  0.10252947  1
  O  O133  1  0.58645454  0.10673174  0.67073840  1
  O  O134  1  0.65130717  0.63907746  0.08094113  1
  O  O135  1  0.62466905  0.61881056  0.63794692  1
  O  O136  1  0.32997388  0.37440064  0.39887692  1
  O  O137  1  0.38461141  0.37016263  0.89896658  1
  O  O138  1  0.38172173  0.89819389  0.35798793  1
  O  O139  1  0.37178733  0.90340246  0.87576822  1
  O  O140  1  0.85040738  0.37275434  0.40041651  1
  O  O141  1  0.87546235  0.36614954  0.89315526  1
  O  O142  1  0.86355751  0.90292150  0.39058005  1
  O  O143  1  0.89377023  0.89505319  0.86736460  1
  O  O144  1  0.24738390  -0.00919347  0.34378413  1
  O  O145  1  0.24242494  0.02531656  0.86372298  1
  O  O146  1  0.22491347  0.51681950  0.36167183  1
  O  O147  1  0.24541681  0.52425045  0.88101732  1
  O  O148  1  0.76872840  0.01237814  0.36146397  1
  O  O149  1  0.77044676  0.00936759  0.87258464  1
  O  O150  1  0.72779935  0.47783975  0.38067328  1
  O  O151  1  0.74692151  0.52680113  0.91152584  1
  O  O152  1  0.24969517  0.52101334  0.12138764  1
  O  O153  1  0.24895484  0.50442413  0.64662229  1
  O  O154  1  0.23833308  1.01051294  0.15021823  1
  O  O155  1  0.24510716  1.01514798  0.64675725  1
  O  O156  1  0.74937840  0.48330759  0.11103809  1
  O  O157  1  0.72494918  0.50107367  0.62184494  1
  O  O158  1  0.75472625  1.01093381  0.14018182  1
  O  O159  1  0.75720054  1.00235171  0.64903465  1
  O  O160  1  -0.00145618  0.36234026  0.23896957  1
  O  O161  1  -0.00680865  0.38211892  0.76754175  1
  O  O162  1  -0.02786351  0.86020339  0.28940078  1
  O  O163  1  0.01160598  0.87363968  0.76206825  1
  O  O164  1  0.47809160  0.38380404  0.33404630  1
  O  O165  1  0.48803535  0.37002190  0.77035043  1
  O  O166  1  0.50571438  0.89240285  0.26140923  1
  O  O167  1  0.51464312  0.89483360  0.73345209  1
  O  O168  1  0.51505676  0.09982657  0.23731804  1
  O  O169  1  0.47550309  0.14877102  0.75623755  1
  O  O170  1  0.47282871  0.57388998  0.22707913  1
  O  O171  1  0.48879792  0.62731005  0.75945826  1
  O  O172  1  0.98370549  0.15053242  0.25505542  1
  O  O173  1  0.98935232  0.12846451  0.75110806  1
  O  O174  1  0.99437930  0.62330809  0.22613965  1
  O  O175  1  1.03666831  0.64374121  0.68691741  1
  O  O176  1  0.37899751  0.25698454  0.01709436  1
  O  O177  1  0.36450211  0.27682060  0.52510185  1
  O  O178  1  0.37039302  0.78527169  -0.00634144  1
  O  O179  1  0.40775030  0.73771575  0.39653098  1
  O  O180  1  0.87086775  0.25245249  0.00842154  1
  O  O181  1  0.87296798  0.23558413  0.52306479  1
  O  O182  1  0.82024595  0.79138592  -0.02637088  1
  O  O183  1  0.79423899  0.67015021  0.50713770  1
  O  O184  1  0.12292437  0.27782523  0.49266541  1
  O  O185  1  0.11656724  0.23937647  0.98770277  1
  O  O186  1  0.23330112  0.80128028  0.52125567  1
  O  O187  1  0.13781489  0.78821597  1.00411695  1
  O  O188  1  0.60755980  0.31852802  0.47960174  1
  O  O189  1  0.63624928  0.23703625  0.98892824  1
  O  O190  1  0.64164985  0.74618098  0.50987232  1
  O  O191  1  0.63319793  0.76425086  0.97896793  1
  O  O192  1  0.49433780  0.22778360  0.12972025  1
  O  O193  1  0.48679966  0.26812932  0.64639523  1
  O  O194  1  0.48281435  0.78399055  0.12334433  1
  O  O195  1  0.49947846  0.75145904  0.65177833  1
  O  O196  1  0.98326846  0.25207027  0.12039477  1
  O  O197  1  0.99303058  0.25401599  0.62603237  1
  O  O198  1  0.99862693  0.73345465  0.10909331  1
  O  O199  1  1.13110379  0.68697554  0.56162330  1
  O  O200  1  -0.02262199  0.26918663  0.37011926  1
  O  O201  1  0.00832014  0.25355918  0.87658819  1
  O  O202  1  -0.02293779  0.73697172  0.39536616  1
  O  O203  1  0.00554032  0.77425836  0.89999400  1
  O  O204  1  0.49760399  0.23340829  0.38670948  1
  O  O205  1  0.50400402  0.26000890  0.87037835  1
  O  O206  1  0.51922677  0.72342374  0.32430652  1
  O  O207  1  0.51313023  0.75283620  0.86216095  1
  O  O208  1  0.25995266  0.14042263  0.49676245  1
  O  O209  1  0.23417813  0.11986916  0.99181407  1
  O  O210  1  0.25210181  0.60402063  0.46323006  1
  O  O211  1  0.22206700  0.64055038  1.00464462  1
  O  O212  1  0.74291107  0.11302313  0.48640625  1
  O  O213  1  0.74970027  0.13031523  0.98689903  1
  O  O214  1  0.67348200  0.63738602  0.39377193  1
  O  O215  1  0.74499060  0.58688037  0.96146629  1
  O  O216  1  0.27203445  0.37830608  0.00964662  1
  O  O217  1  0.25787534  0.40969123  0.52720796  1
  O  O218  1  0.25720810  0.88993271  -0.01259800  1
  O  O219  1  0.26551009  0.84190539  0.47056922  1
  O  O220  1  0.76164646  0.36539214  0.00335907  1
  O  O221  1  0.76191699  0.37655561  0.53212696  1
  O  O222  1  0.76005291  0.90239963  0.01722639  1
  O  O223  1  0.75087424  0.88365854  0.53118730  1
  O  O224  1  0.11564885  0.47285137  0.23627218  1
  O  O225  1  0.14635699  0.51551216  0.76019646  1
  O  O226  1  0.10696548  0.99919406  0.25476394  1
  O  O227  1  0.13543357  1.01682159  0.73872784  1
  O  O228  1  0.55400342  0.39595605  0.20719904  1
  O  O229  1  0.61979873  0.50297875  0.74791814  1
  O  O230  1  0.64830786  0.98848754  0.25464699  1
  O  O231  1  0.64697668  0.98799695  0.77220362  1
  O  O232  1  0.36235910  0.08774090  0.30840027  1
  O  O233  1  0.35441985  0.02256147  0.76493298  1
  O  O234  1  0.28870757  0.47839063  0.16560988  1
  O  O235  1  0.35795569  0.50439581  0.76037063  1
  O  O236  1  0.89076127  0.01856350  0.24369340  1
  O  O237  1  0.87244671  0.01861052  0.76171016  1
  O  O238  1  0.89279688  0.51677163  0.25368980  1
  O  O239  1  0.87473250  0.51169381  0.77027460  1
  O  O240  1  0.12354994  0.36780678  0.36404163  1
  O  O241  1  0.13100700  0.36716261  0.88188778  1
  O  O242  1  0.10744774  0.85339428  0.39107744  1
  O  O243  1  0.11313574  0.89360889  0.86248692  1
  O  O244  1  0.62539200  0.35480343  0.34079563  1
  O  O245  1  0.61720689  0.36323805  0.88616636  1
  O  O246  1  0.62098158  0.92872680  0.40604015  1
  O  O247  1  0.63262537  0.86364502  0.85944358  1
  O  O248  1  0.39169027  0.12495012  0.11652920  1
  O  O249  1  0.37803937  0.16038322  0.64050532  1
  O  O250  1  0.36418222  0.65890955  0.10931318  1
  O  O251  1  0.34857574  0.64733443  0.60947521  1
  O  O252  1  0.87224067  0.13765002  0.13516442  1
  O  O253  1  0.87019974  0.13530671  0.64283606  1
  O  O254  1  0.87283471  0.62785196  0.12593028  1
  O  O255  1  0.87195911  0.61862434  0.65281252  1
  O  O256  1  0.27060922  0.22470072  0.12991164  1
  O  O257  1  0.25614828  0.27561421  0.64142572  1
  O  O258  1  0.26148321  0.76763393  0.09890882  1
  O  O259  1  0.35238162  0.71244221  0.57579131  1
  O  O260  1  0.76071810  0.24228790  0.10886774  1
  O  O261  1  0.73330020  0.25661330  0.63666358  1
  O  O262  1  0.74935705  0.76525138  0.13497661  1
  O  O263  1  0.76444911  0.76664713  0.64854666  1
  O  O264  1  0.22789804  0.24312255  0.37707115  1
  O  O265  1  0.24467239  0.24373830  0.87884638  1
  O  O266  1  0.26423904  0.71780357  0.38616200  1
  O  O267  1  0.25459772  0.75048927  0.89500898  1
  O  O268  1  0.74770622  0.22262966  0.36662694  1
  O  O269  1  0.74507785  0.24622949  0.87943294  1
  O  O270  1  0.75220553  0.78749038  0.39071004  1
  O  O271  1  0.73272135  0.74280614  0.85496585  1
  O  O272  1  0.00778294  0.11666004  0.00043415  1
  O  O273  1  0.03549014  0.13971006  0.46589705  1
  O  O274  1  0.01792250  0.61318653  0.01080704  1
  O  O275  1  -0.02501229  0.63238429  0.52607935  1
  O  O276  1  0.51468493  0.12571423  -0.01571172  1
  O  O277  1  0.51041309  0.14377191  0.53168248  1
  O  O278  1  0.50417693  0.64385368  0.00859147  1
  O  O279  1  0.49564217  0.62075758  0.51927571  1
  O  O280  1  0.47360027  0.37676661  0.48698436  1
  O  O281  1  0.50013674  0.36514457  0.99463937  1
  O  O282  1  0.57336145  0.89263587  0.46497959  1
  O  O283  1  0.49113361  0.88503984  0.99112729  1
  O  O284  1  0.96917571  0.37885102  0.50692907  1
  O  O285  1  0.99093632  0.38882610  1.00907562  1
  O  O286  1  0.98019065  0.86960239  0.48286296  1
  O  O287  1  1.00589142  0.90187047  0.98355954  1
  O  O288  1  0.49304678  0.53575604  0.39364353  1
  O  O289  1  0.50204468  0.48123720  0.87826042  1
  O  O290  1  0.46953069  1.02782716  0.38636958  1
  O  O291  1  0.48374872  1.02010735  0.85870496  1
  O  O292  1  1.02000671  0.52760854  0.38975419  1
  O  O293  1  1.02005102  0.51484985  0.89980836  1
  O  O294  1  0.98598374  1.00672344  0.37143340  1
  O  O295  1  0.99355594  1.00497170  0.87142262  1
  O  O296  1  -0.00335554  -0.01379724  0.11625205  1
  O  O297  1  0.02737093  0.00178048  0.62792358  1
  O  O298  1  -0.00176457  0.51504811  0.10910454  1
  O  O299  1  -0.01354641  0.49838170  0.62583785  1
  O  O300  1  0.50093092  0.01269560  0.11127013  1
  O  O301  1  0.45135135  0.02578793  0.62193934  1
  O  O302  1  0.43071554  0.53335428  0.18256232  1
  O  O303  1  0.51594693  0.48735398  0.62111305  1
  O  O304  1  0.23301746  0.36391493  0.25648501  1
  O  O305  1  0.24654610  0.39172506  0.75061456  1
  O  O306  1  0.34260950  1.04575345  0.24753781  1
  O  O307  1  0.23425547  0.89692999  0.76519618  1
  O  O308  1  0.74570118  0.36669710  0.23051520  1
  O  O309  1  0.76294486  0.38054941  0.73458105  1
  O  O310  1  0.77913559  0.89364005  0.24967939  1
  O  O311  1  0.77150392  0.89260358  0.76168459  1
  O  O312  1  0.19999026  0.12816358  0.25695799  1
  O  O313  1  0.25249300  0.13462360  0.76154446  1
  O  O314  1  0.25151960  0.63563638  0.25424226  1
  O  O315  1  0.25531069  0.62823667  0.76490991  1
  O  O316  1  0.76537772  0.11438514  0.25353317  1
  O  O317  1  0.74950889  0.11735328  0.76267348  1
  O  O318  1  0.76227062  0.59508558  0.23495075  1
  O  O319  1  0.75230767  0.61820107  0.76244318  1
  O  O320  1  0.31815575  0.14712982  0.45507160  1
  O  O321  1  0.35842520  0.12860743  0.87564169  1
  O  O322  1  0.34948770  0.59574949  0.34215697  1
  O  O323  1  0.35060996  0.62900384  0.91803341  1
  O  O324  1  0.87230335  0.12008343  0.36211405  1
  O  O325  1  0.87071300  0.12559039  0.86516222  1
  O  O326  1  0.82747217  0.60479598  0.36818061  1
  O  O327  1  0.90730032  0.65166763  0.84723685  1
  O  O328  1  0.13075700  0.32927908  0.14763401  1
  O  O329  1  0.13645113  0.38286061  0.62955396  1
  O  O330  1  0.21156178  0.85136403  0.24421571  1
  O  O331  1  0.12083185  0.87361870  0.64488646  1
  O  O332  1  0.65288557  0.35437941  0.11210546  1
  O  O333  1  0.63384002  0.38543546  0.63782070  1
  O  O334  1  0.68357121  0.78713329  0.16235918  1
  O  O335  1  0.65608855  0.87631442  0.66033655  1
  O  O336  1  0.09866157  0.25389193  0.27641232  1
  O  O337  1  0.12257323  0.25192523  0.76831413  1
  O  O338  1  0.15095368  0.81818391  0.22221142  1
  O  O339  1  0.13844123  0.76318772  0.75515115  1
  O  O340  1  0.62811091  0.24271941  0.23016923  1
  O  O341  1  0.60401487  0.24881774  0.76189743  1
  O  O342  1  0.64877029  0.74040321  0.21585924  1
  O  O343  1  0.60881182  0.75868786  0.75874306  1
  O  O344  1  0.38240730  0.25205314  0.23714264  1
  O  O345  1  0.37703258  0.25884744  0.75530075  1
  O  O346  1  0.36690580  0.77575972  0.22277162  1
  O  O347  1  0.39292882  0.76269612  0.76609860  1
  O  O348  1  0.87643263  0.25174945  0.23754019  1
  O  O349  1  0.87277358  0.23982632  0.74340636  1
  O  O350  1  0.87019502  0.71440480  0.26316348  1
  O  O351  1  0.89532303  0.71532049  0.78933953  1
  O  O352  1  0.39038277  0.49170471  0.51386943  1
  O  O353  1  0.39336666  0.47855561  1.02886660  1
  O  O354  1  0.33705426  0.99290306  0.47828426  1
  O  O355  1  0.37068470  1.00558722  0.98205907  1
  O  O356  1  0.86197371  0.49912485  0.50463883  1
  O  O357  1  0.87607389  0.48586405  0.99652442  1
  O  O358  1  0.88583590  1.02679745  0.49484303  1
  O  O359  1  0.89216015  1.01648501  0.98599184  1
  O  O360  1  0.11155003  0.01883551  0.00073320  1
  O  O361  1  0.14376267  -0.01541684  0.52262879  1
  O  O362  1  0.12503157  0.48090728  0.01786643  1
  O  O363  1  0.05763815  0.50512886  0.44881450  1
  O  O364  1  0.63136987  0.01494182  -0.01845452  1
  O  O365  1  0.55993279  -0.06617773  0.52423086  1
  O  O366  1  0.60348128  0.50774533  0.00137168  1
  O  O367  1  0.60205944  0.49435648  0.50243049  1
  O  O368  1  0.38708948  0.35215080  0.12408226  1
  O  O369  1  0.36644995  0.37811840  0.63421065  1
  O  O370  1  0.37407446  0.89120848  0.10015086  1
  O  O371  1  0.33988497  0.87467347  0.62772713  1
  O  O372  1  0.86437253  0.36339310  0.11490369  1
  O  O373  1  0.86694125  0.35573358  0.62536930  1
  O  O374  1  0.82290846  0.85265345  0.01849575  1
  O  O375  1  0.87187592  0.88807913  0.63737996  1
  O  O376  1  0.08818326  0.15319833  0.40451038  1
  O  O377  1  0.13209228  0.14090710  0.88026924  1
  O  O378  1  0.14495158  0.63544212  0.34650314  1
  O  O379  1  0.13608143  0.64501943  0.87156064  1
  O  O380  1  0.63001175  0.10952691  0.37432185  1
  O  O381  1  0.63369372  0.13631026  0.87632095  1
  O  O382  1  0.63128645  0.54600169  0.27415753  1
  O  O383  1  0.61626284  0.63677511  0.89223775  1
