# generated using pymatgen
data_VZnO4
_symmetry_space_group_name_H-M   'P 1'
_cell_length_a   17.00275529
_cell_length_b   16.92299538
_cell_length_c   16.98355203
_cell_angle_alpha   90.06229686
_cell_angle_beta   90.23709362
_cell_angle_gamma   89.43300888
_symmetry_Int_Tables_number   1
_chemical_formula_structural   VZnO4
_chemical_formula_sum   'V64 Zn64 O256'
_cell_volume   4886.52185147
_cell_formula_units_Z   64
loop_
 _symmetry_equiv_pos_site_id
 _symmetry_equiv_pos_as_xyz
  1  'x, y, z'
loop_
 _atom_site_type_symbol
 _atom_site_label
 _atom_site_symmetry_multiplicity
 _atom_site_fract_x
 _atom_site_fract_y
 _atom_site_fract_z
 _atom_site_occupancy
  V  V0  1  0.73981751  0.24680022  0.00672529  1
  V  V1  1  0.12484843  0.11736534  0.00193965  1
  V  V2  1  0.72988423  -0.00280349  0.24809085  1
  V  V3  1  0.61483095  0.39213086  0.24842276  1
  V  V4  1  0.87365519  0.25167679  0.11968550  1
  V  V5  1  0.11375411  0.73706028  0.87405200  1
  V  V6  1  0.61330480  0.88103718  0.71754260  1
  V  V7  1  0.51417699  0.72989048  0.75455387  1
  V  V8  1  0.74773561  0.73920797  -0.03194692  1
  V  V9  1  0.11760287  0.46645548  0.60137256  1
  V  V10  1  0.86985518  0.86486162  -0.01649031  1
  V  V11  1  0.47397848  0.51623770  -0.01182816  1
  V  V12  1  0.63667343  0.60485080  0.00279250  1
  V  V13  1  -0.02050087  -0.00750976  -0.01333063  1
  V  V14  1  0.87259270  -0.01386720  0.38936314  1
  V  V15  1  0.34954159  0.60905930  0.75313852  1
  V  V16  1  0.26111540  0.01582821  0.77586861  1
  V  V17  1  0.24887088  0.44814080  0.76902669  1
  V  V18  1  0.62203570  0.49806238  0.63554022  1
  V  V19  1  0.27333121  0.87080338  0.14305926  1
  V  V20  1  -0.00714409  0.75897549  0.24712863  1
  V  V21  1  0.61723101  0.00601008  0.10535866  1
  V  V22  1  0.13048915  0.88642691  0.76410887  1
  V  V23  1  0.92683978  0.81711454  0.56845435  1
  V  V24  1  0.10261791  0.63062761  0.51005381  1
  V  V25  1  0.12775703  0.24791264  0.88628066  1
  V  V26  1  0.23872817  0.54329868  0.21795632  1
  V  V27  1  0.88361331  0.62864872  0.72723379  1
  V  V28  1  -0.00559967  0.23168478  0.27515006  1
  V  V29  1  0.63119315  0.61980301  0.50803351  1
  V  V30  1  0.11770447  0.76480209  0.38324138  1
  V  V31  1  0.12194325  0.38761930  0.25064925  1
  V  V32  1  -0.01034459  0.12048388  0.62716484  1
  V  V33  1  -0.01316703  0.11151342  0.12566888  1
  V  V34  1  0.38566855  0.88996162  0.51454775  1
  V  V35  1  0.49836229  0.50022984  0.49659004  1
  V  V36  1  0.76605449  0.60844478  0.37924327  1
  V  V37  1  0.74436978  0.10879745  0.88063495  1
  V  V38  1  0.86557232  0.10819597  0.25272541  1
  V  V39  1  0.51803292  0.14321389  0.61194752  1
  V  V40  1  0.35229111  0.03624830  0.31530611  1
  V  V41  1  0.31813260  0.36663042  0.48241628  1
  V  V42  1  0.74073144  0.13308408  0.38592244  1
  V  V43  1  0.51623899  0.75837575  0.24778856  1
  V  V44  1  0.62856884  0.75233391  0.37680090  1
  V  V45  1  0.75387232  0.76086890  0.51508862  1
  V  V46  1  -0.01783031  0.36767569  0.88757440  1
  V  V47  1  0.38988337  0.64693220  0.24230383  1
  V  V48  1  0.25487719  0.63195976  0.39322612  1
  V  V49  1  0.29707534  0.79173951  -0.06171673  1
  V  V50  1  0.76573689  0.39454869  0.13202711  1
  V  V51  1  0.88560447  0.61259685  0.24829605  1
  V  V52  1  0.37628641  0.73037963  0.62209921  1
  V  V53  1  0.11394784  -0.02451579  0.13480230  1
  V  V54  1  -0.02293029  0.24570356  0.75198425  1
  V  V55  1  0.48779229  0.27008345  0.75404364  1
  V  V56  1  0.75881766  0.50035616  0.74876199  1
  V  V57  1  0.88481234  0.50731537  0.87963575  1
  V  V58  1  0.75474376  0.36896834  0.61438035  1
  V  V59  1  0.61003982  0.25848711  0.38303454  1
  V  V60  1  0.74879285  -0.00447530  0.73334175  1
  V  V61  1  0.13518550  0.00033721  0.62110987  1
  V  V62  1  0.75011359  0.85887763  0.13613438  1
  V  V63  1  -0.01130040  0.76796049  0.74723150  1
  Zn  Zn64  1  0.14330804  0.22621606  0.15787519  1
  Zn  Zn65  1  0.15693310  0.15844675  0.72115303  1
  Zn  Zn66  1  0.21062001  0.74043531  0.22468660  1
  Zn  Zn67  1  0.18727972  0.69613593  0.68759421  1
  Zn  Zn68  1  0.59474921  0.18267652  0.19703762  1
  Zn  Zn69  1  0.68659909  0.18963523  0.68427186  1
  Zn  Zn70  1  0.69439560  0.66639838  0.19314779  1
  Zn  Zn71  1  0.69181029  0.68681885  0.69568203  1
  Zn  Zn72  1  0.38366820  0.51019504  0.36507794  1
  Zn  Zn73  1  0.29302731  0.24224165  0.79332618  1
  Zn  Zn74  1  0.34436335  0.84425526  0.32697602  1
  Zn  Zn75  1  0.31105295  0.80281998  0.76613223  1
  Zn  Zn76  1  0.75436382  0.26377897  0.25539594  1
  Zn  Zn77  1  0.80626524  0.31300975  0.81510508  1
  Zn  Zn78  1  0.80768253  0.80359043  0.31795363  1
  Zn  Zn79  1  0.80478393  0.81934805  0.79619666  1
  Zn  Zn80  1  0.16139878  0.45933675  0.40661781  1
  Zn  Zn81  1  0.15295732  0.45650317  0.89891425  1
  Zn  Zn82  1  0.21743508  0.93631443  0.43426607  1
  Zn  Zn83  1  0.17973876  0.93732554  0.94471071  1
  Zn  Zn84  1  0.68904789  0.42983583  0.43530733  1
  Zn  Zn85  1  0.71535096  0.43422508  0.93578852  1
  Zn  Zn86  1  0.69649866  0.93266290  0.43230713  1
  Zn  Zn87  1  0.68605638  0.92973320  0.94579887  1
  Zn  Zn88  1  0.28350334  0.07206622  0.11742390  1
  Zn  Zn89  1  0.31843502  0.05981242  0.59105170  1
  Zn  Zn90  1  0.32526748  0.62335955  0.05368157  1
  Zn  Zn91  1  0.30298390  0.53511114  0.57594840  1
  Zn  Zn92  1  0.79971341  0.05810192  0.06269565  1
  Zn  Zn93  1  0.80606592  0.06547292  0.56382253  1
  Zn  Zn94  1  0.82884373  0.57563732  0.06196359  1
  Zn  Zn95  1  0.81389411  0.55431495  0.56212867  1
  Zn  Zn96  1  0.43728815  0.45968408  0.19372825  1
  Zn  Zn97  1  0.40468066  0.41530428  0.66616494  1
  Zn  Zn98  1  0.45747948  0.93168257  0.19793100  1
  Zn  Zn99  1  0.43189621  0.93269752  0.69698281  1
  Zn  Zn100  1  0.89406229  0.39974039  0.27262003  1
  Zn  Zn101  1  0.95158245  0.43356812  0.69637102  1
  Zn  Zn102  1  0.92522449  0.92555195  0.18101748  1
  Zn  Zn103  1  0.93586858  0.95494722  0.68916152  1
  Zn  Zn104  1  0.05512703  -0.06179756  0.32622501  1
  Zn  Zn105  1  0.05027026  0.06401874  0.81822357  1
  Zn  Zn106  1  0.07514633  0.57811594  0.30405218  1
  Zn  Zn107  1  0.06591978  0.56084949  0.76954599  1
  Zn  Zn108  1  0.52573850  0.10767837  0.33542944  1
  Zn  Zn109  1  0.59581342  0.08738614  0.79179849  1
  Zn  Zn110  1  0.57161311  0.56894370  0.32068380  1
  Zn  Zn111  1  0.57266020  0.55177210  0.82681291  1
  Zn  Zn112  1  0.41879613  0.19529876  0.44095725  1
  Zn  Zn113  1  0.61791225  0.26816732  0.86877891  1
  Zn  Zn114  1  0.44337492  0.68464935  0.44099207  1
  Zn  Zn115  1  0.44596613  0.67677587  0.92351678  1
  Zn  Zn116  1  1.01464434  0.10626566  0.42429900  1
  Zn  Zn117  1  0.92276458  0.17794076  0.93488661  1
  Zn  Zn118  1  0.93780978  0.69420897  0.43129557  1
  Zn  Zn119  1  0.93704888  0.68705653  0.92483084  1
  Zn  Zn120  1  0.04350751  0.31394999  0.06331460  1
  Zn  Zn121  1  0.05206750  0.27058077  0.54639552  1
  Zn  Zn122  1  0.04656057  0.80116776  0.05907086  1
  Zn  Zn123  1  0.08903281  0.82027225  0.56923400  1
  Zn  Zn124  1  0.60429090  0.37394140  0.03274504  1
  Zn  Zn125  1  0.56312776  0.32075550  0.56890916  1
  Zn  Zn126  1  0.58794556  0.79408105  0.07281184  1
  Zn  Zn127  1  0.54940992  0.80300956  0.55874614  1
  O  O128  1  0.10269306  0.11265202  0.11541236  1
  O  O129  1  0.11708480  0.10786514  0.63169989  1
  O  O130  1  0.14412632  0.65037861  0.07414875  1
  O  O131  1  0.13129363  0.63969462  0.60800148  1
  O  O132  1  0.62945535  0.10517788  0.12343113  1
  O  O133  1  0.61864942  0.12983665  0.61160459  1
  O  O134  1  0.63795484  0.63088824  0.10475458  1
  O  O135  1  0.64445551  0.61226793  0.61402195  1
  O  O136  1  0.36273497  0.40792859  0.40291929  1
  O  O137  1  0.37065588  0.33832126  0.93942688  1
  O  O138  1  0.40326662  0.94603007  0.29975808  1
  O  O139  1  0.35584884  0.83399611  0.87014727  1
  O  O140  1  0.89643215  0.40003024  0.40104511  1
  O  O141  1  0.87846263  0.38566014  0.87238414  1
  O  O142  1  0.86139448  0.88834260  0.37333267  1
  O  O143  1  0.86151569  0.87359521  0.88547928  1
  O  O144  1  0.27402686  0.01220335  0.37176726  1
  O  O145  1  0.24027289  0.00454013  0.87326017  1
  O  O146  1  0.23770277  0.53633156  0.34846525  1
  O  O147  1  0.26717415  0.44951575  0.86863217  1
  O  O148  1  0.74942810  0.00624270  0.36352143  1
  O  O149  1  0.73730828  0.00610827  0.87937830  1
  O  O150  1  0.75626074  0.50947118  0.38669084  1
  O  O151  1  0.77152371  0.49495243  0.85706483  1
  O  O152  1  0.27048711  0.54896828  0.12341546  1
  O  O153  1  0.21005627  0.48839107  0.64032875  1
  O  O154  1  0.22373869  0.97281791  0.11981501  1
  O  O155  1  0.23706867  1.00939994  0.65672837  1
  O  O156  1  0.77936248  0.49073590  0.12252689  1
  O  O157  1  0.74532006  0.49336951  0.63383394  1
  O  O158  1  0.73896789  0.99272988  0.13689943  1
  O  O159  1  0.74289890  1.00478483  0.63467441  1
  O  O160  1  -0.00612234  0.33725728  0.26798542  1
  O  O161  1  -0.00466935  0.35112697  0.76336674  1
  O  O162  1  -0.01011494  0.86612071  0.25648347  1
  O  O163  1  -0.00390698  0.87080914  0.75025366  1
  O  O164  1  0.51646982  0.38713804  0.23481471  1
  O  O165  1  0.48625592  0.37053406  0.72359210  1
  O  O166  1  0.52453899  0.85604245  0.25957483  1
  O  O167  1  0.51268611  0.86783648  0.74617917  1
  O  O168  1  0.50405398  0.12943087  0.22965885  1
  O  O169  1  0.52488571  0.15622489  0.73800655  1
  O  O170  1  0.49300272  0.63268928  0.26522739  1
  O  O171  1  0.53343278  0.63136354  0.74879298  1
  O  O172  1  0.97355171  0.11313620  0.23986018  1
  O  O173  1  0.99737209  0.13208545  0.74466288  1
  O  O174  1  0.98847055  0.64157331  0.26966388  1
  O  O175  1  0.98885814  0.64261921  0.73793545  1
  O  O176  1  0.45232967  0.24050586  0.03698278  1
  O  O177  1  0.34614484  0.26815916  0.48225571  1
  O  O178  1  0.35320411  0.71379924  -0.01566334  1
  O  O179  1  0.37622519  0.73406165  0.52146475  1
  O  O180  1  0.86593127  0.23862126  0.01675644  1
  O  O181  1  0.92521591  0.34012760  0.44101131  1
  O  O182  1  0.86747686  0.75454318  -0.01022138  1
  O  O183  1  0.86633565  0.75562884  0.50306174  1
  O  O184  1  0.16336054  0.22314167  0.50195544  1
  O  O185  1  0.10744477  0.22811316  1.00239605  1
  O  O186  1  0.12541502  0.74481130  0.49390945  1
  O  O187  1  0.09587672  0.75269855  0.97181189  1
  O  O188  1  0.62445525  0.27120829  0.48079740  1
  O  O189  1  0.64324392  0.25545458  1.02869943  1
  O  O190  1  0.63737069  0.73732150  0.49911777  1
  O  O191  1  0.64709338  0.74301444  0.99118758  1
  O  O192  1  0.49027504  0.19072706  0.07372256  1
  O  O193  1  0.50091565  0.24799114  0.62603415  1
  O  O194  1  0.51879965  0.75065095  0.14757005  1
  O  O195  1  0.48498408  0.74522799  0.63610771  1
  O  O196  1  0.98350075  0.22634777  0.12539260  1
  O  O197  1  1.00170917  0.23766008  0.64784623  1
  O  O198  1  1.00179089  0.74932688  0.14796344  1
  O  O199  1  0.99447960  0.76418247  0.63344284  1
  O  O200  1  -0.01002117  0.20751669  0.37141796  1
  O  O201  1  -0.01464907  0.25322247  0.87351830  1
  O  O202  1  0.01287812  0.76029078  0.37816388  1
  O  O203  1  0.00023639  0.75263675  0.85311488  1
  O  O204  1  0.51163746  0.24602844  0.37440507  1
  O  O205  1  0.49957528  0.27199723  0.85412086  1
  O  O206  1  0.52568723  0.73970632  0.38201712  1
  O  O207  1  0.50408794  0.74390155  0.85386635  1
  O  O208  1  0.26236831  0.13731505  0.52001667  1
  O  O209  1  0.22170751  0.10777169  1.01855339  1
  O  O210  1  0.24995429  0.60998069  0.49171135  1
  O  O211  1  0.19402284  0.64123998  1.02265778  1
  O  O212  1  0.74752327  0.12357102  0.48411105  1
  O  O213  1  0.74890700  0.13522041  0.99333626  1
  O  O214  1  0.75218248  0.62785152  0.49581333  1
  O  O215  1  0.75517437  0.63682433  0.99859936  1
  O  O216  1  0.33096445  0.33818854  -0.00072159  1
  O  O217  1  0.21846849  0.38257974  0.46572596  1
  O  O218  1  0.25476355  0.86582418  -0.00295810  1
  O  O219  1  0.31426025  0.86318879  0.43883120  1
  O  O220  1  0.75912861  0.36297815  0.02652610  1
  O  O221  1  0.75225484  0.37801891  0.51491467  1
  O  O222  1  0.75547924  0.85341541  0.00027301  1
  O  O223  1  0.74297964  0.85992237  0.50585862  1
  O  O224  1  0.14796276  0.58706950  0.21401172  1
  O  O225  1  0.14838459  0.48349405  0.78426089  1
  O  O226  1  0.10709908  0.98732467  0.23274588  1
  O  O227  1  0.12467078  0.99594347  0.75850717  1
  O  O228  1  0.63118928  0.49090218  0.26135831  1
  O  O229  1  0.64613892  0.50771570  0.74353444  1
  O  O230  1  0.63356835  0.99666145  0.25224872  1
  O  O231  1  0.62063779  0.98361732  0.75006313  1
  O  O232  1  0.32251140  0.06810172  0.22362620  1
  O  O233  1  0.35719850  -0.01111524  0.76473754  1
  O  O234  1  0.36981311  0.52897508  0.24946305  1
  O  O235  1  0.34144228  0.49842896  0.73056498  1
  O  O236  1  0.86348879  0.00087446  0.25070527  1
  O  O237  1  0.84720323  -0.01384564  0.75283913  1
  O  O238  1  0.89800111  0.51352361  0.25980316  1
  O  O239  1  0.87542794  0.51318316  0.74453212  1
  O  O240  1  0.16261686  0.32333391  0.30869340  1
  O  O241  1  0.10203108  0.35213557  0.89512338  1
  O  O242  1  0.13169401  0.87019373  0.38643033  1
  O  O243  1  0.11599816  0.87103389  0.86517742  1
  O  O244  1  0.63248197  0.36733551  0.35834659  1
  O  O245  1  0.62418055  0.37141837  0.91860869  1
  O  O246  1  0.63706679  0.85158166  0.37815718  1
  O  O247  1  0.57431466  0.87761581  0.91464184  1
  O  O248  1  0.30547149  0.19606914  0.13446057  1
  O  O249  1  0.41431100  0.09652402  0.65313970  1
  O  O250  1  0.39164830  0.65390928  0.14478429  1
  O  O251  1  0.36242383  0.62363752  0.63864586  1
  O  O252  1  0.87260462  0.11629237  0.13226531  1
  O  O253  1  0.89048026  0.11187463  0.62360719  1
  O  O254  1  0.87780912  0.62570418  0.14929118  1
  O  O255  1  0.87710530  0.62588173  0.62881632  1
  O  O256  1  0.25166730  0.24840750  0.11941276  1
  O  O257  1  0.21353056  0.19275478  0.55224670  1
  O  O258  1  0.24959445  0.77299713  0.12079496  1
  O  O259  1  0.27792517  0.76057071  0.65905300  1
  O  O260  1  0.76691433  0.24676979  0.12665222  1
  O  O261  1  0.75300960  0.27089708  0.63595178  1
  O  O262  1  0.74572135  0.75954984  0.14017031  1
  O  O263  1  0.74984488  0.74530897  0.61308773  1
  O  O264  1  0.20470834  0.16214551  0.36444421  1
  O  O265  1  0.22725069  0.24797209  0.88640948  1
  O  O266  1  0.22811314  0.73462267  0.37286154  1
  O  O267  1  0.22470173  0.75011296  0.87582347  1
  O  O268  1  0.75239236  0.23301700  0.36954464  1
  O  O269  1  0.74844153  0.26381969  0.90195636  1
  O  O270  1  0.74575150  0.73694348  0.39072316  1
  O  O271  1  0.75123271  0.74451976  0.86968394  1
  O  O272  1  -0.01529046  0.10473116  0.00787130  1
  O  O273  1  0.01087769  0.15267566  0.52778729  1
  O  O274  1  0.01769285  0.61452176  -0.00073028  1
  O  O275  1  0.00404183  0.63536078  0.50807348  1
  O  O276  1  0.37246215  0.13139936  -0.02783967  1
  O  O277  1  0.48903461  0.14030441  0.51505814  1
  O  O278  1  0.51774575  0.61405416  -0.00133968  1
  O  O279  1  0.52898605  0.62489163  0.50239065  1
  O  O280  1  0.50180118  0.40093203  0.51198858  1
  O  O281  1  0.49285497  0.41630651  1.04419655  1
  O  O282  1  0.48004727  0.86498087  0.48845607  1
  O  O283  1  0.52873632  0.85815779  0.96989730  1
  O  O284  1  0.99788622  0.35154751  0.47031718  1
  O  O285  1  0.98389074  0.37134966  0.98789566  1
  O  O286  1  0.99233629  0.86749656  0.51438276  1
  O  O287  1  0.97713845  0.87996625  1.00262153  1
  O  O288  1  0.50298959  0.50953804  0.39189514  1
  O  O289  1  0.50251445  0.49265611  0.89443197  1
  O  O290  1  0.54421536  1.01011275  0.43587980  1
  O  O291  1  0.43379634  0.97736727  0.92453562  1
  O  O292  1  1.08362890  0.46375578  0.31872400  1
  O  O293  1  0.99023499  0.47767971  0.85999801  1
  O  O294  1  0.97667482  1.00440869  0.38113949  1
  O  O295  1  0.98985615  0.99848562  0.88890637  1
  O  O296  1  -0.00309955  -0.00323721  0.11671829  1
  O  O297  1  0.01381775  0.01250327  0.62940382  1
  O  O298  1  0.03426940  0.53808919  -0.00742123  1
  O  O299  1  0.04017865  0.49951446  0.66364359  1
  O  O300  1  0.52065063  -0.01603244  0.12445499  1
  O  O301  1  0.47465364  0.03672425  0.64582530  1
  O  O302  1  0.49949275  0.48499921  0.09799863  1
  O  O303  1  0.52385246  0.50634774  0.62310688  1
  O  O304  1  0.21134330  0.44071040  0.22323903  1
  O  O305  1  0.25655005  0.35092562  0.74539853  1
  O  O306  1  0.26026609  0.86108509  0.24530870  1
  O  O307  1  0.23284471  0.89020601  0.76138388  1
  O  O308  1  0.78174666  0.37665705  0.23944338  1
  O  O309  1  0.76861043  0.39330635  0.73753689  1
  O  O310  1  0.75430589  0.88358838  0.24207260  1
  O  O311  1  0.72420220  0.88443151  0.75070124  1
  O  O312  1  0.16400376  0.10732695  0.33728560  1
  O  O313  1  0.25624408  0.12401994  0.76461292  1
  O  O314  1  0.27870319  0.64961060  0.25544574  1
  O  O315  1  0.25295813  0.63053534  0.76366225  1
  O  O316  1  0.75304711  0.10879013  0.25061798  1
  O  O317  1  0.72789860  0.10294441  0.76010601  1
  O  O318  1  0.76993565  0.62566203  0.27051223  1
  O  O319  1  0.76894609  0.61401044  0.74274404  1
  O  O320  1  0.41334754  0.10432413  0.36842195  1
  O  O321  1  0.48381319  0.02615653  0.90801392  1
  O  O322  1  0.36360355  0.62969145  0.37909765  1
  O  O323  1  0.39224966  0.60669192  0.84318191  1
  O  O324  1  0.85621083  0.10839531  0.36019686  1
  O  O325  1  0.84264509  0.13114866  0.86950916  1
  O  O326  1  0.86890068  0.62003228  0.38211183  1
  O  O327  1  0.89005138  0.60988477  0.85600010  1
  O  O328  1  0.10777950  0.34212133  0.15210252  1
  O  O329  1  0.10306489  0.36864020  0.58950537  1
  O  O330  1  0.10814642  0.87710759  0.11937012  1
  O  O331  1  0.11981001  0.89227556  0.64870955  1
  O  O332  1  0.65625710  0.38319323  0.14444010  1
  O  O333  1  0.64099763  0.39159150  0.62440916  1
  O  O334  1  0.64749818  0.88411400  0.11247479  1
  O  O335  1  0.61076698  0.88238077  0.61830731  1
  O  O336  1  0.08872261  0.20644573  0.25221814  1
  O  O337  1  0.10801971  0.23814872  0.78288844  1
  O  O338  1  0.10775030  0.74949931  0.27248617  1
  O  O339  1  0.11145327  0.76697401  0.75240105  1
  O  O340  1  0.63648123  0.26803294  0.25627033  1
  O  O341  1  0.61171784  0.25337503  0.74768893  1
  O  O342  1  0.62497292  0.72788368  0.26997751  1
  O  O343  1  0.61908315  0.76615031  0.73565077  1
  O  O344  1  0.39001412  0.28440025  0.20381647  1
  O  O345  1  0.39010143  0.24138727  0.74485065  1
  O  O346  1  0.40404641  0.75400267  0.27391749  1
  O  O347  1  0.39572506  0.72023030  0.74465849  1
  O  O348  1  0.87533899  0.22530294  0.23998459  1
  O  O349  1  0.87763952  0.24644414  0.75296139  1
  O  O350  1  0.88824576  0.74203623  0.26505786  1
  O  O351  1  0.88115098  0.74473803  0.74783180  1
  O  O352  1  0.40521739  0.53393308  0.51104950  1
  O  O353  1  0.37668497  0.53638278  0.99080886  1
  O  O354  1  0.37346545  0.99037034  0.51816467  1
  O  O355  1  0.38503349  1.08707986  1.02914810  1
  O  O356  1  0.88826668  0.46105698  0.55904064  1
  O  O357  1  0.87800440  0.51332464  0.97795911  1
  O  O358  1  0.85764689  0.99760867  0.48662566  1
  O  O359  1  0.87373425  0.98671497  1.00057055  1
  O  O360  1  0.10069394  0.00154003  0.00631399  1
  O  O361  1  0.15490345  -0.01885797  0.52512256  1
  O  O362  1  0.11289422  0.51862238  -0.00951374  1
  O  O363  1  0.11356775  0.51591427  0.50495338  1
  O  O364  1  0.62500955  0.00390911  0.00525254  1
  O  O365  1  0.60245032  0.00057015  0.48104553  1
  O  O366  1  0.65002235  0.50358627  0.01040347  1
  O  O367  1  0.62634752  0.50733747  0.50874420  1
  O  O368  1  0.36414063  0.34538635  0.17211854  1
  O  O369  1  0.33855820  0.41408651  0.57585484  1
  O  O370  1  0.37026168  0.88813579  0.13145378  1
  O  O371  1  0.37778542  0.86431289  0.61722765  1
  O  O372  1  0.88032603  0.35318984  0.12976722  1
  O  O373  1  0.87067282  0.39994178  0.61130465  1
  O  O374  1  0.85254288  0.87590558  0.10829781  1
  O  O375  1  0.87438034  0.88157092  0.62278871  1
  O  O376  1  0.12231374  0.06234703  0.39208468  1
  O  O377  1  0.10998339  0.12885062  0.89588973  1
  O  O378  1  0.12488478  0.63548925  0.39735257  1
  O  O379  1  0.10980756  0.63956551  0.85319211  1
  O  O380  1  0.63240070  0.14317461  0.37007947  1
  O  O381  1  0.64313508  0.14855443  0.87792701  1
  O  O382  1  0.64601017  0.62533161  0.39195594  1
  O  O383  1  0.63512785  0.61372344  0.89913930  1
