# generated using pymatgen
data_VZnO4
_symmetry_space_group_name_H-M   'P 1'
_cell_length_a   17.05836366
_cell_length_b   16.96422623
_cell_length_c   16.99989460
_cell_angle_alpha   89.94160485
_cell_angle_beta   89.60591476
_cell_angle_gamma   90.64434736
_symmetry_Int_Tables_number   1
_chemical_formula_structural   VZnO4
_chemical_formula_sum   'V64 Zn64 O256'
_cell_volume   4919.03208228
_cell_formula_units_Z   64
loop_
 _symmetry_equiv_pos_site_id
 _symmetry_equiv_pos_as_xyz
  1  'x, y, z'
loop_
 _atom_site_type_symbol
 _atom_site_label
 _atom_site_symmetry_multiplicity
 _atom_site_fract_x
 _atom_site_fract_y
 _atom_site_fract_z
 _atom_site_occupancy
  V  V0  1  0.12883533  0.74100271  0.87862643  1
  V  V1  1  0.02282532  0.38295412  0.89052156  1
  V  V2  1  0.01104252  0.72504745  0.73923798  1
  V  V3  1  0.50337056  0.00233057  0.51056418  1
  V  V4  1  0.37158180  0.62293784  0.73566833  1
  V  V5  1  0.25792958  -0.00774734  0.73388299  1
  V  V6  1  0.25869993  0.62331432  0.35761126  1
  V  V7  1  -0.02659398  0.49951868  0.51644584  1
  V  V8  1  0.50105988  0.73684109  0.24231537  1
  V  V9  1  0.10858728  0.87592290  0.24831360  1
  V  V10  1  0.22656656  0.50764269  0.23184921  1
  V  V11  1  0.24690100  0.34947344  0.12648514  1
  V  V12  1  0.56513435  0.12280308  0.07092910  1
  V  V13  1  0.35253011  0.26320743  0.60295712  1
  V  V14  1  0.26016084  0.12407847  0.89191279  1
  V  V15  1  0.48751450  0.38356996  0.86294458  1
  V  V16  1  0.62270137  0.40314877  0.74154679  1
  V  V17  1  0.14536735  0.24492324  0.89055511  1
  V  V18  1  0.12333106  0.61236560  0.50349258  1
  V  V19  1  0.35398709  0.51358060  0.89296647  1
  V  V20  1  0.24472380  0.12947633  0.37638776  1
  V  V21  1  0.64353611  0.47981649  0.12524123  1
  V  V22  1  0.12508454  0.87869252  0.74560249  1
  V  V23  1  0.86238624  0.25889106  0.65015636  1
  V  V24  1  0.63793792  0.76322371  0.37219237  1
  V  V25  1  0.50079184  0.13996476  0.61698292  1
  V  V26  1  0.75224931  0.61991393  0.87646025  1
  V  V27  1  0.90673949  0.52416038  0.89285163  1
  V  V28  1  0.59202527  0.73809961  0.84190171  1
  V  V29  1  0.75451669  0.14269012  0.42009774  1
  V  V30  1  -0.01695200  0.59814449  0.12253444  1
  V  V31  1  0.41780369  0.79737547  0.67249104  1
  V  V32  1  -0.00792754  0.22996192  0.77641642  1
  V  V33  1  0.60372594  0.62746900  0.49214631  1
  V  V34  1  0.11382701  0.74762859  0.36832531  1
  V  V35  1  0.88065996  0.75862088  0.14182281  1
  V  V36  1  0.76401356  0.02574094  0.27249454  1
  V  V37  1  0.86408158  0.60515965  0.25810246  1
  V  V38  1  0.38582711  -0.00812029  0.87923719  1
  V  V39  1  0.11844893  -0.00809340  0.11119262  1
  V  V40  1  0.37570590  0.35374315  0.00753559  1
  V  V41  1  0.51495546  0.88645116  0.36379741  1
  V  V42  1  0.62607215  0.62902676  0.01686328  1
  V  V43  1  0.27755758  -0.02064345  0.23423204  1
  V  V44  1  0.13734445  0.36540156  0.74107032  1
  V  V45  1  0.74584539  0.59901051  0.37862274  1
  V  V46  1  0.62523104  0.26781768  0.86375801  1
  V  V47  1  0.58774461  0.51504659  0.61800710  1
  V  V48  1  0.49670034  0.50775984  0.01043633  1
  V  V49  1  0.24346067  0.50085478  0.72524491  1
  V  V50  1  0.75235756  0.89329974  0.13282500  1
  V  V51  1  0.64617119  -0.03288159  0.63061563  1
  V  V52  1  0.75651858  0.76059374  0.00523108  1
  V  V53  1  0.74025255  0.30975546  0.52333275  1
  V  V54  1  0.25698902  0.75137157  0.49709479  1
  V  V55  1  0.38111961  0.00124324  0.37323000  1
  V  V56  1  0.37031626  0.14059675  0.74078360  1
  V  V57  1  0.39287964  0.13655661  0.24535778  1
  V  V58  1  0.73587833  0.07335223  0.84001884  1
  V  V59  1  0.25373452  0.75743685  0.00339777  1
  V  V60  1  0.88685437  0.87002084  0.49689602  1
  V  V61  1  0.37850911  0.87056533  0.49983838  1
  V  V62  1  0.01809642  0.37998021  0.38115289  1
  V  V63  1  0.88584374  0.24143351  0.10496472  1
  Zn  Zn64  1  0.26530002  0.13914496  0.10662235  1
  Zn  Zn65  1  0.18571745  0.18461034  0.68701957  1
  Zn  Zn66  1  0.15934414  0.68560230  0.18345425  1
  Zn  Zn67  1  0.19243873  0.68985185  0.68458409  1
  Zn  Zn68  1  0.70734677  0.17726884  0.17065956  1
  Zn  Zn69  1  0.67363850  0.21252107  0.69274589  1
  Zn  Zn70  1  0.69317628  0.69562663  0.19639747  1
  Zn  Zn71  1  0.67605401  0.64261973  0.68941244  1
  Zn  Zn72  1  0.29654438  0.30816707  0.29449660  1
  Zn  Zn73  1  0.31165625  0.32020091  0.81320070  1
  Zn  Zn74  1  0.32192343  0.80342180  0.31400099  1
  Zn  Zn75  1  0.30596267  0.81064526  0.82107743  1
  Zn  Zn76  1  0.87981206  0.24702628  0.31414002  1
  Zn  Zn77  1  0.80189300  0.37874758  0.81182740  1
  Zn  Zn78  1  0.81678730  0.82756995  0.30493269  1
  Zn  Zn79  1  0.80918936  0.75368088  0.79146638  1
  Zn  Zn80  1  0.18908780  0.44429056  0.42004899  1
  Zn  Zn81  1  0.18375457  0.42324105  0.95567897  1
  Zn  Zn82  1  0.19920155  0.92631104  0.41765704  1
  Zn  Zn83  1  0.20413615  0.92505399  0.93337184  1
  Zn  Zn84  1  0.66756568  0.43110219  0.44772415  1
  Zn  Zn85  1  0.68366876  0.43469204  0.94228078  1
  Zn  Zn86  1  0.69376068  0.95498494  0.44642300  1
  Zn  Zn87  1  0.57727313  0.92756654  0.88893600  1
  Zn  Zn88  1  0.40754928  0.01554499  0.09160167  1
  Zn  Zn89  1  0.31268329  0.06510972  0.55642929  1
  Zn  Zn90  1  0.30579963  0.61945031  0.09092229  1
  Zn  Zn91  1  0.30321278  0.56789994  0.55417408  1
  Zn  Zn92  1  0.77131752  0.07659431  0.02779299  1
  Zn  Zn93  1  0.83382053  0.04883332  0.68997053  1
  Zn  Zn94  1  0.81698823  0.56197312  0.06087981  1
  Zn  Zn95  1  0.77129634  0.52542488  0.55549141  1
  Zn  Zn96  1  0.42652422  0.44322423  0.17891533  1
  Zn  Zn97  1  0.41647608  0.44569849  0.68012646  1
  Zn  Zn98  1  0.58329806  0.96679529  0.18574631  1
  Zn  Zn99  1  0.47303610  0.97002597  0.72164129  1
  Zn  Zn100  1  0.91301327  0.42131145  0.21261377  1
  Zn  Zn101  1  0.93715410  0.43589075  0.71825825  1
  Zn  Zn102  1  0.93502727  0.95303334  0.18253372  1
  Zn  Zn103  1  0.91392059  0.87943462  0.71745843  1
  Zn  Zn104  1  0.14775841  0.10405517  0.24268502  1
  Zn  Zn105  1  0.07725474  0.05685506  0.82283951  1
  Zn  Zn106  1  0.04903818  0.55373613  0.31590808  1
  Zn  Zn107  1  0.07937861  0.56312290  0.81067324  1
  Zn  Zn108  1  0.58464332  0.09075173  0.32078911  1
  Zn  Zn109  1  0.57298058  0.07547303  0.79980507  1
  Zn  Zn110  1  0.58448997  0.57005530  0.29511726  1
  Zn  Zn111  1  0.54869271  0.57141566  0.82305910  1
  Zn  Zn112  1  0.42398641  0.18451415  0.44250153  1
  Zn  Zn113  1  0.44991235  0.18455050  0.92488145  1
  Zn  Zn114  1  0.43921299  0.69324616  0.41294247  1
  Zn  Zn115  1  0.42961658  0.68254617  0.94356028  1
  Zn  Zn116  1  0.92827681  0.21285353  0.46768763  1
  Zn  Zn117  1  0.81626661  0.23334085  0.90009568  1
  Zn  Zn118  1  0.93551578  0.67113051  0.43776686  1
  Zn  Zn119  1  0.95404101  0.71453924  0.96079696  1
  Zn  Zn120  1  0.07458449  0.30586967  0.06244041  1
  Zn  Zn121  1  0.01763753  0.34971514  0.59799959  1
  Zn  Zn122  1  0.06152720  0.81633941  0.05927891  1
  Zn  Zn123  1  0.08111288  0.80928211  0.56702067  1
  Zn  Zn124  1  0.56016482  0.30952895  0.05300418  1
  Zn  Zn125  1  0.54580252  0.32299590  0.57069722  1
  Zn  Zn126  1  0.58126716  0.81362204  0.07467227  1
  Zn  Zn127  1  0.56592504  0.80762699  0.55989247  1
  O  O128  1  0.15819498  0.09171280  0.12933713  1
  O  O129  1  0.10549412  0.12973789  0.61380732  1
  O  O130  1  0.07912843  0.61736248  0.14449760  1
  O  O131  1  0.13761012  0.63116095  0.59973686  1
  O  O132  1  0.67124932  0.12099957  0.07852928  1
  O  O133  1  0.59813587  0.14894850  0.62664454  1
  O  O134  1  0.63619984  0.61611250  0.11638343  1
  O  O135  1  0.59359634  0.63300938  0.59581491  1
  O  O136  1  0.39256898  0.38564831  0.33327061  1
  O  O137  1  0.37337668  0.38889504  0.89010691  1
  O  O138  1  0.39761348  0.88358376  0.38090475  1
  O  O139  1  0.36893191  0.89350295  0.87427730  1
  O  O140  1  0.84360555  0.33672272  0.25932164  1
  O  O141  1  0.92993444  0.36465889  0.90527194  1
  O  O142  1  0.88907066  0.87004770  0.38999155  1
  O  O143  1  0.89424947  0.88661056  0.87689347  1
  O  O144  1  0.27140694  -0.00268850  0.36770915  1
  O  O145  1  0.26674108  0.01317239  0.87296929  1
  O  O146  1  0.24845895  0.51501145  0.35044719  1
  O  O147  1  0.25566950  0.49686176  0.89689571  1
  O  O148  1  0.75891798  0.02532226  0.37828498  1
  O  O149  1  0.65771576  0.01079726  0.87117591  1
  O  O150  1  0.72775695  0.50146078  0.37235410  1
  O  O151  1  0.73043285  0.52414170  0.87284627  1
  O  O152  1  0.24165010  0.52632076  0.13244855  1
  O  O153  1  0.24940763  0.49398317  0.62721451  1
  O  O154  1  0.29462631  0.98331571  0.13646968  1
  O  O155  1  0.25570271  1.00405734  0.63542225  1
  O  O156  1  0.74223214  0.48830959  0.10809929  1
  O  O157  1  0.70110568  0.54251589  0.63915407  1
  O  O158  1  0.77273725  0.98755972  0.10152745  1
  O  O159  1  0.74012495  0.99475648  0.64303094  1
  O  O160  1  -0.00036755  0.40239764  0.28391926  1
  O  O161  1  0.02873312  0.37874887  0.77492790  1
  O  O162  1  0.01357858  0.89637599  0.25395960  1
  O  O163  1  0.02652405  0.87763091  0.75674047  1
  O  O164  1  0.44673373  0.38283532  0.28015580  1
  O  O165  1  0.47702123  0.39383833  0.76442470  1
  O  O166  1  0.52117174  0.89828058  0.26600667  1
  O  O167  1  0.47173438  0.85596318  0.73164992  1
  O  O168  1  0.49172336  0.12544253  0.26623868  1
  O  O169  1  0.47774301  0.12363161  0.72816690  1
  O  O170  1  0.50237626  0.63885496  0.26654071  1
  O  O171  1  0.46817668  0.61794355  0.75319689  1
  O  O172  1  1.05889334  0.20098491  0.24984476  1
  O  O173  1  1.01661120  0.13428193  0.76593065  1
  O  O174  1  0.96911688  0.61211643  0.25625119  1
  O  O175  1  1.00738348  0.62478253  0.74735741  1
  O  O176  1  0.38471942  0.25683384  -0.00464169  1
  O  O177  1  0.35622560  0.25055998  0.50313439  1
  O  O178  1  0.34707110  0.70101885  0.01496958  1
  O  O179  1  0.36639394  0.75623874  0.47981097  1
  O  O180  1  0.86196776  0.25986630  0.00484561  1
  O  O181  1  0.87736784  0.27736123  0.55019425  1
  O  O182  1  0.85471826  0.73258316  0.03016349  1
  O  O183  1  0.88113948  0.76448389  0.48528737  1
  O  O184  1  0.07134724  0.17678007  0.56071043  1
  O  O185  1  0.14144487  0.24381035  0.98898212  1
  O  O186  1  0.13954389  0.75076649  0.48331001  1
  O  O187  1  0.13660672  0.75688509  0.98531601  1
  O  O188  1  0.63938436  0.31963571  0.50497057  1
  O  O189  1  0.62812093  0.28557392  0.96390322  1
  O  O190  1  0.61754890  0.73954583  0.48107878  1
  O  O191  1  0.64106430  0.73657889  1.01218138  1
  O  O192  1  0.53884769  0.21195982  0.11061197  1
  O  O193  1  0.47636118  0.24246520  0.60862196  1
  O  O194  1  0.51950197  0.74932278  0.14362648  1
  O  O195  1  0.48087629  0.74874235  0.61443797  1
  O  O196  1  0.98630788  0.22852674  0.07524716  1
  O  O197  1  0.97602682  0.26416003  0.67112207  1
  O  O198  1  0.97939010  0.74493928  0.13104361  1
  O  O199  1  1.02353662  0.74303536  0.64054277  1
  O  O200  1  -0.03324382  0.28621850  0.38466165  1
  O  O201  1  0.03655141  0.25897965  0.87590506  1
  O  O202  1  0.01680278  0.73651364  0.38074444  1
  O  O203  1  0.02438258  0.73909068  0.86312275  1
  O  O204  1  0.49475118  0.28181511  0.41116110  1
  O  O205  1  0.49515955  0.28183988  0.87457145  1
  O  O206  1  0.51112055  0.77510071  0.36445189  1
  O  O207  1  0.49532331  0.73696083  0.87048293  1
  O  O208  1  0.25110498  0.11349885  0.47651898  1
  O  O209  1  0.26941140  0.12629670  0.98908929  1
  O  O210  1  0.24512009  0.63256302  0.47872415  1
  O  O211  1  0.15675480  0.59384917  1.00605266  1
  O  O212  1  0.75610828  0.11507961  0.51170620  1
  O  O213  1  0.76925420  0.12812790  0.92559394  1
  O  O214  1  0.72863834  0.61522591  0.48207836  1
  O  O215  1  0.73626515  0.62415467  0.99434985  1
  O  O216  1  0.26653338  0.37087329  0.01680994  1
  O  O217  1  0.29899586  0.41556212  0.47300862  1
  O  O218  1  0.26688486  0.85522303  0.01021280  1
  O  O219  1  0.26438911  0.85995330  0.48398249  1
  O  O220  1  0.77168943  0.36863005  -0.07850324  1
  O  O221  1  0.76441631  0.41013277  0.51481208  1
  O  O222  1  0.75605480  0.85980344  0.01282983  1
  O  O223  1  0.78414514  0.88693113  0.48692184  1
  O  O224  1  0.12975078  0.50073134  0.24939278  1
  O  O225  1  0.14171999  0.48542260  0.75481331  1
  O  O226  1  0.15579519  0.97857583  0.23211691  1
  O  O227  1  0.14707389  0.98910784  0.76136617  1
  O  O228  1  0.62681350  0.49817121  0.22331287  1
  O  O229  1  0.59142107  0.51037010  0.73578919  1
  O  O230  1  0.65269728  1.02116014  0.25616315  1
  O  O231  1  0.59153793  0.99739811  0.71264555  1
  O  O232  1  0.38377707  -0.00248553  0.26380013  1
  O  O233  1  0.36560752  0.01342253  0.75507072  1
  O  O234  1  0.36396592  0.53305839  0.22237822  1
  O  O235  1  0.35185188  0.50532999  0.76092612  1
  O  O236  1  0.86187075  0.00897113  0.24721163  1
  O  O237  1  0.82319084  -0.10576308  0.86068132  1
  O  O238  1  0.84862918  0.50810018  0.25185525  1
  O  O239  1  0.87321244  0.47804996  0.80636360  1
  O  O240  1  0.11823506  0.36521786  0.38638094  1
  O  O241  1  0.14998667  0.35518688  0.86616116  1
  O  O242  1  0.12693056  0.86230699  0.36034084  1
  O  O243  1  0.15289442  0.85529118  0.85677101  1
  O  O244  1  0.57989101  0.41466463  0.36475589  1
  O  O245  1  0.60109125  0.39492125  0.85665561  1
  O  O246  1  0.62060606  0.87546082  0.39175319  1
  O  O247  1  0.62794878  0.83062747  0.86065561  1
  O  O248  1  0.37658798  0.11860349  0.14173506  1
  O  O249  1  0.37030707  0.14004127  0.62815141  1
  O  O250  1  0.38071950  0.59653345  0.17771333  1
  O  O251  1  0.36771459  0.61447403  0.63536042  1
  O  O252  1  0.86211103  0.14090369  0.08523616  1
  O  O253  1  0.84968691  0.16243570  0.67264507  1
  O  O254  1  0.86776955  0.62944806  0.14498220  1
  O  O255  1  0.82409854  0.68583343  0.62301499  1
  O  O256  1  0.25134396  0.25136019  0.14070144  1
  O  O257  1  0.25546987  0.24978202  0.62573920  1
  O  O258  1  0.22747665  0.70961939  0.09705892  1
  O  O259  1  0.25305180  0.74158485  0.59551107  1
  O  O260  1  0.78742513  0.26199721  0.13200464  1
  O  O261  1  0.74550856  0.26913314  0.62157565  1
  O  O262  1  0.75249073  0.76688833  0.12807980  1
  O  O263  1  0.76086684  0.72272150  0.62597188  1
  O  O264  1  0.25086798  0.23025030  0.36124780  1
  O  O265  1  0.25495942  0.23591321  0.87086924  1
  O  O266  1  0.24260507  0.73869517  0.37208991  1
  O  O267  1  0.25258872  0.74256350  0.89581708  1
  O  O268  1  0.76125239  0.25752859  0.43824233  1
  O  O269  1  0.72713226  0.26821609  0.83708171  1
  O  O270  1  0.73624779  0.77178875  0.36910503  1
  O  O271  1  0.76490906  0.74133256  0.90196327  1
  O  O272  1  -0.06113538  0.05143482  -0.07368370  1
  O  O273  1  0.00337746  0.14566781  0.53387572  1
  O  O274  1  -0.02543323  0.61759151  0.02130180  1
  O  O275  1  0.01263658  0.60816124  0.50173974  1
  O  O276  1  0.52575314  0.12124089  -0.02063006  1
  O  O277  1  0.49192372  0.11704973  0.50726864  1
  O  O278  1  0.51817901  0.62023617  -0.00087779  1
  O  O279  1  0.50930516  0.61976871  0.46073528  1
  O  O280  1  0.48352141  0.33929102  0.45858922  1
  O  O281  1  0.48247410  0.38651383  0.99464771  1
  O  O282  1  0.49439518  0.88453654  0.49944289  1
  O  O283  1  0.44818675  0.87119603  1.01233885  1
  O  O284  1  0.99188066  0.39138030  0.49641329  1
  O  O285  1  1.06582952  0.39115086  0.98524541  1
  O  O286  1  0.98941228  0.85820569  0.50748638  1
  O  O287  1  0.97990983  0.82210087  0.98767110  1
  O  O288  1  0.53664202  0.47599790  0.36491571  1
  O  O289  1  0.48494647  0.49765111  0.89000600  1
  O  O290  1  0.50480365  0.99714918  0.39133690  1
  O  O291  1  0.49104193  0.99479966  0.84504088  1
  O  O292  1  0.99997532  0.49162352  0.40332417  1
  O  O293  1  1.01152343  0.49999014  0.88378041  1
  O  O294  1  1.07626440  1.02242449  0.48114585  1
  O  O295  1  1.01240001  1.02044271  0.91769097  1
  O  O296  1  0.02000324  0.00361390  0.12217362  1
  O  O297  1  -0.07985890  -0.01953872  0.67191266  1
  O  O298  1  -0.03598193  0.49961251  0.13449118  1
  O  O299  1  -0.01565454  0.47238018  0.61986610  1
  O  O300  1  0.52282226  0.03696264  0.11880639  1
  O  O301  1  0.48050093  0.01832044  0.61235787  1
  O  O302  1  0.50551482  0.49395622  0.11227595  1
  O  O303  1  0.48784581  0.50973299  0.61554622  1
  O  O304  1  0.26253635  0.39667974  0.22729262  1
  O  O305  1  0.24561372  0.38559718  0.74728696  1
  O  O306  1  0.26417714  0.88001977  0.25618776  1
  O  O307  1  0.26132928  0.88995161  0.74662663  1
  O  O308  1  0.68081058  0.30894668  0.27678194  1
  O  O309  1  0.71803447  0.41699537  0.74246160  1
  O  O310  1  0.75634265  0.90173683  0.23958795  1
  O  O311  1  0.80417617  0.87081969  0.77717342  1
  O  O312  1  0.27248429  0.09888444  0.25703857  1
  O  O313  1  0.26036657  0.11573275  0.75028923  1
  O  O314  1  0.23391835  0.62407018  0.25359127  1
  O  O315  1  0.24951364  0.60726861  0.74193038  1
  O  O316  1  0.76381352  0.12754598  0.25242530  1
  O  O317  1  0.70728089  0.12699890  0.75857817  1
  O  O318  1  0.75146793  0.63036196  0.26985470  1
  O  O319  1  0.75352573  0.65332643  0.77654343  1
  O  O320  1  0.37242602  0.11557645  0.36690634  1
  O  O321  1  0.37262931  0.12600999  0.85843216  1
  O  O322  1  0.35685098  0.63088562  0.36313345  1
  O  O323  1  0.36558387  0.61202265  0.86662291  1
  O  O324  1  0.86044603  0.16087215  0.38711704  1
  O  O325  1  0.81771733  0.02890887  0.80595053  1
  O  O326  1  0.85467156  0.62154861  0.37244330  1
  O  O327  1  0.86573918  0.62166508  0.88527399  1
  O  O328  1  0.14950388  0.36755247  0.12086849  1
  O  O329  1  0.12184181  0.36315609  0.64318046  1
  O  O330  1  0.11975235  0.87523543  0.13750200  1
  O  O331  1  0.13739435  0.86930911  0.64507794  1
  O  O332  1  0.62199034  0.38184045  0.11346083  1
  O  O333  1  0.59828955  0.40450213  0.63338082  1
  O  O334  1  0.64645778  0.89017884  0.12772348  1
  O  O335  1  0.63851341  0.86607599  0.62422617  1
  O  O336  1  0.07245554  0.26528608  0.21577849  1
  O  O337  1  0.12707891  0.25636179  0.75738272  1
  O  O338  1  0.12071859  0.76395689  0.25753919  1
  O  O339  1  0.12765512  0.75406719  0.75532561  1
  O  O340  1  0.64450158  0.26115321  0.23413380  1
  O  O341  1  0.60924420  0.29552300  0.74581595  1
  O  O342  1  0.61773295  0.75345235  0.26660655  1
  O  O343  1  0.60494239  0.71515926  0.74475704  1
  O  O344  1  0.37634038  0.23379422  0.25402229  1
  O  O345  1  0.36740966  0.24164396  0.74518825  1
  O  O346  1  0.40444774  0.76230642  0.25290043  1
  O  O347  1  0.35514346  0.73636347  0.74020854  1
  O  O348  1  0.91037191  0.21426282  0.20107072  1
  O  O349  1  0.90077565  0.22755440  0.81757490  1
  O  O350  1  0.86541504  0.74477122  0.24444945  1
  O  O351  1  0.91335362  0.76351038  0.74753570  1
  O  O352  1  0.34673016  0.47333335  0.48525892  1
  O  O353  1  0.38033338  0.51485664  0.99609862  1
  O  O354  1  0.38203772  0.99048250  0.49085355  1
  O  O355  1  0.39465101  1.01384053  0.97564630  1
  O  O356  1  0.87859915  0.52457151  0.51560579  1
  O  O357  1  0.86414230  0.49332395  0.97709635  1
  O  O358  1  0.90732976  0.97093226  0.49926664  1
  O  O359  1  0.89577715  1.01760106  0.97936699  1
  O  O360  1  0.14225654  -0.02365386  0.01522427  1
  O  O361  1  0.12922808  -0.02199348  0.50504203  1
  O  O362  1  0.12913455  0.52665200  0.01352127  1
  O  O363  1  0.13844795  0.51329797  0.49736819  1
  O  O364  1  0.53306738  -0.11280071  -0.00257021  1
  O  O365  1  0.61712695  -0.00597420  0.52658299  1
  O  O366  1  0.61730180  0.50771689  0.00634924  1
  O  O367  1  0.61107705  0.51200623  0.51002721  1
  O  O368  1  0.37302434  0.36795533  0.11255353  1
  O  O369  1  0.37570373  0.36111077  0.61970807  1
  O  O370  1  0.42771337  0.89029893  0.08361120  1
  O  O371  1  0.37171505  0.86555255  0.60674028  1
  O  O372  1  0.90851072  0.34368360  0.11889625  1
  O  O373  1  0.85532469  0.34581004  0.71207579  1
  O  O374  1  0.87073527  0.86494306  0.13581393  1
  O  O375  1  0.86895126  0.85897221  0.59749164  1
  O  O376  1  0.14730200  0.10674533  0.35516333  1
  O  O377  1  0.15273985  0.13160127  0.87511077  1
  O  O378  1  0.12974225  0.63436702  0.38007358  1
  O  O379  1  0.14097151  0.64063273  0.86754037  1
  O  O380  1  0.65612828  0.14580873  0.38733104  1
  O  O381  1  0.59526373  0.17317632  0.85284830  1
  O  O382  1  0.63834611  0.64032760  0.37357349  1
  O  O383  1  0.63057145  0.64108593  0.88548672  1
