# generated using pymatgen
data_VZnO4
_symmetry_space_group_name_H-M   'P 1'
_cell_length_a   16.88561706
_cell_length_b   16.86850586
_cell_length_c   16.91284290
_cell_angle_alpha   89.45629927
_cell_angle_beta   89.68573726
_cell_angle_gamma   90.48570113
_symmetry_Int_Tables_number   1
_chemical_formula_structural   VZnO4
_chemical_formula_sum   'V64 Zn64 O256'
_cell_volume   4816.90722356
_cell_formula_units_Z   64
loop_
 _symmetry_equiv_pos_site_id
 _symmetry_equiv_pos_as_xyz
  1  'x, y, z'
loop_
 _atom_site_type_symbol
 _atom_site_label
 _atom_site_symmetry_multiplicity
 _atom_site_fract_x
 _atom_site_fract_y
 _atom_site_fract_z
 _atom_site_occupancy
  V  V0  1  0.63115305  0.00768486  0.10484533  1
  V  V1  1  0.12285046  0.74931455  0.85716102  1
  V  V2  1  0.00707743  0.87715707  0.85209361  1
  V  V3  1  0.49879755  0.23384036  0.25349010  1
  V  V4  1  0.37587735  0.50827219  0.85184864  1
  V  V5  1  0.74721153  0.75202083  0.48460469  1
  V  V6  1  0.01717802  0.26245656  0.73869454  1
  V  V7  1  0.90374405  0.87787166  0.48656147  1
  V  V8  1  0.37497454  0.77393667  0.63284641  1
  V  V9  1  0.62726989  0.36705661  0.25293189  1
  V  V10  1  0.25148394  0.85705538  0.12176981  1
  V  V11  1  0.51758057  0.38347439  0.87112949  1
  V  V12  1  0.24467667  0.75773594  0.50301345  1
  V  V13  1  0.27495510  0.40652685  0.63042036  1
  V  V14  1  0.62730705  0.51151345  0.11957483  1
  V  V15  1  0.11150871  0.48535328  0.10040270  1
  V  V16  1  0.49768972  0.38329867  0.37457619  1
  V  V17  1  0.49958200  0.51579198  0.00798819  1
  V  V18  1  0.50371304  0.65982500  0.64694412  1
  V  V19  1  0.12783897  -0.01091322  0.09591897  1
  V  V20  1  0.36008352  0.59625327  0.26575805  1
  V  V21  1  0.12194422  0.85790839  0.25228616  1
  V  V22  1  -0.01725649  0.36119769  0.88077144  1
  V  V23  1  -0.01551979  0.60357162  0.61819398  1
  V  V24  1  0.23101153  0.72412329  0.00908419  1
  V  V25  1  0.86579783  0.24656415  0.14781477  1
  V  V26  1  0.76596679  0.88173356  0.62535920  1
  V  V27  1  0.76130351  0.50383109  0.25324170  1
  V  V28  1  0.35186782  0.05355124  0.86880421  1
  V  V29  1  -0.01229094  0.73472935  0.25871494  1
  V  V30  1  0.85698924  0.51850468  0.87658774  1
  V  V31  1  0.62630516  0.52463147  0.64981280  1
  V  V32  1  0.50226605  0.12600973  0.09417942  1
  V  V33  1  0.88994543  0.75178133  0.63881725  1
  V  V34  1  0.21403706  0.47636990  0.25435195  1
  V  V35  1  0.88649494  0.86306177  -0.00018881  1
  V  V36  1  0.37726052  0.71380938  0.13888277  1
  V  V37  1  0.91517711  0.01030264  0.36162491  1
  V  V38  1  0.51546000  0.53637779  0.49492597  1
  V  V39  1  0.35659899  0.16404220  0.73090846  1
  V  V40  1  0.37047241  0.24902931  0.12063571  1
  V  V41  1  0.87943747  0.12892317  0.71604653  1
  V  V42  1  0.25909448  0.02085622  0.23684026  1
  V  V43  1  0.22177625  0.59790801  0.39537143  1
  V  V44  1  0.52346450  0.72064971  0.27237302  1
  V  V45  1  0.74777735  0.36678697  0.10843426  1
  V  V46  1  0.63541778  0.87964878  0.25185862  1
  V  V47  1  0.70983887  0.12386374  0.36325859  1
  V  V48  1  0.75374746  0.85994730  0.11089798  1
  V  V49  1  0.86962841  0.49952203  0.40063497  1
  V  V50  1  -0.00842783  0.62099003  0.10904179  1
  V  V51  1  0.62531521  0.21993078  0.88342617  1
  V  V52  1  0.36858324  0.37982838  0.00401709  1
  V  V53  1  0.39470086  0.84711629  0.01187630  1
  V  V54  1  0.03844245  0.12906426  0.61633349  1
  V  V55  1  0.74813029  0.00257762  0.74796677  1
  V  V56  1  0.88829707  0.01161831  0.87990428  1
  V  V57  1  0.45279975  0.86865577  0.36055745  1
  V  V58  1  0.50855874  0.25501752  0.73173650  1
  V  V59  1  0.24298503  0.61653062  0.85415600  1
  V  V60  1  -0.00771844  0.12128165  0.11374906  1
  V  V61  1  -0.02082857  0.35693332  0.36366351  1
  V  V62  1  0.71944909  0.65461158  0.89472778  1
  V  V63  1  0.37819318  0.37750372  0.49982572  1
  Zn  Zn64  1  0.17459792  0.18519331  0.13488312  1
  Zn  Zn65  1  0.18799075  0.23576006  0.68163456  1
  Zn  Zn66  1  0.16828904  0.66179278  0.19721044  1
  Zn  Zn67  1  0.18002606  0.69187900  0.66764588  1
  Zn  Zn68  1  0.68260570  0.17975432  0.18555348  1
  Zn  Zn69  1  0.72211322  0.21781307  0.74239191  1
  Zn  Zn70  1  0.70341455  0.68888301  0.19150190  1
  Zn  Zn71  1  0.69331697  0.70472364  0.68871626  1
  Zn  Zn72  1  0.31866806  0.31343193  0.30659312  1
  Zn  Zn73  1  0.31085788  0.31442532  0.81648828  1
  Zn  Zn74  1  0.28411341  0.77858685  0.31165912  1
  Zn  Zn75  1  0.32309234  0.79994794  0.82746171  1
  Zn  Zn76  1  0.80209581  0.30095641  0.33020711  1
  Zn  Zn77  1  0.84626148  0.23683404  0.87342422  1
  Zn  Zn78  1  0.82087130  0.82598051  0.30606957  1
  Zn  Zn79  1  0.81493661  0.81468237  0.81518583  1
  Zn  Zn80  1  0.17445837  0.40736539  0.44426017  1
  Zn  Zn81  1  0.17603794  0.33931945  0.96484235  1
  Zn  Zn82  1  0.24419900  0.91904524  0.39625959  1
  Zn  Zn83  1  0.17691999  0.96230460  0.89812339  1
  Zn  Zn84  1  0.68934268  0.43695085  0.44195300  1
  Zn  Zn85  1  0.69616654  0.45934314  0.93357049  1
  Zn  Zn86  1  0.68655982  0.92605120  0.45159626  1
  Zn  Zn87  1  0.69802076  0.94342343  0.93263723  1
  Zn  Zn88  1  0.33231115  0.04119277  0.05916310  1
  Zn  Zn89  1  0.24474036  0.08688007  0.61069654  1
  Zn  Zn90  1  0.29174548  0.54361568  0.06538786  1
  Zn  Zn91  1  0.33912996  0.56820381  0.56315987  1
  Zn  Zn92  1  0.82406074  0.05222897  0.06780091  1
  Zn  Zn93  1  0.82806367  0.05284850  0.54496823  1
  Zn  Zn94  1  0.81632057  0.56550630  0.05291694  1
  Zn  Zn95  1  0.80298962  0.57313518  0.56462300  1
  Zn  Zn96  1  0.43694016  0.43782790  0.18653656  1
  Zn  Zn97  1  0.46965681  0.44239326  0.67387302  1
  Zn  Zn98  1  0.47546045  1.01421065  0.23919769  1
  Zn  Zn99  1  0.38629741  0.94844669  0.71485913  1
  Zn  Zn100  1  0.94373199  0.42907430  0.18306564  1
  Zn  Zn101  1  0.91168649  0.43800298  0.70806572  1
  Zn  Zn102  1  0.94546659  0.93157225  0.18113256  1
  Zn  Zn103  1  0.94932868  0.95242867  0.67674690  1
  Zn  Zn104  1  0.09352065  0.07213461  0.27391461  1
  Zn  Zn105  1  0.01599351  0.14822411  0.90391437  1
  Zn  Zn106  1  0.04110817  0.55401476  0.32180816  1
  Zn  Zn107  1  0.03390132  0.56838404  0.84244182  1
  Zn  Zn108  1  0.54796393  0.02361621  0.43124074  1
  Zn  Zn109  1  0.53603341  0.05431460  0.79742530  1
  Zn  Zn110  1  0.56375599  0.55555970  0.30126902  1
  Zn  Zn111  1  0.55767276  0.58879014  0.82441722  1
  Zn  Zn112  1  0.45631032  0.21519641  0.45791769  1
  Zn  Zn113  1  0.43799931  0.20543656  0.93135780  1
  Zn  Zn114  1  0.40959653  0.68381123  0.43644603  1
  Zn  Zn115  1  0.42499989  0.69138230  0.93620369  1
  Zn  Zn116  1  0.98960413  0.14825761  0.40734583  1
  Zn  Zn117  1  1.22038741  0.17585743  0.94593067  1
  Zn  Zn118  1  0.93669000  0.68494248  0.44279773  1
  Zn  Zn119  1  0.93727685  0.69024195  0.93238103  1
  Zn  Zn120  1  0.05626622  0.29811976  0.06389414  1
  Zn  Zn121  1  0.05671779  0.28025466  0.51852757  1
  Zn  Zn122  1  0.06037061  0.79960684  0.06417917  1
  Zn  Zn123  1  0.07136675  0.80043366  0.55556005  1
  Zn  Zn124  1  0.56223381  0.31474052  0.05483582  1
  Zn  Zn125  1  0.59934570  0.33553488  0.56903998  1
  Zn  Zn126  1  0.56186919  0.80194808  0.11255190  1
  Zn  Zn127  1  0.55796757  0.84199356  0.54153029  1
  O  O128  1  0.16378008  0.08053249  0.07946957  1
  O  O129  1  0.14157552  0.13633417  0.63340440  1
  O  O130  1  0.10628146  0.59845336  0.12746201  1
  O  O131  1  0.08779708  0.60925513  0.66920816  1
  O  O132  1  0.61390583  0.11871437  0.11636511  1
  O  O133  1  0.64024841  0.12796583  0.60740957  1
  O  O134  1  0.63592818  0.60931601  0.12898277  1
  O  O135  1  0.61431876  0.64191180  0.63152971  1
  O  O136  1  0.39001622  0.37903787  0.37833056  1
  O  O137  1  0.38266839  0.39556771  0.88647972  1
  O  O138  1  0.34856218  0.86729516  0.35494343  1
  O  O139  1  0.39921770  0.80576114  0.91239464  1
  O  O140  1  0.87129272  0.37730985  0.37898507  1
  O  O141  1  0.89340104  0.33558236  0.91918767  1
  O  O142  1  0.88486094  0.89267026  0.38147111  1
  O  O143  1  0.89268943  0.87643374  0.88159176  1
  O  O144  1  0.24502655  0.01343176  0.33835735  1
  O  O145  1  0.28792683  -0.04688758  0.86274868  1
  O  O146  1  0.22506527  0.48839298  0.37166279  1
  O  O147  1  0.26671330  0.51089422  0.86194355  1
  O  O148  1  0.74971705  0.01969327  0.40336174  1
  O  O149  1  0.77680246  -0.00612786  0.85661596  1
  O  O150  1  0.75748743  0.48811750  0.36231586  1
  O  O151  1  0.75009304  0.54325842  0.87269034  1
  O  O152  1  0.22055799  0.49428934  0.14390871  1
  O  O153  1  0.27513289  0.50615276  0.63874495  1
  O  O154  1  0.25267671  0.96603083  0.11805061  1
  O  O155  1  0.22656381  0.97320504  0.62746274  1
  O  O156  1  0.74202039  0.48495366  0.12954435  1
  O  O157  1  0.72521307  0.52019882  0.62957090  1
  O  O158  1  0.73287707  1.00983680  0.12080234  1
  O  O159  1  0.76451089  0.98962665  0.62804392  1
  O  O160  1  -0.00476288  0.36314396  0.26498990  1
  O  O161  1  -0.01988259  0.36013576  0.76064186  1
  O  O162  1  0.01675339  0.85945227  0.23508101  1
  O  O163  1  0.00110473  0.88156367  0.75384881  1
  O  O164  1  0.50921513  0.37753061  0.25657627  1
  O  O165  1  0.50096714  0.37567257  0.76751185  1
  O  O166  1  0.52153384  0.84135773  0.27193883  1
  O  O167  1  0.49359875  0.97265945  0.73438280  1
  O  O168  1  0.49641726  0.13481303  0.25090561  1
  O  O169  1  0.48271176  0.15174836  0.73709628  1
  O  O170  1  0.46727360  0.61450210  0.26158543  1
  O  O171  1  0.50188250  0.65623895  0.74714628  1
  O  O172  1  1.06445164  0.15132103  0.18534579  1
  O  O173  1  0.99261633  0.14725725  0.72191077  1
  O  O174  1  0.99582605  0.62936180  0.24763757  1
  O  O175  1  1.02660418  0.62251635  0.72697346  1
  O  O176  1  0.37718935  0.26844782  0.00704780  1
  O  O177  1  0.36968574  0.27571285  0.49759813  1
  O  O178  1  0.36221062  0.72322754  0.03184355  1
  O  O179  1  0.35298275  0.74880792  0.50754263  1
  O  O180  1  0.82465983  0.20398341  -0.00482008  1
  O  O181  1  0.79346239  0.25968469  0.52096487  1
  O  O182  1  0.87534776  0.76417988  -0.00637501  1
  O  O183  1  0.87454880  0.76670255  0.50240669  1
  O  O184  1  0.17684522  0.29761561  0.52139528  1
  O  O185  1  0.15233564  0.23619638  1.03138699  1
  O  O186  1  0.15063797  0.72191260  0.54449065  1
  O  O187  1  0.13220487  0.74525944  0.98791329  1
  O  O188  1  0.64033961  0.17406704  0.55014996  1
  O  O189  1  0.62078955  0.24752999  0.98140630  1
  O  O190  1  0.64985608  0.77817894  0.50151672  1
  O  O191  1  0.59016237  0.82447284  0.89979586  1
  O  O192  1  0.50024706  0.23725287  0.12815100  1
  O  O193  1  0.52552462  0.27153117  0.63358770  1
  O  O194  1  0.48008415  0.72333431  0.15992862  1
  O  O195  1  0.49486308  0.76311820  0.61177182  1
  O  O196  1  0.96449619  0.24544209  0.10857230  1
  O  O197  1  1.01997516  0.25815726  0.63002547  1
  O  O198  1  1.00819403  0.72687789  0.13526898  1
  O  O199  1  0.99157902  0.74422033  0.62196444  1
  O  O200  1  -0.03399196  0.25672948  0.38589435  1
  O  O201  1  -0.00851713  0.24377968  0.84675416  1
  O  O202  1  -0.00377505  0.73957536  0.35994362  1
  O  O203  1  0.01429311  0.76021996  0.87132538  1
  O  O204  1  0.49414004  0.25837935  0.35710563  1
  O  O205  1  0.51390331  0.27260219  0.87438389  1
  O  O206  1  0.45558922  0.74543867  0.34791461  1
  O  O207  1  0.54394640  0.78345441  0.85784568  1
  O  O208  1  0.24400925  0.11725387  0.48470417  1
  O  O209  1  0.28509965  0.07604796  0.95663978  1
  O  O210  1  0.25000999  0.59411484  0.49363494  1
  O  O211  1  0.24592632  0.62244123  0.99055535  1
  O  O212  1  0.74383069  0.07732282  0.46756216  1
  O  O213  1  0.77511831  0.14511282  1.00117200  1
  O  O214  1  0.75216530  0.65224304  0.50058686  1
  O  O215  1  0.75965376  0.64089135  0.98867246  1
  O  O216  1  0.27066790  0.39550621  0.00741335  1
  O  O217  1  0.27956478  0.40874921  0.50453633  1
  O  O218  1  0.26441525  0.83663043  0.01350917  1
  O  O219  1  0.23074531  0.85702191  0.48890441  1
  O  O220  1  0.74046356  0.37759024  0.01104430  1
  O  O221  1  0.68842730  0.34621436  0.50565646  1
  O  O222  1  0.76349246  0.88060766  0.00442264  1
  O  O223  1  0.77304063  0.87751535  0.51343588  1
  O  O224  1  0.11395122  0.48326432  0.25915591  1
  O  O225  1  0.12218384  0.48837632  0.76836700  1
  O  O226  1  0.14289238  0.98103539  0.21948082  1
  O  O227  1  0.14547910  1.05853555  0.83427884  1
  O  O228  1  0.63195055  0.48734292  0.23652782  1
  O  O229  1  0.61801449  0.52728713  0.74991551  1
  O  O230  1  0.60252006  0.97380829  0.22163890  1
  O  O231  1  0.65157146  1.00424852  0.75768865  1
  O  O232  1  0.35891809  0.00839848  0.22191867  1
  O  O233  1  0.34127990  0.05356717  0.75871105  1
  O  O234  1  0.35563329  0.49452698  0.24553539  1
  O  O235  1  0.39684936  0.50156382  0.75645669  1
  O  O236  1  0.89534250  -0.00716768  0.26440909  1
  O  O237  1  0.88559574  0.02203577  0.75055686  1
  O  O238  1  0.85926338  0.48624157  0.24344653  1
  O  O239  1  0.84801066  0.45129374  0.80070679  1
  O  O240  1  0.06874049  0.36026705  0.43206351  1
  O  O241  1  0.14175483  0.42690326  0.80362728  1
  O  O242  1  0.13827348  0.88068846  0.34747354  1
  O  O243  1  0.11548784  0.86523720  0.86942282  1
  O  O244  1  0.61661859  0.37547657  0.35620330  1
  O  O245  1  0.61667732  0.39673207  0.87729513  1
  O  O246  1  0.65187404  0.88548436  0.34870020  1
  O  O247  1  0.61905604  0.89228056  0.86226337  1
  O  O248  1  0.38671574  0.13898584  0.10751938  1
  O  O249  1  0.34023198  0.14549922  0.63117245  1
  O  O250  1  0.35747933  0.61015653  0.13995468  1
  O  O251  1  0.40084568  0.64649345  0.61979444  1
  O  O252  1  0.88598565  0.12404472  0.13434186  1
  O  O253  1  0.87758297  0.13027607  0.61464312  1
  O  O254  1  0.88970186  0.61169436  0.12372206  1
  O  O255  1  0.87884085  0.64098871  0.62721134  1
  O  O256  1  0.27382925  0.25195167  0.13582901  1
  O  O257  1  0.21348443  0.30785836  0.59493060  1
  O  O258  1  0.23220347  0.73166544  0.11678648  1
  O  O259  1  0.26829384  0.75027531  0.61926305  1
  O  O260  1  0.75405307  0.25477428  0.12781158  1
  O  O261  1  0.72883341  0.29599888  0.65293438  1
  O  O262  1  0.75340796  0.76099931  0.11375377  1
  O  O263  1  0.77250839  0.76554560  0.62007575  1
  O  O264  1  0.24189265  0.23568914  0.36403865  1
  O  O265  1  0.23901544  0.27707382  0.89450343  1
  O  O266  1  0.23849787  0.71865869  0.39957017  1
  O  O267  1  0.24026234  0.73389121  0.88417927  1
  O  O268  1  0.73471318  0.22351568  0.37715621  1
  O  O269  1  0.72883855  0.23107789  0.85957310  1
  O  O270  1  0.76232318  0.76587045  0.38488057  1
  O  O271  1  0.74041032  0.75942331  0.87932228  1
  O  O272  1  0.01178275  0.12995128  0.01636445  1
  O  O273  1  0.03026213  0.15968985  0.51549788  1
  O  O274  1  0.00029728  0.63101557  0.00823856  1
  O  O275  1  -0.00027044  0.61956061  0.51990908  1
  O  O276  1  0.49854873  0.13032250  -0.00368104  1
  O  O277  1  0.48390906  0.10961599  0.48477497  1
  O  O278  1  0.49208704  0.61446839  -0.00189867  1
  O  O279  1  0.50692635  0.63341296  0.47171965  1
  O  O280  1  0.50323799  0.36046728  0.47824327  1
  O  O281  1  0.49634915  0.38953807  0.98812616  1
  O  O282  1  0.47804557  0.85128756  0.45404974  1
  O  O283  1  0.49295857  0.83193706  1.03292942  1
  O  O284  1  0.85872580  0.28625840  0.53603966  1
  O  O285  1  1.05725925  0.34370436  0.95099389  1
  O  O286  1  1.00281147  0.86437990  0.49228718  1
  O  O287  1  0.98836915  0.87139473  1.00704019  1
  O  O288  1  0.51205468  0.48916299  0.38204015  1
  O  O289  1  0.49151348  0.50370010  0.88723739  1
  O  O290  1  0.47953136  0.97172944  0.34881852  1
  O  O291  1  0.44288042  1.02109521  0.88444476  1
  O  O292  1  0.97485423  0.47714997  0.38056018  1
  O  O293  1  0.98650273  0.46674761  0.87502667  1
  O  O294  1  1.01807960  1.04065700  0.35903762  1
  O  O295  1  0.99411639  0.98340355  0.87323954  1
  O  O296  1  0.01743713  0.01196642  0.12258147  1
  O  O297  1  0.01613312  0.03084830  0.61992702  1
  O  O298  1  0.00033538  0.50275985  0.11687531  1
  O  O299  1  -0.03683407  0.50516570  0.63250821  1
  O  O300  1  0.50109609  0.02344659  0.12070811  1
  O  O301  1  0.44695717  0.01359510  0.57703564  1
  O  O302  1  0.51478978  0.49807425  0.11823108  1
  O  O303  1  0.51039088  0.54818176  0.61057186  1
  O  O304  1  0.23807405  0.37814926  0.26150936  1
  O  O305  1  0.26493671  0.36816062  0.72292586  1
  O  O306  1  0.23916424  0.85065001  0.23051120  1
  O  O307  1  0.29647393  0.90662445  0.79108259  1
  O  O308  1  0.73450347  0.37402937  0.24602874  1
  O  O309  1  0.76715967  0.36159080  0.68043389  1
  O  O310  1  0.74444957  0.87299134  0.22600246  1
  O  O311  1  0.77565621  0.89146552  0.73537206  1
  O  O312  1  0.23591893  0.11655004  0.21693400  1
  O  O313  1  0.26151076  0.19323451  0.75514747  1
  O  O314  1  0.23898888  0.59633062  0.26943380  1
  O  O315  1  0.24482246  0.63145471  0.75718157  1
  O  O316  1  0.72659765  0.11100390  0.26356209  1
  O  O317  1  0.76620018  0.10976033  0.73057318  1
  O  O318  1  0.75130914  0.60346432  0.24665787  1
  O  O319  1  0.74021795  0.66469547  0.78357366  1
  O  O320  1  0.30932781  0.11016269  0.45064801  1
  O  O321  1  0.36879136  0.15883183  0.85592554  1
  O  O322  1  0.34926646  0.60681238  0.36898258  1
  O  O323  1  0.36489071  0.61607978  0.87209735  1
  O  O324  1  0.87816287  0.10195969  0.38083794  1
  O  O325  1  0.89903479  0.11387740  0.87768801  1
  O  O326  1  0.87931296  0.59924950  0.38722640  1
  O  O327  1  0.91483247  0.60676932  0.85708001  1
  O  O328  1  0.09901256  0.38426112  0.12376118  1
  O  O329  1  0.14066500  0.43896190  0.61835572  1
  O  O330  1  0.13697890  0.86617200  0.12462302  1
  O  O331  1  0.12471651  0.88583928  0.63262860  1
  O  O332  1  0.63364252  0.37601654  0.12984218  1
  O  O333  1  0.58419245  0.42691891  0.63614778  1
  O  O334  1  0.64470478  0.88566700  0.11222568  1
  O  O335  1  0.65270002  0.86442507  0.64299633  1
  O  O336  1  0.17339658  0.22410075  0.32500260  1
  O  O337  1  0.11346197  0.27391545  0.75769467  1
  O  O338  1  0.11830226  0.75137842  0.25189156  1
  O  O339  1  0.13695073  0.75498227  0.75970123  1
  O  O340  1  0.60924141  0.26023151  0.23909734  1
  O  O341  1  0.60943788  0.24796202  0.76808581  1
  O  O342  1  0.61914832  0.76625538  0.21066489  1
  O  O343  1  0.63616434  0.81333748  0.70213422  1
  O  O344  1  0.39318461  0.25992952  0.23310208  1
  O  O345  1  0.39675644  0.26823873  0.74447367  1
  O  O346  1  0.34159638  0.71166580  0.24047803  1
  O  O347  1  0.37331391  0.76098533  0.73298965  1
  O  O348  1  0.86692786  0.24392170  0.24550427  1
  O  O349  1  0.85900325  0.22423198  0.75294793  1
  O  O350  1  0.88997762  0.75953130  0.24452917  1
  O  O351  1  0.88256102  0.76050249  0.73718587  1
  O  O352  1  0.41575234  0.49383815  0.50261764  1
  O  O353  1  0.38930004  0.49391727  1.01356434  1
  O  O354  1  0.46581979  1.08527531  0.57149337  1
  O  O355  1  0.38326235  0.94609958  1.01346371  1
  O  O356  1  0.85007321  0.49001082  0.49881105  1
  O  O357  1  0.85686423  0.49004592  0.97475021  1
  O  O358  1  0.90240194  0.98631586  0.48964610  1
  O  O359  1  0.87451384  0.99397508  0.98235893  1
  O  O360  1  0.12793508  -0.04271803  0.00124498  1
  O  O361  1  0.15492915  -0.05127827  0.59619151  1
  O  O362  1  0.12947555  0.48714813  0.00451751  1
  O  O363  1  0.12347553  0.47084098  0.55280319  1
  O  O364  1  0.62479036  -0.00128809  0.00562297  1
  O  O365  1  0.59270513  -0.04790105  0.50850603  1
  O  O366  1  0.61564772  0.50123699  0.01200094  1
  O  O367  1  0.61507269  0.51125940  0.49586045  1
  O  O368  1  0.39135532  0.36396904  0.11155860  1
  O  O369  1  0.38383270  0.38751790  0.61152982  1
  O  O370  1  0.35830327  0.83170758  0.12986656  1
  O  O371  1  0.37621612  0.87549762  0.62523869  1
  O  O372  1  0.85731350  0.35836783  0.12950061  1
  O  O373  1  0.82929017  0.38335556  0.63742516  1
  O  O374  1  0.86409253  0.88947062  0.10975938  1
  O  O375  1  0.88498451  0.87323482  0.61410710  1
  O  O376  1  0.13068266  0.16181200  0.35439175  1
  O  O377  1  0.12801538  0.12051244  0.88265809  1
  O  O378  1  0.12217775  0.60557644  0.38959816  1
  O  O379  1  0.12987832  0.63330287  0.86746932  1
  O  O380  1  0.61014432  0.10952723  0.37877086  1
  O  O381  1  0.59871441  0.12319383  0.87026842  1
  O  O382  1  0.59539952  0.66689138  0.31836882  1
  O  O383  1  0.61934659  0.64235745  0.90242974  1
