# generated using pymatgen
data_VZnO4
_symmetry_space_group_name_H-M   'P 1'
_cell_length_a   17.12953820
_cell_length_b   17.22665997
_cell_length_c   17.25041511
_cell_angle_alpha   90.74715713
_cell_angle_beta   90.24739677
_cell_angle_gamma   89.31426329
_symmetry_Int_Tables_number   1
_chemical_formula_structural   VZnO4
_chemical_formula_sum   'V64 Zn64 O256'
_cell_volume   5089.49265484
_cell_formula_units_Z   64
loop_
 _symmetry_equiv_pos_site_id
 _symmetry_equiv_pos_as_xyz
  1  'x, y, z'
loop_
 _atom_site_type_symbol
 _atom_site_label
 _atom_site_symmetry_multiplicity
 _atom_site_fract_x
 _atom_site_fract_y
 _atom_site_fract_z
 _atom_site_occupancy
  V  V0  1  0.57021786  0.63307623  0.09531528  1
  V  V1  1  0.11270885  0.26025090  0.37925918  1
  V  V2  1  0.25772930  0.87956648  0.12293783  1
  V  V3  1  0.49045897  0.58683516  0.66667601  1
  V  V4  1  -0.00413213  0.23889016  0.74943984  1
  V  V5  1  -0.00564418  0.50540922  0.53022707  1
  V  V6  1  0.01586798  0.87696327  0.89047149  1
  V  V7  1  0.12080510  0.89878958  0.26889053  1
  V  V8  1  0.74728076  0.49276257  0.25138179  1
  V  V9  1  0.91183639  0.78205765  0.15049056  1
  V  V10  1  0.63410094  0.38033579  0.75549877  1
  V  V11  1  0.93920247  0.84121866  0.46104679  1
  V  V12  1  0.87260115  0.39416071  -0.00022140  1
  V  V13  1  0.24669227  0.02594733  0.24976717  1
  V  V14  1  0.75150015  0.23231754  -0.00578198  1
  V  V15  1  0.73796290  0.88920295  0.11197554  1
  V  V16  1  0.20428064  0.23354581  0.54425530  1
  V  V17  1  0.11325999  0.37872781  0.74767657  1
  V  V18  1  0.23100711  0.12916004  0.88290973  1
  V  V19  1  0.86489275  0.38812919  0.52454816  1
  V  V20  1  0.74154977  0.62430191  0.36672096  1
  V  V21  1  0.74239921  0.00734505  0.72885911  1
  V  V22  1  0.26664163  0.79067377  -0.04395229  1
  V  V23  1  0.50620706  0.50736783  0.45308663  1
  V  V24  1  0.19752282  0.63534257  0.48651818  1
  V  V25  1  0.38919190  0.76678689  0.62920050  1
  V  V26  1  0.37522078  0.49160938  0.87759402  1
  V  V27  1  0.12576155  0.38674862  0.25141727  1
  V  V28  1  0.00308080  0.76802768  0.72061345  1
  V  V29  1  0.61933720  0.11194096  0.01143019  1
  V  V30  1  0.30799499  -0.04494116  0.41910458  1
  V  V31  1  0.87221510  0.12316198  0.25708711  1
  V  V32  1  0.74118815  0.25082516  0.49905885  1
  V  V33  1  0.88197319  0.00493554  0.89496899  1
  V  V34  1  0.24928454  0.38335126  0.63244264  1
  V  V35  1  0.25308835  0.15519624  0.37532475  1
  V  V36  1  0.47746625  0.25437498  0.76271975  1
  V  V37  1  0.47710755  0.77598910  0.78239230  1
  V  V38  1  0.45864615  0.79970649  0.29907523  1
  V  V39  1  0.11631564  0.26068393  0.88741214  1
  V  V40  1  0.86867706  0.23211486  0.63561830  1
  V  V41  1  0.37246835  0.35954874  -0.00013585  1
  V  V42  1  0.25328646  0.61206411  0.85714447  1
  V  V43  1  0.42306871  0.08124191  0.80383395  1
  V  V44  1  0.01133676  0.13450482  0.11251321  1
  V  V45  1  0.24404804  0.37823898  0.12556269  1
  V  V46  1  0.38326769  0.25173838  0.60417167  1
  V  V47  1  0.65265797  0.74398944  0.85827755  1
  V  V48  1  0.73870970  0.36574323  0.12663496  1
  V  V49  1  0.63352086  0.34453179  0.26282162  1
  V  V50  1  0.22422776  0.02033417  0.74168610  1
  V  V51  1  0.87073670  0.24526718  0.12359686  1
  V  V52  1  0.70684472  0.75104083  0.50508688  1
  V  V53  1  0.62180132  0.23650462  0.86419524  1
  V  V54  1  0.49590383  0.34596389  0.36660741  1
  V  V55  1  -0.00243681  0.25835847  0.25182483  1
  V  V56  1  0.88634372  0.48492425  0.36866460  1
  V  V57  1  0.87367334  0.01534876  0.39438490  1
  V  V58  1  0.38380976  0.24661561  0.14133848  1
  V  V59  1  0.50033709  0.10754200  0.61071454  1
  V  V60  1  0.12850219  0.01321473  0.11017676  1
  V  V61  1  0.39260339  0.13254250  0.25669595  1
  V  V62  1  0.13666196  0.60193355  0.04672824  1
  V  V63  1  0.50496529  0.48480800  0.01352225  1
  Zn  Zn64  1  0.18781936  0.20962305  0.19411033  1
  Zn  Zn65  1  0.18649240  0.18615088  0.70458447  1
  Zn  Zn66  1  0.09198099  0.70768105  0.21833983  1
  Zn  Zn67  1  0.21905905  0.67458885  0.66700772  1
  Zn  Zn68  1  0.66483765  0.14330596  0.21038323  1
  Zn  Zn69  1  0.68587471  0.18212401  0.67668329  1
  Zn  Zn70  1  0.59909369  0.84849749  0.24078225  1
  Zn  Zn71  1  0.60994223  0.72876369  0.66353221  1
  Zn  Zn72  1  0.28943954  0.36097367  0.34725114  1
  Zn  Zn73  1  0.28930902  0.31813577  0.82199847  1
  Zn  Zn74  1  0.27045103  0.81199989  0.29154853  1
  Zn  Zn75  1  0.29846329  0.84004517  0.77449669  1
  Zn  Zn76  1  0.81355491  0.30929270  0.31983022  1
  Zn  Zn77  1  0.81517707  0.31117447  0.81909807  1
  Zn  Zn78  1  0.77716263  0.79759118  0.26457741  1
  Zn  Zn79  1  0.84082709  0.81663661  0.81293547  1
  Zn  Zn80  1  0.16748660  0.45173014  0.44410138  1
  Zn  Zn81  1  0.17901585  0.44179082  0.94201326  1
  Zn  Zn82  1  0.15241779  0.83552506  0.43642489  1
  Zn  Zn83  1  0.20004116  0.94450482  0.92949361  1
  Zn  Zn84  1  0.68846447  0.44057963  0.43231219  1
  Zn  Zn85  1  0.68182075  0.41276298  0.93992469  1
  Zn  Zn86  1  0.70405059  0.90895443  0.39300125  1
  Zn  Zn87  1  0.71555147  0.94001033  0.92927106  1
  Zn  Zn88  1  0.27822491  0.13002349  0.08405724  1
  Zn  Zn89  1  0.30532183  0.07803488  0.57142409  1
  Zn  Zn90  1  0.30174309  0.53752975  0.05344737  1
  Zn  Zn91  1  0.34205277  0.54514133  0.55870972  1
  Zn  Zn92  1  0.81595822  0.05910097  0.07436353  1
  Zn  Zn93  1  0.79226689  0.06750680  0.56412481  1
  Zn  Zn94  1  0.76535711  0.56003605  0.06372224  1
  Zn  Zn95  1  0.87642270  0.64226021  0.48523566  1
  Zn  Zn96  1  0.45359001  0.40292539  0.18356473  1
  Zn  Zn97  1  0.43626955  0.41501652  0.70062337  1
  Zn  Zn98  1  0.42949607  0.94981636  0.19927940  1
  Zn  Zn99  1  0.43730357  0.93817712  0.69847040  1
  Zn  Zn100  1  0.92608186  0.42348443  0.18740756  1
  Zn  Zn101  1  0.93675033  0.43446246  0.69792243  1
  Zn  Zn102  1  0.95146266  0.95793461  0.18813774  1
  Zn  Zn103  1  0.92441138  0.90498660  0.65135738  1
  Zn  Zn104  1  0.06740824  0.08598238  0.31089529  1
  Zn  Zn105  1  0.05253679  0.06534836  0.82570030  1
  Zn  Zn106  1  0.07355385  0.56687340  0.33609178  1
  Zn  Zn107  1  0.12264015  0.57770516  0.77306662  1
  Zn  Zn108  1  0.50129544  -0.00888472  0.44838841  1
  Zn  Zn109  1  0.60316777  0.03300463  0.85254770  1
  Zn  Zn110  1  0.57159080  0.55419351  0.28568719  1
  Zn  Zn111  1  0.56579890  0.56033435  0.84292587  1
  Zn  Zn112  1  0.45123158  0.17799395  0.43882395  1
  Zn  Zn113  1  0.44010442  0.18203148  0.94763821  1
  Zn  Zn114  1  0.39556574  0.68330273  0.43812894  1
  Zn  Zn115  1  0.42868462  0.67299404  0.95285256  1
  Zn  Zn116  1  0.92234723  0.20627322  0.43835836  1
  Zn  Zn117  1  0.93658683  0.18914250  0.93105454  1
  Zn  Zn118  1  0.92855831  0.68865688  0.32996461  1
  Zn  Zn119  1  1.09544197  0.70935976  0.89912811  1
  Zn  Zn120  1  0.05238599  0.32869674  0.06799071  1
  Zn  Zn121  1  0.04793041  0.32048329  0.57381626  1
  Zn  Zn122  1  0.07133943  0.77660930  0.04605150  1
  Zn  Zn123  1  0.04706348  0.70879516  0.52448068  1
  Zn  Zn124  1  0.56080875  0.30040089  0.05690151  1
  Zn  Zn125  1  0.58973925  0.37863904  0.55009424  1
  Zn  Zn126  1  0.56969289  0.83247389  0.05353806  1
  Zn  Zn127  1  0.53486881  0.68719306  0.51927379  1
  O  O128  1  0.11452062  0.13726150  0.12898167  1
  O  O129  1  0.13402573  0.19812883  0.60296017  1
  O  O130  1  0.12708961  0.62420159  0.14396088  1
  O  O131  1  0.16782182  0.61677211  0.57974416  1
  O  O132  1  0.63503762  0.10667651  0.10994532  1
  O  O133  1  0.59240818  0.14082554  0.62478574  1
  O  O134  1  0.66396691  0.60845803  0.06804604  1
  O  O135  1  0.56898730  0.63082070  0.61321128  1
  O  O136  1  0.40072136  0.36119087  0.34372738  1
  O  O137  1  0.35462671  0.37613398  0.89921020  1
  O  O138  1  0.26652550  0.86052929  0.40263234  1
  O  O139  1  0.28171159  0.85801939  0.88251764  1
  O  O140  1  0.87481896  0.38376965  0.38364898  1
  O  O141  1  0.86201697  0.37322039  0.90290099  1
  O  O142  1  0.92196255  0.91724256  0.39343412  1
  O  O143  1  0.90282586  0.88599818  0.87571551  1
  O  O144  1  0.25453992  0.03054015  0.36625193  1
  O  O145  1  0.23669673  0.02559727  0.86108323  1
  O  O146  1  0.26962059  0.44412386  0.41598690  1
  O  O147  1  0.26110664  0.50336227  0.89097749  1
  O  O148  1  0.78087500  -0.00694032  0.37501987  1
  O  O149  1  0.78316473  -0.01013011  0.85763701  1
  O  O150  1  0.75929602  0.49881481  0.36483908  1
  O  O151  1  0.74757294  0.50222497  0.87633515  1
  O  O152  1  0.25292797  0.47504474  0.13591845  1
  O  O153  1  0.26202070  0.47735824  0.61182861  1
  O  O154  1  0.23351642  1.03797275  0.13748290  1
  O  O155  1  0.22985930  1.06102614  0.64883099  1
  O  O156  1  0.75434883  0.47004192  0.13980304  1
  O  O157  1  0.78500780  0.56921881  0.61831839  1
  O  O158  1  0.77068713  0.98039951  0.13822980  1
  O  O159  1  0.73337727  1.00177111  0.62806869  1
  O  O160  1  0.01099331  0.36393818  0.23384565  1
  O  O161  1  0.00824082  0.36188107  0.74737153  1
  O  O162  1  0.02560492  0.89326100  0.24630067  1
  O  O163  1  0.00652928  0.87038357  0.71912597  1
  O  O164  1  0.52811663  0.36207833  0.25620213  1
  O  O165  1  0.51253605  0.35017709  0.76202121  1
  O  O166  1  0.49401900  0.89804801  0.27264860  1
  O  O167  1  0.47686242  0.87454459  0.78561859  1
  O  O168  1  0.48599612  0.11810242  0.26085830  1
  O  O169  1  0.47904507  0.14241329  0.73962584  1
  O  O170  1  0.55311126  0.60303927  0.18792634  1
  O  O171  1  0.50072234  0.60787446  0.76381082  1
  O  O172  1  0.99561446  0.14640508  0.24226266  1
  O  O173  1  1.00451391  0.14203291  0.74891672  1
  O  O174  1  0.95313983  0.57760573  0.13220787  1
  O  O175  1  1.06969487  0.67072192  0.73991922  1
  O  O176  1  0.37676007  0.25768440  0.00889474  1
  O  O177  1  0.39408198  0.25743906  0.50835137  1
  O  O178  1  0.34820803  0.74677373  -0.00583565  1
  O  O179  1  0.42795637  0.73343538  0.53957607  1
  O  O180  1  0.86366180  0.24543719  0.00801039  1
  O  O181  1  0.87122471  0.26705166  0.52259437  1
  O  O182  1  0.87654083  0.69978106  0.07671504  1
  O  O183  1  0.90382807  0.74911006  0.43217067  1
  O  O184  1  0.11160351  0.26986967  0.48149796  1
  O  O185  1  0.10538226  0.27246218  0.98358645  1
  O  O186  1  0.15697493  0.72790964  0.47030013  1
  O  O187  1  0.16740397  0.76938294  0.97731203  1
  O  O188  1  0.64808538  0.28333543  0.51328247  1
  O  O189  1  0.63889050  0.23595939  1.00154042  1
  O  O190  1  0.61349494  0.74785503  0.47268755  1
  O  O191  1  0.62709551  0.79692083  0.95381979  1
  O  O192  1  0.48194728  0.26213723  0.12613805  1
  O  O193  1  0.47712229  0.25558919  0.64727599  1
  O  O194  1  0.55244505  0.73018079  0.08780800  1
  O  O195  1  0.49051915  0.74852772  0.67663878  1
  O  O196  1  0.98926117  0.24732743  0.13116441  1
  O  O197  1  0.98063245  0.25528810  0.64000506  1
  O  O198  1  1.01314971  0.75512888  0.14176742  1
  O  O199  1  1.00747307  0.74541682  0.62243696  1
  O  O200  1  0.00540201  0.25336877  0.36559907  1
  O  O201  1  0.00512074  0.25036113  0.86241723  1
  O  O202  1  0.03278186  0.66178700  0.30041011  1
  O  O203  1  0.02639192  0.77894043  0.84400154  1
  O  O204  1  0.50793531  0.24804026  0.37544091  1
  O  O205  1  0.51203897  0.23317096  0.86568227  1
  O  O206  1  0.44398295  0.77787915  0.39451679  1
  O  O207  1  0.47769883  0.73775955  0.87481472  1
  O  O208  1  0.25060517  0.15512367  0.49169933  1
  O  O209  1  0.25687206  0.12679706  0.97865160  1
  O  O210  1  0.29989424  0.62851081  0.48491412  1
  O  O211  1  0.23541715  0.61961795  1.02321232  1
  O  O212  1  0.73846820  0.15203367  0.51325363  1
  O  O213  1  0.74959152  0.13289952  1.00989407  1
  O  O214  1  0.75589931  0.65738776  0.47186818  1
  O  O215  1  0.76816539  0.56424009  0.90839154  1
  O  O216  1  0.25687698  0.37516352  0.01956404  1
  O  O217  1  0.23165321  0.33736069  0.53742751  1
  O  O218  1  0.25170651  0.88719307  0.01822027  1
  O  O219  1  0.13162302  0.88048784  0.62057498  1
  O  O220  1  0.75205939  0.35905657  0.01565356  1
  O  O221  1  0.76496864  0.37966565  0.49809738  1
  O  O222  1  0.74855046  0.87792930  0.01496728  1
  O  O223  1  0.74110899  0.83833256  0.47118337  1
  O  O224  1  0.11459706  0.48282101  0.26008861  1
  O  O225  1  0.10255873  0.47637872  0.75178472  1
  O  O226  1  0.13227524  1.01554328  0.24990925  1
  O  O227  1  0.12556146  1.02445698  0.74990030  1
  O  O228  1  0.64750491  0.46652013  0.25433859  1
  O  O229  1  0.61743627  0.47284248  0.78948405  1
  O  O230  1  0.60958893  1.02344602  0.31751718  1
  O  O231  1  0.65198215  0.98194771  0.76700119  1
  O  O232  1  0.35883288  0.03081824  0.24350425  1
  O  O233  1  0.36694107  0.01695444  0.75019161  1
  O  O234  1  0.39471559  0.51231650  0.22644026  1
  O  O235  1  0.37678758  0.47157928  0.78194421  1
  O  O236  1  0.90053945  0.02378610  0.26453649  1
  O  O237  1  0.85817321  -0.03458847  0.72609729  1
  O  O238  1  0.86149502  0.47695737  0.26194429  1
  O  O239  1  0.86985169  0.50331838  0.76342926  1
  O  O240  1  0.12329460  0.36742207  0.35916949  1
  O  O241  1  0.13165584  0.36660523  0.86271179  1
  O  O242  1  0.12082836  0.91785892  0.36619900  1
  O  O243  1  0.11133590  0.90471752  0.87284568  1
  O  O244  1  0.63659090  0.35793904  0.36160519  1
  O  O245  1  0.62528037  0.34060342  0.87680432  1
  O  O246  1  0.60817564  0.98523825  0.39536893  1
  O  O247  1  0.63222082  0.85504646  0.89434367  1
  O  O248  1  0.37885145  0.14010003  0.13877009  1
  O  O249  1  0.39161943  0.14136839  0.60997383  1
  O  O250  1  0.38169610  0.56455733  0.17866947  1
  O  O251  1  0.39578073  0.61155496  0.63650964  1
  O  O252  1  0.89067185  0.13199463  0.13506341  1
  O  O253  1  0.87398106  0.13647982  0.62494494  1
  O  O254  1  0.82561410  0.65578856  0.11257404  1
  O  O255  1  0.86709789  0.66799636  0.60399687  1
  O  O256  1  0.26599531  0.24904124  0.12490120  1
  O  O257  1  0.27449926  0.23434104  0.62853068  1
  O  O258  1  0.24713870  0.78656503  0.13710170  1
  O  O259  1  0.28940829  0.74574094  0.62497081  1
  O  O260  1  0.76156037  0.25197084  0.11616040  1
  O  O261  1  0.76613941  0.25163370  0.62734444  1
  O  O262  1  0.78807834  0.80737301  0.15153024  1
  O  O263  1  0.70273613  0.74861283  0.60478047  1
  O  O264  1  0.23494106  0.25940913  0.37499468  1
  O  O265  1  0.22417730  0.24450824  0.87523496  1
  O  O266  1  0.29368322  0.64122092  0.31262124  1
  O  O267  1  0.26010372  0.71106302  0.87310533  1
  O  O268  1  0.76628725  0.25280883  0.40126513  1
  O  O269  1  0.74818572  0.24460642  0.89360298  1
  O  O270  1  0.75376693  0.71319997  0.32996881  1
  O  O271  1  0.74890761  0.75429164  0.83696789  1
  O  O272  1  -0.00027154  0.14187880  0.01696503  1
  O  O273  1  0.00625479  0.11817057  0.46281477  1
  O  O274  1  0.06528549  0.66487451  0.00369312  1
  O  O275  1  -0.00912972  0.60872026  0.50088037  1
  O  O276  1  0.52145585  0.13022502  0.00420135  1
  O  O277  1  0.49294409  0.09353906  0.50245647  1
  O  O278  1  0.49494038  0.59777465  0.02098706  1
  O  O279  1  0.49559615  0.60987477  0.44643584  1
  O  O280  1  0.50918513  0.37726263  0.46333251  1
  O  O281  1  0.48023171  0.36983430  1.00202280  1
  O  O282  1  0.53375986  0.90146226  0.51687229  1
  O  O283  1  0.48927770  0.89842968  1.00012454  1
  O  O284  1  0.97415976  0.38705762  0.51835456  1
  O  O285  1  0.97133103  0.38921678  1.01999341  1
  O  O286  1  1.03828436  0.82243449  0.47317407  1
  O  O287  1  1.01808766  0.85683806  0.98700049  1
  O  O288  1  0.50801203  0.48625059  0.35290818  1
  O  O289  1  0.47888971  0.49920567  0.89846429  1
  O  O290  1  0.40490800  0.95963815  0.39735965  1
  O  O291  1  0.49108416  1.02963855  0.85369082  1
  O  O292  1  0.98418029  0.49857279  0.36607178  1
  O  O293  1  0.91656487  0.53706358  0.82115269  1
  O  O294  1  1.00558840  1.06062385  0.41136672  1
  O  O295  1  0.99089106  0.98965860  0.87417932  1
  O  O296  1  0.01841531  0.02729769  0.12672961  1
  O  O297  1  0.01784930  -0.00223382  0.57509144  1
  O  O298  1  -0.00929003  0.51628683  0.14449457  1
  O  O299  1  -0.01706064  0.51114590  0.62759300  1
  O  O300  1  0.50214368  -0.02267513  0.10557582  1
  O  O301  1  0.49690593  0.01508601  0.64054725  1
  O  O302  1  0.50567916  0.47055195  0.11150433  1
  O  O303  1  0.49920006  0.48815640  0.64879126  1
  O  O304  1  0.23187212  0.36758692  0.24310103  1
  O  O305  1  0.23197928  0.36925343  0.73866644  1
  O  O306  1  0.24293468  0.91661404  0.24025960  1
  O  O307  1  0.24551560  0.92220872  0.72792491  1
  O  O308  1  0.74772923  0.36032198  0.23859873  1
  O  O309  1  0.73328954  0.36750603  0.76849969  1
  O  O310  1  0.69659832  0.86980707  0.28937547  1
  O  O311  1  0.80212566  0.90135085  0.73052127  1
  O  O312  1  0.24905991  0.13735432  0.26271674  1
  O  O313  1  0.25155838  0.13215937  0.77532200  1
  O  O314  1  0.25655665  0.58967021  0.27435043  1
  O  O315  1  0.24182856  0.60376141  0.75571472  1
  O  O316  1  0.77611989  0.12540621  0.23759797  1
  O  O317  1  0.74689696  0.10723367  0.73968242  1
  O  O318  1  0.74761827  0.58932104  0.24504327  1
  O  O319  1  0.81330434  0.63160740  0.64591049  1
  O  O320  1  0.36504097  0.14667789  0.36357220  1
  O  O321  1  0.36903396  0.13360343  0.87377381  1
  O  O322  1  0.36695137  0.62220512  0.33738041  1
  O  O323  1  0.36171480  0.59934723  0.88751903  1
  O  O324  1  0.87677866  0.12914411  0.36301059  1
  O  O325  1  0.89201829  0.10374266  0.87397708  1
  O  O326  1  0.86175869  0.60012878  0.37195349  1
  O  O327  1  0.89408629  0.60300638  0.84595070  1
  O  O328  1  0.13622846  0.36359043  0.13683791  1
  O  O329  1  0.13064973  0.36683763  0.64205592  1
  O  O330  1  0.14094621  0.91361737  0.13461029  1
  O  O331  1  0.07108534  1.04203816  0.59231189  1
  O  O332  1  0.63870901  0.35562985  0.13011844  1
  O  O333  1  0.62057849  0.37665518  0.65718771  1
  O  O334  1  0.63531191  0.87762662  0.13321644  1
  O  O335  1  0.60414291  0.88479535  0.62576183  1
  O  O336  1  0.11182766  0.26069625  0.26085052  1
  O  O337  1  0.10868860  0.25773950  0.75934869  1
  O  O338  1  0.15477391  0.79619218  0.26934990  1
  O  O339  1  0.12811050  0.73054852  0.72653433  1
  O  O340  1  0.64119766  0.24740045  0.24640198  1
  O  O341  1  0.62738533  0.24093901  0.76304262  1
  O  O342  1  0.53835652  0.75034936  0.26244303  1
  O  O343  1  0.59692960  0.76073829  0.77185389  1
  O  O344  1  0.37975779  0.24255694  0.24224153  1
  O  O345  1  0.38140436  0.26695085  0.77403965  1
  O  O346  1  0.36944232  0.77934012  0.25459706  1
  O  O347  1  0.37387357  0.76212322  0.75002030  1
  O  O348  1  0.88115279  0.24578694  0.24407327  1
  O  O349  1  0.88304355  0.25435767  0.74517964  1
  O  O350  1  0.89342146  0.76560290  0.24977083  1
  O  O351  1  0.90789431  0.75121372  0.74506877  1
  O  O352  1  0.42023424  0.48960996  0.50041809  1
  O  O353  1  0.38241866  0.47768427  1.00463790  1
  O  O354  1  0.30020276  0.98247443  0.51285812  1
  O  O355  1  0.46635232  0.96359335  1.03743202  1
  O  O356  1  0.88328224  0.49258222  0.48910341  1
  O  O357  1  0.84466330  0.48984400  1.01455365  1
  O  O358  1  0.87226558  1.03473008  0.49066673  1
  O  O359  1  0.87318903  1.00517698  0.99309118  1
  O  O360  1  0.13725587  0.01107584  0.01495352  1
  O  O361  1  0.17560967  -0.10293418  0.56712050  1
  O  O362  1  0.12302996  0.50432621  0.01974502  1
  O  O363  1  0.08872102  0.47640883  0.51475735  1
  O  O364  1  0.63420266  0.01654405  -0.02952459  1
  O  O365  1  0.59682775  -0.07822272  0.56312096  1
  O  O366  1  0.60182174  0.47517788  -0.01167095  1
  O  O367  1  0.60315760  0.48440134  0.49573433  1
  O  O368  1  0.36165770  0.36103959  0.12538684  1
  O  O369  1  0.35654296  0.35656280  0.63861478  1
  O  O370  1  0.35459640  0.90032054  0.13384406  1
  O  O371  1  0.39017238  0.86591254  0.62562662  1
  O  O372  1  0.86239895  0.35855150  0.11860791  1
  O  O373  1  0.85892080  0.39386804  0.62318975  1
  O  O374  1  0.91552808  0.87578077  0.12211314  1
  O  O375  1  0.90368479  0.87166705  0.54885667  1
  O  O376  1  0.13717832  0.15533271  0.37158885  1
  O  O377  1  0.12435156  0.14305988  0.88166272  1
  O  O378  1  0.15700262  0.57336664  0.41581703  1
  O  O379  1  0.14903957  0.60761667  0.88043912  1
  O  O380  1  0.63815331  0.09195854  0.32074981  1
  O  O381  1  0.63487953  0.13838704  0.89033433  1
  O  O382  1  0.64476602  0.60451227  0.36289034  1
  O  O383  1  0.63290416  0.64796337  0.87802646  1
