# generated using pymatgen
data_VZnO4
_symmetry_space_group_name_H-M   'P 1'
_cell_length_a   16.92283865
_cell_length_b   16.96310481
_cell_length_c   16.94096730
_cell_angle_alpha   89.81239645
_cell_angle_beta   90.35673450
_cell_angle_gamma   90.20245669
_symmetry_Int_Tables_number   1
_chemical_formula_structural   VZnO4
_chemical_formula_sum   'V64 Zn64 O256'
_cell_volume   4862.98956029
_cell_formula_units_Z   64
loop_
 _symmetry_equiv_pos_site_id
 _symmetry_equiv_pos_as_xyz
  1  'x, y, z'
loop_
 _atom_site_type_symbol
 _atom_site_label
 _atom_site_symmetry_multiplicity
 _atom_site_fract_x
 _atom_site_fract_y
 _atom_site_fract_z
 _atom_site_occupancy
  V  V0  1  0.63674196  0.87765795  0.24400279  1
  V  V1  1  0.38064453  0.87249189  0.01360597  1
  V  V2  1  0.86733241  0.75055498  0.11579422  1
  V  V3  1  0.61591934  0.73447935  0.89667129  1
  V  V4  1  0.12457106  0.12603432  0.02447830  1
  V  V5  1  0.36807662  0.12217202  0.76601669  1
  V  V6  1  0.14232076  0.76244238  0.87429877  1
  V  V7  1  0.48776793  0.87470566  0.35056390  1
  V  V8  1  0.87087961  0.15232532  0.74972091  1
  V  V9  1  0.76379037  0.63317758  0.38221983  1
  V  V10  1  0.38386717  0.23574400  0.62183857  1
  V  V11  1  0.86616653  0.00164655  0.86192112  1
  V  V12  1  0.22451238  0.13928532  0.87180366  1
  V  V13  1  -0.01010205  0.90809861  0.37609208  1
  V  V14  1  -0.00469204  0.62916607  0.12567561  1
  V  V15  1  -0.01904503  0.00814784  0.51316991  1
  V  V16  1  0.14003756  0.47952349  0.13155274  1
  V  V17  1  0.62743079  0.25237330  0.88002318  1
  V  V18  1  0.50275869  0.89595529  0.87481952  1
  V  V19  1  0.85920239  0.85558735  0.50435348  1
  V  V20  1  0.25076631  0.62693320  0.85713530  1
  V  V21  1  0.76369016  0.37053164  0.12081723  1
  V  V22  1  0.87235629  0.48575017  0.39433572  1
  V  V23  1  0.00565881  0.14837066  0.63891588  1
  V  V24  1  0.38880958  0.37521236  0.49694378  1
  V  V25  1  0.49753711  0.23178504  0.23154286  1
  V  V26  1  0.61465111  0.50752520  0.11750513  1
  V  V27  1  0.01990812  0.49305166  0.50185511  1
  V  V28  1  0.49890234  0.25314146  0.74948988  1
  V  V29  1  -0.01534300  0.86846049  0.86526445  1
  V  V30  1  0.76124556  0.24932772  0.00231906  1
  V  V31  1  0.61506778  0.12016746  0.01082425  1
  V  V32  1  0.35903755  0.50145088  0.35932821  1
  V  V33  1  0.61376311  0.39820569  0.74417782  1
  V  V34  1  0.24356453  0.75114516  0.49648395  1
  V  V35  1  0.11414321  0.88640083  0.23814001  1
  V  V36  1  0.13222658  -0.00746395  0.63975248  1
  V  V37  1  0.00742239  0.35895267  0.36676328  1
  V  V38  1  0.25403589  0.38886886  0.62611687  1
  V  V39  1  0.12551887  0.12393764  0.49510416  1
  V  V40  1  -0.00672749  0.50013125  -0.00516601  1
  V  V41  1  0.61396374  0.74050968  0.37428667  1
  V  V42  1  0.50102408  0.36627046  0.37403523  1
  V  V43  1  0.62496364  0.23419904  0.37953383  1
  V  V44  1  0.50192393  0.39043589  0.89055369  1
  V  V45  1  0.62512888  0.37037750  0.24416026  1
  V  V46  1  0.36215432  0.23697691  0.11138977  1
  V  V47  1  0.37094090  0.50777094  0.87355743  1
  V  V48  1  0.74239896  0.38594461  0.61174898  1
  V  V49  1  0.75176291  0.11529566  0.35262844  1
  V  V50  1  0.00888511  -0.00578919  -0.00197706  1
  V  V51  1  0.77142952  0.50301367  0.75969486  1
  V  V52  1  -0.00904954  0.74203611  0.26687942  1
  V  V53  1  -0.01069227  0.62481360  0.62090266  1
  V  V54  1  0.75519549  0.89468009  0.11814686  1
  V  V55  1  0.35327657  0.38084663  0.00779331  1
  V  V56  1  0.51276631  0.74976433  0.72632233  1
  V  V57  1  0.76255205  0.50304158  0.24904972  1
  V  V58  1  0.24991749  0.24968278  0.49795919  1
  V  V59  1  0.14815005  0.63788665  0.02115141  1
  V  V60  1  0.76548827  0.62885439  0.88814334  1
  V  V61  1  0.49616461  0.01169810  0.53316933  1
  V  V62  1  0.09693684  0.36812774  0.79042791  1
  V  V63  1  0.25891141  0.11737643  0.37000505  1
  Zn  Zn64  1  0.19037655  0.25121228  0.20948535  1
  Zn  Zn65  1  0.18666756  0.20226519  0.68901070  1
  Zn  Zn66  1  0.16108282  0.67493063  0.23155714  1
  Zn  Zn67  1  0.12598084  0.64314456  0.72426802  1
  Zn  Zn68  1  0.68808396  0.18187016  0.18453406  1
  Zn  Zn69  1  0.70365226  0.21919387  0.70229108  1
  Zn  Zn70  1  0.68406669  0.68572800  0.19388979  1
  Zn  Zn71  1  0.66341354  0.67358443  0.72677097  1
  Zn  Zn72  1  0.32241016  0.29706439  0.30758653  1
  Zn  Zn73  1  0.30767403  0.31292135  0.81241275  1
  Zn  Zn74  1  0.28916645  0.81679226  0.30169264  1
  Zn  Zn75  1  0.34086867  0.79952407  0.81391887  1
  Zn  Zn76  1  0.80565001  0.31244904  0.32075331  1
  Zn  Zn77  1  0.80825780  0.32579940  0.81311604  1
  Zn  Zn78  1  0.82003592  0.81924526  0.30601796  1
  Zn  Zn79  1  0.80739981  0.80657892  0.94243523  1
  Zn  Zn80  1  0.18693834  0.42644992  0.31225938  1
  Zn  Zn81  1  0.17721095  0.45602186  0.93207586  1
  Zn  Zn82  1  0.17131983  0.94454323  0.43194301  1
  Zn  Zn83  1  0.20677399  0.95625318  0.93139211  1
  Zn  Zn84  1  0.66859777  0.45464939  0.43076641  1
  Zn  Zn85  1  0.69122651  0.44426665  0.94163219  1
  Zn  Zn86  1  0.67220903  0.93778289  0.44328711  1
  Zn  Zn87  1  0.68009232  0.93575204  0.93589915  1
  Zn  Zn88  1  0.31200262  0.05874008  0.03589062  1
  Zn  Zn89  1  0.31452363  0.05307300  0.56323434  1
  Zn  Zn90  1  0.32376734  0.55582720  0.07510397  1
  Zn  Zn91  1  0.18929823  0.55327346  0.56240517  1
  Zn  Zn92  1  0.79954614  0.05350107  0.02446736  1
  Zn  Zn93  1  0.80833188  0.07827937  0.58425314  1
  Zn  Zn94  1  0.81187787  0.55867314  0.06752772  1
  Zn  Zn95  1  0.78286167  0.58850781  0.58716799  1
  Zn  Zn96  1  0.43710471  0.42859309  0.18668659  1
  Zn  Zn97  1  0.42122460  0.44197609  0.68847454  1
  Zn  Zn98  1  0.43679201  0.80789318  0.19093466  1
  Zn  Zn99  1  0.44983311  0.94534781  0.70610021  1
  Zn  Zn100  1  0.94977526  0.43664223  0.18369996  1
  Zn  Zn101  1  0.93341211  0.41445878  0.66304581  1
  Zn  Zn102  1  0.94332561  0.92954193  0.17872773  1
  Zn  Zn103  1  0.93519707  0.93117378  0.68578281  1
  Zn  Zn104  1  0.13749820  0.07796913  0.23384026  1
  Zn  Zn105  1  0.05866599  0.06149328  0.81385467  1
  Zn  Zn106  1  0.05789475  0.55386039  0.31510906  1
  Zn  Zn107  1  -0.01244907  0.51162283  0.78692613  1
  Zn  Zn108  1  0.55884962  0.05140612  0.30537856  1
  Zn  Zn109  1  0.56917409  0.07400875  0.80299855  1
  Zn  Zn110  1  0.56822052  0.55924212  0.31932358  1
  Zn  Zn111  1  0.55125577  0.57666883  0.81683893  1
  Zn  Zn112  1  0.44453523  0.17439954  0.43253471  1
  Zn  Zn113  1  0.43775133  0.19824428  0.93882921  1
  Zn  Zn114  1  0.43482282  0.67460655  0.43503734  1
  Zn  Zn115  1  0.41329474  0.70724114  0.93915259  1
  Zn  Zn116  1  0.93501077  0.17649107  0.43150213  1
  Zn  Zn117  1  0.93795085  0.17310473  0.94136977  1
  Zn  Zn118  1  0.92657543  0.67154207  0.44719361  1
  Zn  Zn119  1  0.95313757  0.68551976  0.93715934  1
  Zn  Zn120  1  0.09322470  0.33150325  0.00692122  1
  Zn  Zn121  1  0.07050026  0.32281187  0.55391688  1
  Zn  Zn122  1  0.06212865  0.81334788  0.05701587  1
  Zn  Zn123  1  0.04990228  0.81636333  0.56983589  1
  Zn  Zn124  1  0.56629296  0.31431440  0.06428547  1
  Zn  Zn125  1  0.57986190  0.30425139  0.56830978  1
  Zn  Zn126  1  0.56912620  0.82271529  0.05496510  1
  Zn  Zn127  1  0.55190539  0.82955566  0.53149317  1
  O  O128  1  0.13862818  0.09963823  0.11959851  1
  O  O129  1  0.11432518  0.12480455  0.62611890  1
  O  O130  1  0.12035914  0.63590420  0.12636599  1
  O  O131  1  0.11496683  0.61457572  0.61655612  1
  O  O132  1  0.62022479  0.12828060  0.11086011  1
  O  O133  1  0.65371721  0.07428716  0.65705428  1
  O  O134  1  0.62996799  0.60602283  0.13580374  1
  O  O135  1  0.72235081  0.69040527  0.62553109  1
  O  O136  1  0.39059464  0.34566753  0.38597872  1
  O  O137  1  0.38377874  0.38700185  0.88545499  1
  O  O138  1  0.39920501  0.83312529  0.29854780  1
  O  O139  1  0.39630008  0.87208810  0.88417856  1
  O  O140  1  0.87678410  0.38129681  0.37465790  1
  O  O141  1  0.90626662  0.34193819  0.88836588  1
  O  O142  1  0.88680667  0.87303182  0.38846385  1
  O  O143  1  0.88075135  0.87670391  0.87658803  1
  O  O144  1  0.23877706  0.01876546  0.37960490  1
  O  O145  1  0.24500092  0.03769171  0.86231330  1
  O  O146  1  0.26028159  0.48778139  0.37558445  1
  O  O147  1  0.26198357  0.51480227  0.88339919  1
  O  O148  1  0.72857147  0.02722200  0.39869325  1
  O  O149  1  0.76760975  -0.00821927  0.88008058  1
  O  O150  1  0.75922757  0.49197016  0.36181731  1
  O  O151  1  0.75566392  0.50094471  0.86686127  1
  O  O152  1  0.23917286  0.49392530  0.12579688  1
  O  O153  1  0.26834787  0.48773992  0.60626690  1
  O  O154  1  0.29800980  1.00616744  0.17943801  1
  O  O155  1  0.23132701  1.00731475  0.62286253  1
  O  O156  1  0.74466963  0.48760418  0.13500132  1
  O  O157  1  0.74477062  0.49618353  0.64985082  1
  O  O158  1  0.76149414  0.99352702  0.11514929  1
  O  O159  1  0.70231447  1.03815417  0.60193499  1
  O  O160  1  -0.00857888  0.37243779  0.26571182  1
  O  O161  1  -0.00224388  0.39381043  0.75666164  1
  O  O162  1  -0.01338790  0.87179660  0.26798255  1
  O  O163  1  -0.00493356  0.87070515  0.76546558  1
  O  O164  1  0.50778812  0.35558472  0.25487188  1
  O  O165  1  0.50184883  0.37671983  0.75920137  1
  O  O166  1  0.53099408  0.85867927  0.23647447  1
  O  O167  1  0.50139002  0.86690403  0.77139152  1
  O  O168  1  0.50571101  0.13330133  0.24357585  1
  O  O169  1  0.49002733  0.14744586  0.75984344  1
  O  O170  1  0.50617172  0.62089735  0.25120834  1
  O  O171  1  0.54311659  0.64552717  0.72314751  1
  O  O172  1  1.04475542  0.17018132  0.24220487  1
  O  O173  1  0.99762965  0.13748059  0.74255462  1
  O  O174  1  1.00415800  0.63601824  0.23776321  1
  O  O175  1  1.01594420  0.60341988  0.72654178  1
  O  O176  1  0.37907573  0.27000671  0.00503669  1
  O  O177  1  0.37835127  0.24069613  0.51244111  1
  O  O178  1  0.35208340  0.77552768  0.00217355  1
  O  O179  1  0.34856400  0.73938641  0.48834533  1
  O  O180  1  0.85912107  0.23624241  -0.00193342  1
  O  O181  1  0.84728660  0.23002686  0.51221490  1
  O  O182  1  0.88269543  0.74991949  0.01107891  1
  O  O183  1  0.87454182  0.75671503  0.50307160  1
  O  O184  1  0.14465778  0.23886149  0.51301414  1
  O  O185  1  0.11071129  0.22525939  1.02890382  1
  O  O186  1  0.13984764  0.75767024  0.50227413  1
  O  O187  1  0.13189417  0.74091313  0.99796221  1
  O  O188  1  0.61552731  0.24233026  0.47760210  1
  O  O189  1  0.62771737  0.24929737  0.98924306  1
  O  O190  1  0.62581715  0.75985247  0.47288087  1
  O  O191  1  0.62896647  0.74497431  0.99600584  1
  O  O192  1  0.49710028  0.24973318  0.12866142  1
  O  O193  1  0.49375171  0.25538863  0.63496783  1
  O  O194  1  0.50197255  0.74065598  0.11853752  1
  O  O195  1  0.52103482  0.78575523  0.63179677  1
  O  O196  1  0.91062480  0.23881144  0.17930590  1
  O  O197  1  1.00750180  0.24571805  0.61936754  1
  O  O198  1  0.99176339  0.74147875  0.12429582  1
  O  O199  1  1.00109950  0.72522539  0.61194075  1
  O  O200  1  -0.01024883  0.25999557  0.38393225  1
  O  O201  1  -0.04074683  0.28796286  0.88540173  1
  O  O202  1  -0.01712968  0.73345419  0.36504353  1
  O  O203  1  0.02151476  0.76724677  0.88661922  1
  O  O204  1  0.50831986  0.24458273  0.35726583  1
  O  O205  1  0.50881284  0.27078846  0.86983756  1
  O  O206  1  0.51498101  0.71791369  0.36496587  1
  O  O207  1  0.51085110  0.72782423  0.89072922  1
  O  O208  1  0.24366010  0.12815292  0.49688286  1
  O  O209  1  0.22742716  0.12227872  0.98633832  1
  O  O210  1  0.23337557  0.64815489  0.50163618  1
  O  O211  1  0.24795111  0.63139320  1.02616263  1
  O  O212  1  0.78583669  0.18779834  0.52456893  1
  O  O213  1  0.73518032  0.14539048  1.00037203  1
  O  O214  1  0.75371765  0.61128498  0.47965453  1
  O  O215  1  0.75269665  0.60972797  0.98565383  1
  O  O216  1  0.25561147  0.37973139  -0.00704438  1
  O  O217  1  0.27287583  0.35397679  0.50386265  1
  O  O218  1  0.30585879  0.95141794  0.00019777  1
  O  O219  1  0.24463145  0.85733173  0.48322511  1
  O  O220  1  0.74905354  0.36712899  0.01303075  1
  O  O221  1  0.72183849  0.40654933  0.51588779  1
  O  O222  1  0.74774968  0.87502056  0.01296391  1
  O  O223  1  0.76179355  0.87689319  0.48584122  1
  O  O224  1  0.12187755  0.49075856  0.23574727  1
  O  O225  1  0.14500798  0.44983622  0.76743200  1
  O  O226  1  0.08270357  0.98502659  0.25187340  1
  O  O227  1  0.11868242  1.00224751  0.73882929  1
  O  O228  1  0.63784531  0.48202661  0.24869535  1
  O  O229  1  0.61831784  0.49549489  0.76401221  1
  O  O230  1  0.63268313  0.97722314  0.25835268  1
  O  O231  1  0.64633093  1.03033675  0.72372209  1
  O  O232  1  0.34951884  0.01671096  0.23018186  1
  O  O233  1  0.37981887  0.02503597  0.75057260  1
  O  O234  1  0.36883617  0.47486028  0.26153442  1
  O  O235  1  0.37833636  0.50463893  0.77430651  1
  O  O236  1  0.89758086  0.04783954  0.21281796  1
  O  O237  1  0.87615847  -0.00162193  0.75915375  1
  O  O238  1  0.86263277  0.49063807  0.24698702  1
  O  O239  1  0.87087482  0.48853143  0.75443394  1
  O  O240  1  0.10737256  0.37005298  0.37396467  1
  O  O241  1  0.11474433  0.36646421  0.89729774  1
  O  O242  1  0.08969759  0.88055621  0.38202635  1
  O  O243  1  0.15886010  0.86098371  0.88662971  1
  O  O244  1  0.61603417  0.35816158  0.36485543  1
  O  O245  1  0.61155510  0.37931051  0.87315159  1
  O  O246  1  0.60661349  0.86245492  0.36129837  1
  O  O247  1  0.60381765  0.86082529  0.89484751  1
  O  O248  1  0.37235701  0.13797884  0.08947859  1
  O  O249  1  0.37386519  0.13610508  0.63515900  1
  O  O250  1  0.41747695  0.63474044  0.11690293  1
  O  O251  1  0.43874763  0.58205482  0.58332663  1
  O  O252  1  0.88925567  0.09252391  0.15448598  1
  O  O253  1  0.89313805  0.12907220  0.64271826  1
  O  O254  1  0.88942352  0.63268193  0.12172958  1
  O  O255  1  0.88942656  0.61005439  0.62421672  1
  O  O256  1  0.26410708  0.24381811  0.12176163  1
  O  O257  1  0.27103951  0.25415764  0.61713125  1
  O  O258  1  0.26481312  0.73536348  0.21885528  1
  O  O259  1  0.26005483  0.76673936  0.59683545  1
  O  O260  1  0.74709994  0.26059279  0.11457981  1
  O  O261  1  0.69923620  0.28623533  0.61506519  1
  O  O262  1  0.76863522  0.73602618  0.12663409  1
  O  O263  1  0.78946837  0.74240069  0.64979202  1
  O  O264  1  0.25879714  0.23808706  0.39640423  1
  O  O265  1  0.25635456  0.23943032  0.87730255  1
  O  O266  1  0.24522543  0.75076579  0.38919689  1
  O  O267  1  0.25808840  0.73667745  0.86723452  1
  O  O268  1  0.73335340  0.23500882  0.36409650  1
  O  O269  1  0.73571265  0.27299536  0.88885442  1
  O  O270  1  0.78012366  0.73129502  0.37192517  1
  O  O271  1  0.73954724  0.73553638  0.88253389  1
  O  O272  1  0.01604719  0.11074780  -0.00778715  1
  O  O273  1  0.00752164  0.12429714  0.51167893  1
  O  O274  1  0.01555272  0.62513138  0.01588099  1
  O  O275  1  -0.00433218  0.60195016  0.50591908  1
  O  O276  1  0.51749023  0.13364556  -0.01426538  1
  O  O277  1  0.50994098  0.10501485  0.49463552  1
  O  O278  1  0.47206518  0.67078237  0.07629194  1
  O  O279  1  0.48286734  0.62803595  0.53618827  1
  O  O280  1  0.49915235  0.35813693  0.48613103  1
  O  O281  1  0.50112708  0.37695033  0.98951544  1
  O  O282  1  0.46877888  0.84288136  0.44468176  1
  O  O283  1  0.48865065  0.88427039  0.99616759  1
  O  O284  1  1.00161538  0.38487678  0.48727236  1
  O  O285  1  1.00309910  0.40141381  1.01340376  1
  O  O286  1  0.98559159  0.89627706  0.49634220  1
  O  O287  1  1.01175555  0.88596716  0.98005227  1
  O  O288  1  0.48334045  0.46389312  0.36066426  1
  O  O289  1  0.49030460  0.49773077  0.87977929  1
  O  O290  1  0.48415758  0.97506901  0.35200537  1
  O  O291  1  0.51445128  0.99448697  0.86353297  1
  O  O292  1  0.98689172  0.49180213  0.38263981  1
  O  O293  1  1.01124066  0.51706908  0.89635670  1
  O  O294  1  0.98922006  1.00820779  0.39568214  1
  O  O295  1  0.99313352  0.98357818  0.87267739  1
  O  O296  1  -0.00559304  -0.01328670  0.09648757  1
  O  O297  1  0.00546857  0.01172065  0.61853001  1
  O  O298  1  0.01051910  0.51799253  0.12477886  1
  O  O299  1  0.00037586  0.48835692  0.60473279  1
  O  O300  1  0.50915522  -0.00855210  0.14827599  1
  O  O301  1  0.50432209  0.01225787  0.63501237  1
  O  O302  1  0.51595417  0.49079634  0.13361991  1
  O  O303  1  0.47949536  0.52351474  0.61713443  1
  O  O304  1  0.23415623  0.34083777  0.25781360  1
  O  O305  1  0.28172834  0.37886167  0.72449230  1
  O  O306  1  0.21062378  0.88917405  0.26956971  1
  O  O307  1  0.29062188  0.86090322  0.71616542  1
  O  O308  1  0.74462888  0.37167734  0.23866065  1
  O  O309  1  0.73156668  0.38865796  0.75010628  1
  O  O310  1  0.75268752  0.87756328  0.23187367  1
  O  O311  1  0.70731870  0.88104164  0.71597828  1
  O  O312  1  0.22148918  0.14525212  0.27274258  1
  O  O313  1  0.26280593  0.14257451  0.75559586  1
  O  O314  1  0.29570516  0.60658101  0.20586508  1
  O  O315  1  0.23564193  0.61708161  0.76057312  1
  O  O316  1  0.74712130  0.11212100  0.25182297  1
  O  O317  1  0.76930323  0.13838357  0.73784896  1
  O  O318  1  0.75365201  0.60468801  0.25514089  1
  O  O319  1  0.75205793  0.60651475  0.76509680  1
  O  O320  1  0.35928084  0.12491813  0.37142373  1
  O  O321  1  0.37526741  0.13444162  0.86713873  1
  O  O322  1  0.38025922  0.59919838  0.37141887  1
  O  O323  1  0.36426274  0.61705831  0.88886641  1
  O  O324  1  0.85025693  0.12924964  0.37552114  1
  O  O325  1  0.88417483  0.11588195  0.85423252  1
  O  O326  1  0.86874887  0.59840675  0.37277707  1
  O  O327  1  0.86586745  0.63948381  0.87782484  1
  O  O328  1  0.12610492  0.38262068  0.11304076  1
  O  O329  1  0.15523829  0.37455251  0.61290022  1
  O  O330  1  0.11395594  0.87573316  0.13775398  1
  O  O331  1  0.11251920  0.89394625  0.62119726  1
  O  O332  1  0.63462392  0.37998411  0.13178158  1
  O  O333  1  0.60747293  0.39716885  0.64245680  1
  O  O334  1  0.64572941  0.86856363  0.13107001  1
  O  O335  1  0.69481748  0.88660902  0.64519384  1
  O  O336  1  0.06987946  0.23450624  0.21186472  1
  O  O337  1  0.13231910  0.28275626  0.74715851  1
  O  O338  1  0.09337623  0.77175530  0.25242716  1
  O  O339  1  0.12858692  0.74582201  0.77694461  1
  O  O340  1  0.61660556  0.25421750  0.24703705  1
  O  O341  1  0.61817868  0.27090366  0.76313552  1
  O  O342  1  0.65287932  0.76398266  0.26894073  1
  O  O343  1  0.61258035  0.76427117  0.77882468  1
  O  O344  1  0.38846346  0.24458065  0.22651931  1
  O  O345  1  0.38398870  0.25003681  0.73849503  1
  O  O346  1  0.32449626  0.67471471  0.22418330  1
  O  O347  1  0.41431155  0.73859879  0.75171114  1
  O  O348  1  0.88407610  0.23072403  0.24680597  1
  O  O349  1  0.87366716  0.25181188  0.75484658  1
  O  O350  1  0.88865279  0.75458653  0.23232052  1
  O  O351  1  0.78689731  0.76433942  0.72072032  1
  O  O352  1  0.38144983  0.47110440  0.47662978  1
  O  O353  1  0.37561425  0.48737161  0.99654563  1
  O  O354  1  0.39637275  0.99038582  0.51872993  1
  O  O355  1  0.47451272  1.02594579  1.09493586  1
  O  O356  1  0.87138887  0.48953635  0.49109978  1
  O  O357  1  0.89370016  0.51037113  1.00597863  1
  O  O358  1  0.88192392  1.02168898  0.51423576  1
  O  O359  1  0.89324805  1.01583884  0.97398818  1
  O  O360  1  0.11533825  0.00788698  -0.01294511  1
  O  O361  1  0.11540135  0.01542760  0.51058989  1
  O  O362  1  0.12400358  0.52028391  0.01832241  1
  O  O363  1  0.11843786  0.49962172  0.48987870  1
  O  O364  1  0.63498825  0.02337560  -0.00965926  1
  O  O365  1  0.57572158  -0.05710090  0.50770779  1
  O  O366  1  0.62764527  0.49610770  0.01814510  1
  O  O367  1  0.58654585  0.52756409  0.42659919  1
  O  O368  1  0.37281955  0.36892792  0.11030482  1
  O  O369  1  0.38269133  0.36726638  0.60679102  1
  O  O370  1  0.38679544  0.87618039  0.11450517  1
  O  O371  1  0.34047355  0.88389048  0.66568018  1
  O  O372  1  0.86198821  0.37869874  0.12827074  1
  O  O373  1  0.84065956  0.36639419  0.62129772  1
  O  O374  1  0.86352699  0.86340402  0.12330722  1
  O  O375  1  0.87509795  0.88349705  0.60265947  1
  O  O376  1  0.12397807  0.13015175  0.39793432  1
  O  O377  1  0.12268294  0.14276662  0.86620925  1
  O  O378  1  0.14539111  0.62241986  0.32932825  1
  O  O379  1  0.15262638  0.63529274  0.89856584  1
  O  O380  1  0.62602839  0.13220839  0.36107836  1
  O  O381  1  0.62805250  0.15225386  0.86814400  1
  O  O382  1  0.65372462  0.64072292  0.36195343  1
  O  O383  1  0.63618411  0.63164673  0.87562379  1
