# generated using pymatgen
data_VZnO4
_symmetry_space_group_name_H-M   'P 1'
_cell_length_a   17.25646123
_cell_length_b   17.29383721
_cell_length_c   17.06851499
_cell_angle_alpha   90.29148941
_cell_angle_beta   90.15743072
_cell_angle_gamma   88.88689632
_symmetry_Int_Tables_number   1
_chemical_formula_structural   VZnO4
_chemical_formula_sum   'V64 Zn64 O256'
_cell_volume   5092.71929377
_cell_formula_units_Z   64
loop_
 _symmetry_equiv_pos_site_id
 _symmetry_equiv_pos_as_xyz
  1  'x, y, z'
loop_
 _atom_site_type_symbol
 _atom_site_label
 _atom_site_symmetry_multiplicity
 _atom_site_fract_x
 _atom_site_fract_y
 _atom_site_fract_z
 _atom_site_occupancy
  V  V0  1  0.13116044  0.36435216  0.77065286  1
  V  V1  1  0.71993443  0.73819684  -0.00493390  1
  V  V2  1  0.73189023  0.87688071  0.12185057  1
  V  V3  1  0.12310474  0.26611376  0.35377793  1
  V  V4  1  0.39394394  0.26274245  0.13716241  1
  V  V5  1  0.38795700  0.13332683  0.24632531  1
  V  V6  1  0.60935038  0.36376739  0.74011979  1
  V  V7  1  0.75934413  0.87314776  0.62202107  1
  V  V8  1  0.00370110  0.14443327  0.62681772  1
  V  V9  1  0.52223768  0.86790337  0.40295360  1
  V  V10  1  0.86707366  0.36772595  0.49207886  1
  V  V11  1  0.72733664  0.23800253  0.01036922  1
  V  V12  1  0.23859320  0.38426513  0.61041278  1
  V  V13  1  0.23686629  0.50077935  0.25001376  1
  V  V14  1  0.74925872  0.62336698  0.38642932  1
  V  V15  1  0.73278883  0.59421083  0.86667378  1
  V  V16  1  0.86137630  0.73676209  0.13102172  1
  V  V17  1  0.76472622  0.08971133  0.36827199  1
  V  V18  1  0.53123422  0.74128555  0.26559839  1
  V  V19  1  0.02667755  0.01410852  0.02566284  1
  V  V20  1  0.88741210  0.58012725  0.75595007  1
  V  V21  1  0.87581780  0.49953448  0.36899462  1
  V  V22  1  0.19965213  0.10639628  0.86800950  1
  V  V23  1  0.50011830  0.77929266  0.75772837  1
  V  V24  1  0.76864497  0.08592180  0.87407300  1
  V  V25  1  0.39154930  0.76181102  0.12221492  1
  V  V26  1  0.14035985  0.82728863  0.76504728  1
  V  V27  1  0.38389495  0.49005237  0.36319772  1
  V  V28  1  0.26623007  0.26403104  0.48191165  1
  V  V29  1  0.35783803  0.91424772  0.51557217  1
  V  V30  1  0.11926184  0.14716915  0.48595511  1
  V  V31  1  0.86183209  0.35900333  -0.00774093  1
  V  V32  1  -0.00237009  0.37747156  0.36251944  1
  V  V33  1  0.73641123  0.38447799  0.12669787  1
  V  V34  1  0.36868585  -0.01043490  0.34859197  1
  V  V35  1  0.88440819  0.09595027  0.23998784  1
  V  V36  1  0.34567677  0.64771453  0.26907040  1
  V  V37  1  -0.03034934  0.50407222  0.00159220  1
  V  V38  1  0.25740425  0.49412840  0.77184542  1
  V  V39  1  -0.02139482  0.25523927  0.23399883  1
  V  V40  1  0.48395557  0.51586545  -0.01932630  1
  V  V41  1  0.60692683  0.51033436  0.10343673  1
  V  V42  1  0.86841646  0.60912632  0.23587488  1
  V  V43  1  0.24040548  0.73678731  0.51948607  1
  V  V44  1  0.15557456  0.61911562  -0.00095182  1
  V  V45  1  0.25482341  0.76948635  -0.02059048  1
  V  V46  1  0.38526152  0.36205548  -0.00711956  1
  V  V47  1  -0.00255798  0.01931492  0.48623171  1
  V  V48  1  0.49412946  0.50126780  0.50279191  1
  V  V49  1  0.38724653  0.26192916  0.62749884  1
  V  V50  1  0.88967688  0.85573352  0.00765976  1
  V  V51  1  0.38847115  0.71729698  0.61592357  1
  V  V52  1  0.62040181  0.90329614  0.25131441  1
  V  V53  1  0.24150152  0.12095809  0.35353624  1
  V  V54  1  0.24310039  0.37713113  0.12628533  1
  V  V55  1  0.75008767  0.37331963  0.63528039  1
  V  V56  1  0.00772750  0.50591490  0.50238628  1
  V  V57  1  0.68604004  0.48967256  0.29091519  1
  V  V58  1  0.15075019  0.03826346  0.62498197  1
  V  V59  1  0.88425388  0.25857656  0.63966990  1
  V  V60  1  0.65346772  0.52534182  0.62090097  1
  V  V61  1  0.66518638  0.13970464  0.51407908  1
  V  V62  1  0.11886022  0.16305500  0.00438553  1
  V  V63  1  0.05038913  0.85459460  0.39446567  1
  Zn  Zn64  1  0.18739612  0.20890272  0.18060077  1
  Zn  Zn65  1  0.20912824  0.19327960  0.68205787  1
  Zn  Zn66  1  0.14461982  0.66726393  0.20433499  1
  Zn  Zn67  1  0.21604024  0.67297089  0.67472887  1
  Zn  Zn68  1  0.73740728  0.17382358  0.17703736  1
  Zn  Zn69  1  0.71306407  0.19214328  0.70559480  1
  Zn  Zn70  1  0.69382821  0.65938979  0.18382902  1
  Zn  Zn71  1  0.68442647  0.68933990  0.71056219  1
  Zn  Zn72  1  0.31057909  0.31969724  0.30157788  1
  Zn  Zn73  1  0.40501842  0.36093822  0.79075187  1
  Zn  Zn74  1  0.24584175  0.81226205  0.33832421  1
  Zn  Zn75  1  0.31980376  0.79213104  0.79688074  1
  Zn  Zn76  1  0.80651864  0.33410268  0.29301670  1
  Zn  Zn77  1  0.84899716  0.24767858  0.84579854  1
  Zn  Zn78  1  0.77452446  0.79028548  0.29835719  1
  Zn  Zn79  1  0.90325438  0.96191762  0.86484431  1
  Zn  Zn80  1  0.18663929  0.44375952  0.42586965  1
  Zn  Zn81  1  0.19774619  0.42867054  0.93947986  1
  Zn  Zn82  1  0.18994916  0.94650449  0.45923738  1
  Zn  Zn83  1  0.16471469  0.92891080  0.92590660  1
  Zn  Zn84  1  0.68783871  0.44995898  0.45585939  1
  Zn  Zn85  1  0.67756986  0.42261297  0.93604673  1
  Zn  Zn86  1  0.68510018  0.94563632  0.44584300  1
  Zn  Zn87  1  0.75567460  0.88041404  0.89580390  1
  Zn  Zn88  1  0.16678630  0.02109085  0.14314070  1
  Zn  Zn89  1  0.31506205  0.09298541  0.53903323  1
  Zn  Zn90  1  0.28840574  0.53419741  0.03495262  1
  Zn  Zn91  1  0.31406517  0.56431616  0.54767665  1
  Zn  Zn92  1  0.80868908  0.04959149  0.06136012  1
  Zn  Zn93  1  0.81696989  0.07802867  0.56783067  1
  Zn  Zn94  1  0.79569865  0.55278418  0.04690215  1
  Zn  Zn95  1  0.83359061  0.56162261  0.56603320  1
  Zn  Zn96  1  0.40806979  0.47606696  0.16041542  1
  Zn  Zn97  1  0.42338316  0.44273825  0.65813341  1
  Zn  Zn98  1  0.34837523  0.95196351  0.15314210  1
  Zn  Zn99  1  0.44980900  0.96458782  0.69498170  1
  Zn  Zn100  1  0.92841256  0.43663715  0.17390912  1
  Zn  Zn101  1  0.95980595  0.43656604  0.69248123  1
  Zn  Zn102  1  1.01220167  0.93803341  0.21520971  1
  Zn  Zn103  1  1.02871680  0.97049781  0.72403283  1
  Zn  Zn104  1  0.06328609  0.07811360  0.30033448  1
  Zn  Zn105  1  -0.00523155  0.11419755  0.83390914  1
  Zn  Zn106  1  0.05254110  0.56000590  0.30147603  1
  Zn  Zn107  1  0.06999802  0.54355969  0.83413285  1
  Zn  Zn108  1  0.58974620  0.10215431  0.29226034  1
  Zn  Zn109  1  0.60209951  0.05752023  0.81815494  1
  Zn  Zn110  1  0.54464485  0.58479276  0.35145163  1
  Zn  Zn111  1  0.57979160  0.51656859  0.81856586  1
  Zn  Zn112  1  0.49483281  0.13825810  0.59743834  1
  Zn  Zn113  1  0.29758128  0.10285107  1.05535223  1
  Zn  Zn114  1  0.43239457  0.68126613  0.43497106  1
  Zn  Zn115  1  0.43525594  0.71805253  0.93536751  1
  Zn  Zn116  1  0.93361968  0.18975848  0.41887183  1
  Zn  Zn117  1  0.91436274  0.17394869  0.99387077  1
  Zn  Zn118  1  0.96223435  0.67524562  0.40478498  1
  Zn  Zn119  1  0.88898148  0.66464569  0.94684529  1
  Zn  Zn120  1  0.04752677  0.34974125  0.06804260  1
  Zn  Zn121  1  0.05843247  0.32183724  0.54890358  1
  Zn  Zn122  1  0.06105088  0.75871202  0.06302806  1
  Zn  Zn123  1  0.09009509  0.86227510  0.58212160  1
  Zn  Zn124  1  0.56146835  0.32000323  0.07546441  1
  Zn  Zn125  1  0.56728298  0.31727169  0.54351419  1
  Zn  Zn126  1  0.55644811  0.79684945  0.07621659  1
  Zn  Zn127  1  0.55301345  0.83744249  0.60217979  1
  O  O128  1  0.15376748  0.13777464  0.10022577  1
  O  O129  1  0.11356372  0.15362527  0.60182051  1
  O  O130  1  0.11391340  0.65742317  0.09371089  1
  O  O131  1  0.00981935  0.68960613  0.62769371  1
  O  O132  1  0.63437313  0.20278555  0.23754906  1
  O  O133  1  0.70747206  0.13059374  0.60930717  1
  O  O134  1  0.62208401  0.60724169  0.11268277  1
  O  O135  1  0.66048064  0.62155864  0.62215574  1
  O  O136  1  0.36958546  0.39285921  0.35972305  1
  O  O137  1  0.37354227  0.34800816  0.89600674  1
  O  O138  1  0.32037499  0.90664379  0.33650210  1
  O  O139  1  0.38125193  0.91365536  0.84640018  1
  O  O140  1  0.87734133  0.38197064  0.37522907  1
  O  O141  1  0.84121752  0.35121476  0.89508428  1
  O  O142  1  0.85535836  0.83092341  0.38875972  1
  O  O143  1  0.87088400  0.85864946  0.90303360  1
  O  O144  1  0.22920439  0.02569609  0.36742987  1
  O  O145  1  0.21507898  0.01010028  0.86477105  1
  O  O146  1  0.25388735  0.49760782  0.35472332  1
  O  O147  1  0.26670185  0.49408735  0.87123992  1
  O  O148  1  0.77004542  -0.00664109  0.38283392  1
  O  O149  1  0.78598980  -0.01545225  0.85409305  1
  O  O150  1  0.77187719  0.49816595  0.37890845  1
  O  O151  1  0.74521139  0.49887813  0.88432973  1
  O  O152  1  0.27303622  0.48748177  0.14091444  1
  O  O153  1  0.25696579  0.47806581  0.59195396  1
  O  O154  1  0.26727524  1.00828264  0.10526857  1
  O  O155  1  0.24101020  1.08375172  0.62704264  1
  O  O156  1  0.71885139  0.49238569  0.09708366  1
  O  O157  1  0.75131782  0.48472936  0.61266956  1
  O  O158  1  0.74049209  0.97262461  0.11790922  1
  O  O159  1  0.77402470  0.97330858  0.60532720  1
  O  O160  1  -0.01496835  0.37004723  0.25648526  1
  O  O161  1  0.03307833  0.38065787  0.75278681  1
  O  O162  1  0.00309050  0.87634295  0.31034877  1
  O  O163  1  0.06995313  0.87041891  0.69455098  1
  O  O164  1  0.51606448  0.32225704  0.33070316  1
  O  O165  1  0.50822390  0.37464191  0.73115255  1
  O  O166  1  0.52959812  0.85504688  0.27004873  1
  O  O167  1  0.51198495  0.87252050  0.71293435  1
  O  O168  1  0.48394509  0.12736225  0.26186488  1
  O  O169  1  0.50429588  0.06598000  0.89893558  1
  O  O170  1  0.48191655  0.65455812  0.28503032  1
  O  O171  1  0.47156714  0.59384326  0.76553235  1
  O  O172  1  0.98303512  0.14857275  0.25009552  1
  O  O173  1  1.01717716  0.14886529  0.72218454  1
  O  O174  1  0.96591597  0.61179765  0.23432512  1
  O  O175  1  0.98622160  0.58704002  0.76920170  1
  O  O176  1  0.37632365  0.26371341  0.03096541  1
  O  O177  1  0.35886857  0.25809163  0.46592049  1
  O  O178  1  0.44683652  0.77596579  0.03495315  1
  O  O179  1  0.35940823  0.72492061  0.51028383  1
  O  O180  1  0.84464634  0.25942958  0.02758840  1
  O  O181  1  0.88055326  0.26978501  0.48484407  1
  O  O182  1  0.85060467  0.74837285  0.01349775  1
  O  O183  1  0.87214564  0.77753785  0.43643840  1
  O  O184  1  0.11959409  0.25451761  0.47282943  1
  O  O185  1  0.10581230  0.25718521  1.00550429  1
  O  O186  1  0.15359218  0.77640491  0.55262085  1
  O  O187  1  0.15606806  0.74872242  0.98360960  1
  O  O188  1  0.63844552  0.23580989  0.50693928  1
  O  O189  1  0.62908214  0.25635834  1.01022628  1
  O  O190  1  0.56474709  0.87293522  0.49348102  1
  O  O191  1  0.62251266  0.73612794  1.00704001  1
  O  O192  1  0.49139210  0.25665859  0.13922138  1
  O  O193  1  0.48847888  0.25994574  0.60367049  1
  O  O194  1  0.50183248  0.74995212  0.16713870  1
  O  O195  1  0.48286769  0.75339747  0.60293384  1
  O  O196  1  1.00107979  0.26944627  0.13955973  1
  O  O197  1  0.98875509  0.25463966  0.60755728  1
  O  O198  1  0.95776427  0.73322216  0.12640091  1
  O  O199  1  0.99452162  0.74564652  0.58635171  1
  O  O200  1  0.00635748  0.26198925  0.35817994  1
  O  O201  1  -0.06255372  0.19257221  0.88524793  1
  O  O202  1  0.02844785  0.76148955  0.41549577  1
  O  O203  1  -0.04306155  0.78669235  0.78923933  1
  O  O204  1  0.51276729  0.26501713  0.37197315  1
  O  O205  1  0.51315553  0.11067835  0.95575252  1
  O  O206  1  0.50718219  0.76729367  0.38164187  1
  O  O207  1  0.48938655  0.78150273  0.85704170  1
  O  O208  1  0.23946516  0.15344898  0.46988902  1
  O  O209  1  0.22630113  0.14343371  0.96657778  1
  O  O210  1  0.22748547  0.63970864  0.55587268  1
  O  O211  1  0.25647734  0.63660923  0.99482276  1
  O  O212  1  0.76818663  0.12646603  0.47216435  1
  O  O213  1  0.73245363  0.14858827  1.06463565  1
  O  O214  1  0.77018189  0.61369803  0.48428036  1
  O  O215  1  0.75430778  0.63418204  0.97449743  1
  O  O216  1  0.27482589  0.38608945  0.02162785  1
  O  O217  1  0.24204398  0.36452303  0.48798235  1
  O  O218  1  0.25106821  0.86687223  -0.03191502  1
  O  O219  1  0.27073588  0.86760343  0.50079298  1
  O  O220  1  0.73783749  0.35984298  0.01036736  1
  O  O221  1  0.76638429  0.37842843  0.49931594  1
  O  O222  1  0.72976481  0.85375447  0.01749191  1
  O  O223  1  0.72925108  0.86809774  0.51945593  1
  O  O224  1  0.13904723  0.50737164  0.24416953  1
  O  O225  1  0.14771016  0.48192856  0.77219217  1
  O  O226  1  0.10294919  1.00435416  0.22863490  1
  O  O227  1  0.12962671  1.02869628  0.72100557  1
  O  O228  1  0.61435258  0.51075710  0.22594658  1
  O  O229  1  0.61172674  0.49114812  0.70887845  1
  O  O230  1  0.60653917  0.99913961  0.24087129  1
  O  O231  1  0.58043620  1.06428015  0.71071010  1
  O  O232  1  0.37244078  0.02085561  0.24509110  1
  O  O233  1  0.39397964  -0.02542511  0.80870769  1
  O  O234  1  0.36469006  0.51900599  0.25644822  1
  O  O235  1  0.36054855  0.45929781  0.74965684  1
  O  O236  1  0.91282257  0.00465135  0.24909535  1
  O  O237  1  0.95536718  0.01886819  0.78693979  1
  O  O238  1  0.87592607  0.50053189  0.25614515  1
  O  O239  1  0.87469134  0.48260505  0.75064492  1
  O  O240  1  0.11109005  0.36912834  0.36681929  1
  O  O241  1  0.14956878  0.35695217  0.87047498  1
  O  O242  1  0.15082566  0.87125233  0.38029071  1
  O  O243  1  0.10816194  0.85823415  0.85592072  1
  O  O244  1  0.64453336  0.42515534  0.35398486  1
  O  O245  1  0.62397551  0.39986103  0.83545751  1
  O  O246  1  0.62339025  0.89767912  0.36385562  1
  O  O247  1  0.64496611  0.88180297  0.84115279  1
  O  O248  1  0.36834761  0.14763344  0.13999518  1
  O  O249  1  0.38285437  0.15717780  0.59869366  1
  O  O250  1  0.37939073  0.66759241  0.16752487  1
  O  O251  1  0.38413212  0.61977144  0.62420422  1
  O  O252  1  0.87091729  0.11115138  0.13986823  1
  O  O253  1  0.89164232  0.15020089  0.62023870  1
  O  O254  1  0.84507626  0.61858057  0.13159354  1
  O  O255  1  0.86956576  0.61178109  0.65840367  1
  O  O256  1  0.26411518  0.27589998  0.13889711  1
  O  O257  1  0.26463502  0.25953295  0.59514165  1
  O  O258  1  0.29796988  0.76104141  0.07419643  1
  O  O259  1  0.29118616  0.75609678  0.63288001  1
  O  O260  1  0.73410648  0.28485951  0.14187976  1
  O  O261  1  0.77617237  0.26677646  0.62978912  1
  O  O262  1  0.74051699  0.73686450  0.11297655  1
  O  O263  1  0.73870983  0.77561287  0.65385516  1
  O  O264  1  0.23157540  0.25992829  0.36581593  1
  O  O265  1  0.39008969  0.17868770  0.87889575  1
  O  O266  1  0.23217113  0.73298972  0.42085814  1
  O  O267  1  0.32358157  0.74388414  0.90012685  1
  O  O268  1  0.72949910  0.25021627  0.31819542  1
  O  O269  1  0.74856976  0.21726811  0.91393973  1
  O  O270  1  0.73567972  0.71985993  0.37454982  1
  O  O271  1  0.73262179  0.76561163  0.89839226  1
  O  O272  1  0.01836107  0.12247192  0.02698947  1
  O  O273  1  0.00557347  0.13555875  0.49420832  1
  O  O274  1  -0.03643762  0.60356808  0.00637138  1
  O  O275  1  -0.01665280  0.60268386  0.48801052  1
  O  O276  1  0.36128548  0.04370144  -0.03146912  1
  O  O277  1  0.56260868  0.10856770  0.51628856  1
  O  O278  1  0.46813476  0.61278647  -0.02736581  1
  O  O279  1  0.50974740  0.59928066  0.46326291  1
  O  O280  1  0.51722583  0.40285908  0.48869514  1
  O  O281  1  0.48432599  0.37140241  1.00626823  1
  O  O282  1  0.42634787  0.86381069  0.46417696  1
  O  O283  1  0.54845637  0.90504048  0.99042015  1
  O  O284  1  0.98912004  0.38292256  0.47713268  1
  O  O285  1  0.96084509  0.35212915  0.99490944  1
  O  O286  1  1.02869422  0.90977323  0.48949769  1
  O  O287  1  0.98645424  0.83568547  1.01609421  1
  O  O288  1  0.48282501  0.49019201  0.35529930  1
  O  O289  1  0.49154370  0.48666601  0.88487122  1
  O  O290  1  0.46500416  0.96201258  0.36690140  1
  O  O291  1  0.59431265  0.93587371  0.83227164  1
  O  O292  1  0.99052302  0.49220903  0.36832897  1
  O  O293  1  1.02524488  0.48056982  0.92252020  1
  O  O294  1  1.00807991  1.02549126  0.38740972  1
  O  O295  1  0.98843832  0.98699871  0.93890552  1
  O  O296  1  -0.00856923  -0.02578275  0.10831154  1
  O  O297  1  0.02421239  0.03694547  0.60787869  1
  O  O298  1  0.00357192  0.46455519  0.09401561  1
  O  O299  1  -0.00074248  0.48700561  0.59989458  1
  O  O300  1  0.42958678  -0.00944560  0.06850136  1
  O  O301  1  0.49798104  0.06857686  0.69533424  1
  O  O302  1  0.50088926  0.50565149  0.10613412  1
  O  O303  1  0.48489695  0.51152690  0.60164474  1
  O  O304  1  0.24605835  0.39171190  0.23976007  1
  O  O305  1  0.23719538  0.38872398  0.71866000  1
  O  O306  1  0.16423035  0.84228955  0.18154230  1
  O  O307  1  0.23554459  0.85547705  0.76095256  1
  O  O308  1  0.74508515  0.41445799  0.23619580  1
  O  O309  1  0.74470911  0.38131051  0.73099813  1
  O  O310  1  0.72458517  0.87120899  0.24208932  1
  O  O311  1  0.78324502  0.89904077  0.71745278  1
  O  O312  1  0.24094286  0.13637360  0.25333868  1
  O  O313  1  0.23649502  0.15005572  0.78817060  1
  O  O314  1  0.24932674  0.61474322  0.24112530  1
  O  O315  1  0.25774084  0.58583095  0.73505209  1
  O  O316  1  0.77287993  0.09663896  0.25459373  1
  O  O317  1  0.77759609  0.13748022  0.78498344  1
  O  O318  1  0.75312001  0.59433088  0.26194994  1
  O  O319  1  0.74752312  0.61562975  0.76498530  1
  O  O320  1  0.35125853  0.11225718  0.35312360  1
  O  O321  1  0.40706165  0.13423878  0.82525807  1
  O  O322  1  0.36446889  0.61136808  0.36780572  1
  O  O323  1  0.41285945  0.60353596  0.80543789  1
  O  O324  1  0.86674696  0.12942243  0.35389158  1
  O  O325  1  0.83491242  0.09183387  0.95504811  1
  O  O326  1  0.86844568  0.61643353  0.35824347  1
  O  O327  1  0.85473589  0.62123339  0.85284822  1
  O  O328  1  0.14710812  0.37817461  0.11200869  1
  O  O329  1  0.14015883  0.37225288  0.60307632  1
  O  O330  1  0.09029961  0.83742606  0.15462400  1
  O  O331  1  0.16997810  0.94681539  0.58795272  1
  O  O332  1  0.62541848  0.39684422  0.12633176  1
  O  O333  1  0.64541795  0.36585692  0.62315869  1
  O  O334  1  0.62336428  0.86764794  0.14101101  1
  O  O335  1  0.65353352  0.88016412  0.63578708  1
  O  O336  1  0.11043381  0.25442901  0.25305289  1
  O  O337  1  0.14560248  0.27211407  0.73367646  1
  O  O338  1  0.18787873  0.78125288  0.22778312  1
  O  O339  1  0.14427938  0.72882865  0.74493142  1
  O  O340  1  0.65550143  0.25883968  0.29267070  1
  O  O341  1  0.63224097  0.26671305  0.74261378  1
  O  O342  1  0.62628404  0.72012558  0.25941672  1
  O  O343  1  0.58266421  0.72788885  0.73678199  1
  O  O344  1  0.37435499  0.23984474  0.25192154  1
  O  O345  1  0.38233644  0.26521444  0.72638906  1
  O  O346  1  0.32890392  0.74084660  0.29365009  1
  O  O347  1  0.40258886  0.74775669  0.73158390  1
  O  O348  1  0.87921817  0.26136228  0.24229530  1
  O  O349  1  0.88878366  0.26791329  0.73597341  1
  O  O350  1  0.84585509  0.72172750  0.23879182  1
  O  O351  1  0.91843254  0.75029278  0.74154640  1
  O  O352  1  0.38577616  0.50633808  0.47651592  1
  O  O353  1  0.38569006  0.48069149  1.00755172  1
  O  O354  1  0.34771833  1.00719560  0.46730860  1
  O  O355  1  0.40137524  0.98399896  0.99578598  1
  O  O356  1  0.88618673  0.48577540  0.48596211  1
  O  O357  1  0.86868537  0.47899684  0.99206430  1
  O  O358  1  0.90247621  1.01895275  0.50754101  1
  O  O359  1  0.86310735  0.94948529  1.02598184  1
  O  O360  1  0.12565180  -0.00914491  0.02018350  1
  O  O361  1  0.12667262  0.04258420  0.49211764  1
  O  O362  1  0.16894759  0.51751622  0.01126450  1
  O  O363  1  0.10430474  0.49674523  0.47970031  1
  O  O364  1  0.58301903  -0.03514649  0.00694465  1
  O  O365  1  0.65275592  0.02462363  0.51594801  1
  O  O366  1  0.59583141  0.49304344  -0.00356261  1
  O  O367  1  0.61719686  0.50420722  0.52504412  1
  O  O368  1  0.37924894  0.36614313  0.14383441  1
  O  O369  1  0.36192234  0.36174624  0.60537909  1
  O  O370  1  0.37814120  0.84713748  0.17191277  1
  O  O371  1  0.38305980  0.93702853  0.61072329  1
  O  O372  1  0.84151587  0.39381838  0.11369397  1
  O  O373  1  0.87484235  0.36872847  0.60696428  1
  O  O374  1  0.84220831  0.84229106  0.12891509  1
  O  O375  1  0.84807826  0.83856455  0.59291025  1
  O  O376  1  0.12800381  0.14966551  0.36687184  1
  O  O377  1  0.09959094  0.12852915  0.89283343  1
  O  O378  1  0.09256572  0.65992622  0.30286340  1
  O  O379  1  0.10769344  0.62184525  0.91145067  1
  O  O380  1  0.66173894  0.11228245  0.37714924  1
  O  O381  1  0.67136594  0.08088969  0.89769413  1
  O  O382  1  0.65452704  0.57966123  0.36725577  1
  O  O383  1  0.63291727  0.60446040  0.86491979  1
