# generated using pymatgen
data_VZnO4
_symmetry_space_group_name_H-M   'P 1'
_cell_length_a   16.94195326
_cell_length_b   17.15246314
_cell_length_c   16.96279544
_cell_angle_alpha   89.97877760
_cell_angle_beta   91.16104527
_cell_angle_gamma   90.67726455
_symmetry_Int_Tables_number   1
_chemical_formula_structural   VZnO4
_chemical_formula_sum   'V64 Zn64 O256'
_cell_volume   4927.96800865
_cell_formula_units_Z   64
loop_
 _symmetry_equiv_pos_site_id
 _symmetry_equiv_pos_as_xyz
  1  'x, y, z'
loop_
 _atom_site_type_symbol
 _atom_site_label
 _atom_site_symmetry_multiplicity
 _atom_site_fract_x
 _atom_site_fract_y
 _atom_site_fract_z
 _atom_site_occupancy
  V  V0  1  0.24508725  0.73470118  0.48671917  1
  V  V1  1  0.49623918  0.12442225  0.65037299  1
  V  V2  1  0.13564422  0.13023498  0.50105395  1
  V  V3  1  0.26159065  0.75901347  -0.00139682  1
  V  V4  1  0.00516614  0.39869087  0.36288471  1
  V  V5  1  0.37568773  0.00769460  0.37645268  1
  V  V6  1  0.86015203  0.52512082  0.87580182  1
  V  V7  1  0.12516722  0.49771900  0.62756347  1
  V  V8  1  0.12418791  -0.02748250  0.61497428  1
  V  V9  1  0.38329848  0.62960306  0.75230489  1
  V  V10  1  0.75125072  -0.00563844  0.75383389  1
  V  V11  1  0.47975469  0.26751305  0.77357106  1
  V  V12  1  0.24154670  0.00235128  0.25569582  1
  V  V13  1  0.87202712  0.03137934  0.88808963  1
  V  V14  1  0.62623138  0.36685463  0.77111679  1
  V  V15  1  0.63338255  0.76181938  0.88843518  1
  V  V16  1  0.62610276  0.62366884  -0.00327777  1
  V  V17  1  0.62474642  0.35543297  0.23925934  1
  V  V18  1  0.76494430  0.50226192  0.25146273  1
  V  V19  1  0.51543760  0.62765125  0.61784531  1
  V  V20  1  0.13061530  0.78183765  0.86083253  1
  V  V21  1  0.50950328  0.76561382  0.74683850  1
  V  V22  1  0.24180493  0.62992999  0.87467293  1
  V  V23  1  0.00519479  0.11745636  0.13970848  1
  V  V24  1  0.13372398  0.40446915  0.24349196  1
  V  V25  1  0.76367469  0.37265531  0.12178329  1
  V  V26  1  0.61887312  0.47158410  0.60862953  1
  V  V27  1  -0.02605477  0.87313750  0.87886676  1
  V  V28  1  0.25487452  0.49766514  0.74834035  1
  V  V29  1  0.72601913  -0.00048508  0.26102401  1
  V  V30  1  0.75054607  0.74417005  0.47392132  1
  V  V31  1  0.61362213  0.00748815  0.11108788  1
  V  V32  1  0.37850328  0.13228572  0.22816518  1
  V  V33  1  0.25587728  0.87182198  0.12655072  1
  V  V34  1  0.74844963  0.87770167  0.12437976  1
  V  V35  1  0.12046143  0.84256287  0.24805142  1
  V  V36  1  0.25948667  -0.03438033  0.73806473  1
  V  V37  1  0.88165027  0.37516751  -0.00176982  1
  V  V38  1  0.00643682  0.12061335  0.64194425  1
  V  V39  1  0.11416716  0.61939811  0.49061685  1
  V  V40  1  0.75292596  0.13028228  0.38522384  1
  V  V41  1  0.53298804  -0.00398184  0.51461413  1
  V  V42  1  0.36317646  0.87655681  0.49983910  1
  V  V43  1  0.63993969  0.23270130  0.89288029  1
  V  V44  1  0.88142646  0.64559954  0.25324350  1
  V  V45  1  0.61109931  0.24943034  0.39380260  1
  V  V46  1  -0.01681303  0.61999398  0.09656526  1
  V  V47  1  0.26443523  0.36944353  0.62246196  1
  V  V48  1  0.39089196  0.50736495  0.88324929  1
  V  V49  1  0.61553412  0.50035199  0.12369251  1
  V  V50  1  0.87950394  0.86832271  0.51147798  1
  V  V51  1  0.50022214  0.65096937  0.13582220  1
  V  V52  1  0.50845212  0.86717246  0.36588282  1
  V  V53  1  0.49430644  0.87666990  0.89577604  1
  V  V54  1  0.00273832  0.84730807  0.37510603  1
  V  V55  1  0.38770035  0.38464139  0.00291834  1
  V  V56  1  -0.01629898  0.38994936  0.83638208  1
  V  V57  1  0.47609358  0.01116490  -0.00019799  1
  V  V58  1  0.88865468  -0.00214128  0.37126869  1
  V  V59  1  -0.00148315  0.62969256  0.64301427  1
  V  V60  1  0.37604891  0.49097969  0.37212984  1
  V  V61  1  0.73171620  0.51146996  0.75928218  1
  V  V62  1  0.23586878  0.35179253  0.10735946  1
  V  V63  1  0.37000386  0.74861253  0.62185578  1
  Zn  Zn64  1  0.19948110  0.19306916  0.19812834  1
  Zn  Zn65  1  0.21108927  0.17214015  0.64556456  1
  Zn  Zn66  1  0.16226990  0.69061863  0.15830228  1
  Zn  Zn67  1  0.18508398  0.68863595  0.68611090  1
  Zn  Zn68  1  0.70552406  0.17517462  0.17663005  1
  Zn  Zn69  1  0.66233794  0.16170471  0.71103425  1
  Zn  Zn70  1  0.71673767  0.67171707  0.15090621  1
  Zn  Zn71  1  0.69218732  0.69953756  0.69357283  1
  Zn  Zn72  1  0.29119700  0.31447048  0.29081313  1
  Zn  Zn73  1  0.31425248  0.30370972  0.86151473  1
  Zn  Zn74  1  0.30376389  0.82101940  0.32243957  1
  Zn  Zn75  1  0.32074029  0.80982977  0.81063309  1
  Zn  Zn76  1  0.84650702  0.30214118  0.42900015  1
  Zn  Zn77  1  0.80386303  0.32176305  0.82006072  1
  Zn  Zn78  1  0.80783518  0.81619029  0.30423033  1
  Zn  Zn79  1  0.79780888  0.80937980  0.78808667  1
  Zn  Zn80  1  0.15054515  0.40547962  0.46538714  1
  Zn  Zn81  1  0.16640715  0.39147973  0.92040661  1
  Zn  Zn82  1  0.18277197  0.93317759  0.43617549  1
  Zn  Zn83  1  0.21206573  0.95663059  0.93309678  1
  Zn  Zn84  1  0.68664430  0.43195564  0.42088988  1
  Zn  Zn85  1  0.68712037  0.43774492  0.94603201  1
  Zn  Zn86  1  0.69782441  0.92657360  0.43647248  1
  Zn  Zn87  1  0.69268210  0.94722319  0.93701221  1
  Zn  Zn88  1  0.29688175  0.05424604  0.06079457  1
  Zn  Zn89  1  0.32018577  0.05412135  0.58661246  1
  Zn  Zn90  1  0.32792973  0.58234524  0.05283103  1
  Zn  Zn91  1  0.31730373  0.56304774  0.56182258  1
  Zn  Zn92  1  0.80850898  0.05211158  0.07243892  1
  Zn  Zn93  1  0.80985559  0.04676518  0.56383354  1
  Zn  Zn94  1  0.80754081  0.56137344  0.06123568  1
  Zn  Zn95  1  0.79152734  0.58627330  0.58896220  1
  Zn  Zn96  1  0.43494836  0.30032898  0.17095938  1
  Zn  Zn97  1  0.44455987  0.44331756  0.69258722  1
  Zn  Zn98  1  0.43859170  0.93685384  0.18987260  1
  Zn  Zn99  1  0.43781577  0.93868178  0.68162199  1
  Zn  Zn100  1  0.95099348  0.45042156  0.18070766  1
  Zn  Zn101  1  0.91416650  0.47645019  0.67159596  1
  Zn  Zn102  1  0.93483434  0.92707060  0.20093471  1
  Zn  Zn103  1  0.93060761  0.94377132  0.69685427  1
  Zn  Zn104  1  0.07118838  0.06538115  0.33291041  1
  Zn  Zn105  1  0.05058574  0.00220672  0.78430686  1
  Zn  Zn106  1  0.05680115  0.57285399  0.29956032  1
  Zn  Zn107  1  0.06689240  0.54449158  0.81663507  1
  Zn  Zn108  1  0.55533875  0.07407832  0.32676031  1
  Zn  Zn109  1  0.56834127  0.06062478  0.82781016  1
  Zn  Zn110  1  0.51146521  0.50070549  0.25148488  1
  Zn  Zn111  1  0.56979687  0.57027069  0.81069497  1
  Zn  Zn112  1  0.44251509  0.17502650  0.47181039  1
  Zn  Zn113  1  0.45931584  0.21794152  0.97976133  1
  Zn  Zn114  1  0.43498789  0.68731203  0.43432549  1
  Zn  Zn115  1  0.44679739  0.69275434  0.94400940  1
  Zn  Zn116  1  0.92181013  0.13990807  0.48877908  1
  Zn  Zn117  1  0.95522835  0.21304488  0.92647883  1
  Zn  Zn118  1  0.92855155  0.67784461  0.44552186  1
  Zn  Zn119  1  0.95817223  0.68000574  0.89444621  1
  Zn  Zn120  1  0.05020733  0.31297746  0.06234829  1
  Zn  Zn121  1  0.02271210  0.27963393  0.53524598  1
  Zn  Zn122  1  0.07103670  0.79739914  0.04694024  1
  Zn  Zn123  1  0.05504460  0.79599763  0.56108897  1
  Zn  Zn124  1  0.57049675  0.31582255  0.06034710  1
  Zn  Zn125  1  0.54847591  0.28735962  0.57725118  1
  Zn  Zn126  1  0.57507455  0.81932263  0.07446428  1
  Zn  Zn127  1  0.55250180  0.79271922  0.51634604  1
  O  O128  1  0.10966878  0.13486008  0.14492259  1
  O  O129  1  0.11934370  0.10390385  0.62508233  1
  O  O130  1  0.05937431  0.69824196  0.10909581  1
  O  O131  1  0.11662984  0.62147601  0.62117380  1
  O  O132  1  0.61765667  0.10288955  0.14008788  1
  O  O133  1  0.59017213  0.14723977  0.61827608  1
  O  O134  1  0.61558586  0.61300087  0.12327178  1
  O  O135  1  0.61464005  0.64121951  0.62962679  1
  O  O136  1  0.35196781  0.39041349  0.36734335  1
  O  O137  1  0.36932941  0.40644946  0.88193831  1
  O  O138  1  0.38270439  0.87316059  0.38953778  1
  O  O139  1  0.39754090  0.87123967  0.86912889  1
  O  O140  1  0.91156654  0.36293604  0.35886501  1
  O  O141  1  0.87542152  0.39134026  0.88060485  1
  O  O142  1  0.89486481  0.87604809  0.36708994  1
  O  O143  1  0.87807275  0.84224248  0.86631684  1
  O  O144  1  0.26534331  -0.01821364  0.36373953  1
  O  O145  1  0.27026426  -0.02153671  0.83868428  1
  O  O146  1  0.27813049  0.51601315  0.35534725  1
  O  O147  1  0.26253240  0.52328574  0.86061409  1
  O  O148  1  0.75319641  0.00074954  0.36852798  1
  O  O149  1  0.76288712  0.01273670  0.87384153  1
  O  O150  1  0.74055236  0.50001057  0.34904195  1
  O  O151  1  0.74580107  0.49805863  0.86675466  1
  O  O152  1  0.22265809  0.58521733  0.12898571  1
  O  O153  1  0.25564629  0.50742156  0.63901656  1
  O  O154  1  0.24949427  0.97834288  0.14606767  1
  O  O155  1  0.23462191  0.98600596  0.62374751  1
  O  O156  1  0.74071692  0.49861673  0.13172888  1
  O  O157  1  0.71794254  0.50859532  0.63837100  1
  O  O158  1  0.73341932  0.99943439  0.14387941  1
  O  O159  1  0.76153050  1.00144551  0.65202254  1
  O  O160  1  0.02346172  0.38596193  0.24805229  1
  O  O161  1  -0.03458859  0.39575327  0.73849712  1
  O  O162  1  0.01415635  0.86526807  0.25571233  1
  O  O163  1  0.00311673  0.89199766  0.77653866  1
  O  O164  1  0.52112834  0.36793791  0.22904350  1
  O  O165  1  0.50560420  0.36904940  0.75956876  1
  O  O166  1  0.48533110  0.86766043  0.26781427  1
  O  O167  1  0.50163716  0.86548808  0.74546389  1
  O  O168  1  0.47472602  0.11853534  0.25560955  1
  O  O169  1  0.49311875  0.10598337  0.75062147  1
  O  O170  1  0.50561464  0.61351521  0.23130389  1
  O  O171  1  0.49623745  0.63539928  0.74406647  1
  O  O172  1  1.01124364  0.12104733  0.24513031  1
  O  O173  1  1.00840794  0.10087267  0.74282891  1
  O  O174  1  0.98387908  0.62494141  0.22973658  1
  O  O175  1  1.01045961  0.62107128  0.74315586  1
  O  O176  1  0.36682898  0.28623705  -0.03284591  1
  O  O177  1  0.30284099  0.23777867  0.46634071  1
  O  O178  1  0.36123073  0.75537869  -0.01057460  1
  O  O179  1  0.36483053  0.75048028  0.50321987  1
  O  O180  1  0.87702448  0.27721664  -0.01022863  1
  O  O181  1  0.91815396  0.25007639  0.49663132  1
  O  O182  1  0.84149399  0.75084236  -0.00434204  1
  O  O183  1  0.86773767  0.76009378  0.49438396  1
  O  O184  1  0.12574308  0.23031325  0.51116389  1
  O  O185  1  0.05265890  0.23227509  0.98662950  1
  O  O186  1  0.13831772  0.73193530  0.50524187  1
  O  O187  1  0.14884545  0.75591864  0.97033199  1
  O  O188  1  0.62474946  0.26789130  0.49097189  1
  O  O189  1  0.63490114  0.26077830  0.98921887  1
  O  O190  1  0.65625235  0.75712554  0.51136365  1
  O  O191  1  0.62246563  0.74838921  0.99211659  1
  O  O192  1  0.48781012  0.24737367  0.08890426  1
  O  O193  1  0.48791533  0.23632501  0.67177594  1
  O  O194  1  0.51905529  0.74837767  0.14198961  1
  O  O195  1  0.49609348  0.74461109  0.63426064  1
  O  O196  1  0.99133022  0.21982398  0.13442563  1
  O  O197  1  1.01391925  0.22026666  0.63638005  1
  O  O198  1  0.88640698  0.77899313  0.04497437  1
  O  O199  1  0.99331198  0.72733639  0.62640834  1
  O  O200  1  0.04670164  0.25618460  0.33895037  1
  O  O201  1  -0.00971991  0.29240350  0.85150174  1
  O  O202  1  -0.00071428  0.75115319  0.37439140  1
  O  O203  1  0.02330797  0.76352054  0.86248287  1
  O  O204  1  0.51431384  0.23720998  0.37973615  1
  O  O205  1  0.51358638  0.24073330  0.87095207  1
  O  O206  1  0.50486461  0.76784336  0.40378724  1
  O  O207  1  0.50565023  0.76213795  0.86494619  1
  O  O208  1  0.24099426  0.12704226  0.54028598  1
  O  O209  1  0.27808548  0.12829564  0.87389070  1
  O  O210  1  0.24757553  0.63216647  0.50057959  1
  O  O211  1  0.25744845  0.64020304  0.98023441  1
  O  O212  1  0.75015196  0.10623461  0.48352100  1
  O  O213  1  0.76039474  0.14844474  1.07914329  1
  O  O214  1  0.76673638  0.64627285  0.50127754  1
  O  O215  1  0.72601382  0.64047616  1.02806558  1
  O  O216  1  0.23318296  0.39363670  0.01048450  1
  O  O217  1  0.24432093  0.37809504  0.52233379  1
  O  O218  1  0.24990809  0.87081070  0.01765526  1
  O  O219  1  0.26029624  0.85695382  0.49348880  1
  O  O220  1  0.76050849  0.38293359  0.01340690  1
  O  O221  1  0.77786027  0.38211348  0.48220712  1
  O  O222  1  0.73956606  0.88872754  0.02315133  1
  O  O223  1  0.76989204  0.85800712  0.49285538  1
  O  O224  1  0.12815647  0.50313094  0.23647786  1
  O  O225  1  0.15042888  0.51959232  0.73824272  1
  O  O226  1  0.14192572  1.00201179  0.26545656  1
  O  O227  1  0.14831180  0.97965861  0.73179376  1
  O  O228  1  0.62723403  0.48782912  0.23275292  1
  O  O229  1  0.61942505  0.48080539  0.75594701  1
  O  O230  1  0.62492260  1.00452123  0.26362033  1
  O  O231  1  0.66344694  1.05770267  0.75922824  1
  O  O232  1  0.36914722  0.00628015  0.26370910  1
  O  O233  1  0.35486784  0.00847538  0.70207694  1
  O  O234  1  0.38850233  0.49741522  0.26632611  1
  O  O235  1  0.37456087  0.51455845  0.75937188  1
  O  O236  1  0.86971127  -0.00511894  0.26905684  1
  O  O237  1  0.86109111  0.00157894  0.77157243  1
  O  O238  1  0.86561854  0.49551125  0.24580190  1
  O  O239  1  0.83661188  0.50289995  0.75480879  1
  O  O240  1  0.13785034  0.39673657  0.34793528  1
  O  O241  1  0.08342528  0.42946103  0.85920377  1
  O  O242  1  0.11195201  0.87067218  0.36475532  1
  O  O243  1  0.13926904  0.88025975  0.87474703  1
  O  O244  1  0.63638778  0.35035477  0.35129219  1
  O  O245  1  0.62588652  0.36848718  0.87267778  1
  O  O246  1  0.60695472  0.88373177  0.37709946  1
  O  O247  1  0.61292627  0.86633070  0.88650793  1
  O  O248  1  0.36684669  0.11477620  0.12993845  1
  O  O249  1  0.41126824  0.12800346  0.58616405  1
  O  O250  1  0.40002202  0.63783925  0.11456617  1
  O  O251  1  0.38886787  0.63004800  0.63260165  1
  O  O252  1  0.90186047  0.10733663  0.13971467  1
  O  O253  1  0.90619685  0.10131150  0.60167622  1
  O  O254  1  0.88043598  0.62975121  0.12290216  1
  O  O255  1  0.89927446  0.58690432  0.62533677  1
  O  O256  1  0.23949479  0.25335275  0.10629557  1
  O  O257  1  0.25194067  0.27454190  0.64865519  1
  O  O258  1  0.24423452  0.75332000  0.10516253  1
  O  O259  1  0.26740407  0.73857487  0.61734360  1
  O  O260  1  0.76411017  0.27789517  0.13920600  1
  O  O261  1  0.80782955  0.24696025  0.67221160  1
  O  O262  1  0.72951820  0.77994432  0.14208226  1
  O  O263  1  0.70008551  0.85749303  0.62870036  1
  O  O264  1  0.26312351  0.25549498  0.40748564  1
  O  O265  1  0.20463109  0.28925769  0.88467374  1
  O  O266  1  0.25138063  0.74292651  0.38788684  1
  O  O267  1  0.25121905  0.74617277  0.87586278  1
  O  O268  1  0.76870417  0.22951308  0.38296224  1
  O  O269  1  0.73825638  0.24502213  0.86771850  1
  O  O270  1  0.74613888  0.74900034  0.37392347  1
  O  O271  1  0.72978168  0.75898145  0.87245309  1
  O  O272  1  0.01345960  0.10507802  0.03753187  1
  O  O273  1  0.02899858  0.10937888  0.51494421  1
  O  O274  1  -0.02522762  0.63340414  -0.00399028  1
  O  O275  1  0.01197900  0.62533719  0.50861814  1
  O  O276  1  0.48000695  0.10775268  -0.01284893  1
  O  O277  1  0.52093158  0.08752015  0.47601570  1
  O  O278  1  0.51842119  0.63817342  0.01707736  1
  O  O279  1  0.49910648  0.63726969  0.51955107  1
  O  O280  1  0.45416156  0.27745259  0.51457433  1
  O  O281  1  0.48554186  0.38776104  1.00685100  1
  O  O282  1  0.49276912  0.89102980  0.49640051  1
  O  O283  1  0.49631247  0.87235991  0.99657255  1
  O  O284  1  1.04026069  0.36906601  0.46153737  1
  O  O285  1  0.98313882  0.38908423  1.00547484  1
  O  O286  1  0.99148742  0.86013467  0.48394166  1
  O  O287  1  1.00340289  0.85948415  0.97891938  1
  O  O288  1  0.48220211  0.47097135  0.37071087  1
  O  O289  1  0.48921047  0.51419921  0.87507334  1
  O  O290  1  0.48355984  0.98459920  0.37731059  1
  O  O291  1  0.50795435  0.98454675  0.89199688  1
  O  O292  1  1.00008305  0.49659769  0.36579019  1
  O  O293  1  0.96178461  0.50808771  0.85579911  1
  O  O294  1  0.99077484  0.99769042  0.37425070  1
  O  O295  1  0.97233128  0.98356057  0.88486610  1
  O  O296  1  0.01223016  0.01385009  0.14773940  1
  O  O297  1  0.02009823  -0.00736678  0.63624165  1
  O  O298  1  0.00601553  0.52402071  0.11067148  1
  O  O299  1  0.02406925  0.50332382  0.63261583  1
  O  O300  1  0.50085825  -0.00897352  0.10924639  1
  O  O301  1  0.50897163  0.00837061  0.61737725  1
  O  O302  1  0.51672920  0.49462371  0.12133518  1
  O  O303  1  0.51900819  0.51487857  0.62989642  1
  O  O304  1  0.24560878  0.39474896  0.20868951  1
  O  O305  1  0.25575842  0.40024616  0.75091498  1
  O  O306  1  0.23369958  0.87485316  0.24916866  1
  O  O307  1  0.27290130  0.86757313  0.72732280  1
  O  O308  1  0.74031671  0.39237021  0.23297053  1
  O  O309  1  0.72688019  0.38161826  0.75044849  1
  O  O310  1  0.74528665  0.89579449  0.25117668  1
  O  O311  1  0.72561190  0.90018464  0.77005639  1
  O  O312  1  0.26234851  0.10718375  0.24727230  1
  O  O313  1  0.23761781  0.11167131  0.74669793  1
  O  O314  1  0.31348742  0.67647657  0.23713280  1
  O  O315  1  0.26979620  0.63311728  0.75810995  1
  O  O316  1  0.75136366  0.10698805  0.26700700  1
  O  O317  1  0.77084016  0.17667512  0.66721417  1
  O  O318  1  0.77020416  0.61308870  0.23416036  1
  O  O319  1  0.71322265  0.60743255  0.76119105  1
  O  O320  1  0.37737318  0.10485416  0.39202107  1
  O  O321  1  0.29432573  0.14083180  0.80272708  1
  O  O322  1  0.40130702  0.59261414  0.38015773  1
  O  O323  1  0.37803420  0.62449834  0.86997113  1
  O  O324  1  0.86949764  0.10160563  0.38885311  1
  O  O325  1  0.89477674  0.12787688  0.88508740  1
  O  O326  1  0.88482944  0.62823642  0.35242431  1
  O  O327  1  0.86143586  0.62431216  0.86928367  1
  O  O328  1  0.12687813  0.36248962  0.13020078  1
  O  O329  1  0.14437845  0.40069862  0.63106971  1
  O  O330  1  0.13026493  0.85696805  0.14243878  1
  O  O331  1  0.12029217  0.87353109  0.60906158  1
  O  O332  1  0.63929930  0.38597518  0.12018610  1
  O  O333  1  0.60583152  0.37414671  0.63596890  1
  O  O334  1  0.62866499  0.90091776  0.13322942  1
  O  O335  1  0.63008405  0.87222217  0.63589452  1
  O  O336  1  0.18442658  0.27547018  0.26848511  1
  O  O337  1  0.15436235  0.25268783  0.81082638  1
  O  O338  1  0.13494144  0.74585302  0.25684407  1
  O  O339  1  0.14648988  0.75846826  0.76386988  1
  O  O340  1  0.63630673  0.25888263  0.22510438  1
  O  O341  1  0.61855291  0.25888272  0.76505146  1
  O  O342  1  0.61601015  0.64990830  0.34063088  1
  O  O343  1  0.61062014  0.74929624  0.76428180  1
  O  O344  1  0.36646038  0.23824647  0.24200995  1
  O  O345  1  0.38081251  0.26460958  0.78198580  1
  O  O346  1  0.36209845  0.72541836  0.26435392  1
  O  O347  1  0.39119306  0.74439191  0.74184850  1
  O  O348  1  1.00246096  0.20719354  0.36893515  1
  O  O349  1  0.85787284  0.25576958  0.73256496  1
  O  O350  1  0.87206026  0.74354382  0.24441551  1
  O  O351  1  0.78592400  0.75577872  0.69060289  1
  O  O352  1  0.37158679  0.49280077  0.47609889  1
  O  O353  1  0.37103198  0.50059047  0.99009397  1
  O  O354  1  0.36422928  0.98128361  0.49278469  1
  O  O355  1  0.37899910  0.99178224  1.00295663  1
  O  O356  1  0.82544157  0.43795859  0.52686254  1
  O  O357  1  0.85785347  0.50277598  0.97843285  1
  O  O358  1  0.86826501  0.97238268  0.48263702  1
  O  O359  1  0.86389075  1.00994792  0.98861808  1
  O  O360  1  0.20681884  0.04496932  -0.00248532  1
  O  O361  1  0.13341169  -0.00073829  0.51044649  1
  O  O362  1  0.17621434  0.53613566  0.09346374  1
  O  O363  1  0.13797244  0.51592978  0.51774518  1
  O  O364  1  0.61755964  0.00771054  0.00947576  1
  O  O365  1  0.63064803  -0.01998639  0.51325587  1
  O  O366  1  0.62896378  0.51624489  0.00655432  1
  O  O367  1  0.62567713  0.46991842  0.50993598  1
  O  O368  1  0.35607781  0.37097863  0.10384775  1
  O  O369  1  0.36460163  0.39100711  0.63175334  1
  O  O370  1  0.35327036  0.86502360  0.14708995  1
  O  O371  1  0.38672617  0.85982741  0.60419424  1
  O  O372  1  0.87137544  0.39365867  0.11198978  1
  O  O373  1  0.86857231  0.40293065  0.58195723  1
  O  O374  1  0.85157077  0.89222619  0.13474834  1
  O  O375  1  0.88921351  0.87808520  0.60960485  1
  O  O376  1  0.14362028  0.11717776  0.39979205  1
  O  O377  1  0.11788031  0.19273980  0.82778010  1
  O  O378  1  0.11542062  0.61523745  0.39182768  1
  O  O379  1  0.14230246  0.62447420  0.86605761  1
  O  O380  1  0.63984854  0.14667311  0.36914453  1
  O  O381  1  0.62580598  0.13459083  0.89446152  1
  O  O382  1  0.61805099  0.60648022  0.39774364  1
  O  O383  1  0.61822698  0.63935879  0.89207914  1
