# generated using pymatgen
data_VZnO4
_symmetry_space_group_name_H-M   'P 1'
_cell_length_a   16.93878247
_cell_length_b   17.05612807
_cell_length_c   16.96352374
_cell_angle_alpha   89.69404357
_cell_angle_beta   90.64324266
_cell_angle_gamma   88.99677132
_symmetry_Int_Tables_number   1
_chemical_formula_structural   VZnO4
_chemical_formula_sum   'V64 Zn64 O256'
_cell_volume   4899.79717635
_cell_formula_units_Z   64
loop_
 _symmetry_equiv_pos_site_id
 _symmetry_equiv_pos_as_xyz
  1  'x, y, z'
loop_
 _atom_site_type_symbol
 _atom_site_label
 _atom_site_symmetry_multiplicity
 _atom_site_fract_x
 _atom_site_fract_y
 _atom_site_fract_z
 _atom_site_occupancy
  V  V0  1  0.13837152  0.62678339  0.51633353  1
  V  V1  1  0.66985152  0.68854395  -0.03516793  1
  V  V2  1  0.87562725  0.62059694  0.76612648  1
  V  V3  1  0.75389733  0.14930513  0.87808492  1
  V  V4  1  -0.00967965  0.85843848  0.36739477  1
  V  V5  1  0.64113981  0.14363761  0.00149977  1
  V  V6  1  0.87710040  -0.00137174  0.87250905  1
  V  V7  1  0.45604027  0.92547258  0.85943260  1
  V  V8  1  0.50452658  0.49527886  0.50195514  1
  V  V9  1  0.87008065  0.14141346  0.23873673  1
  V  V10  1  0.39111967  0.26560309  0.61138322  1
  V  V11  1  0.64301705  0.10647550  0.50376498  1
  V  V12  1  0.75203526  0.25355784  0.47953382  1
  V  V13  1  0.86757019  0.25829766  0.62197826  1
  V  V14  1  0.01253266  0.01502707  0.00405800  1
  V  V15  1  0.49533864  0.11952084  0.10465610  1
  V  V16  1  0.51080009  0.89139803  0.37545206  1
  V  V17  1  0.51041873  0.37968659  0.87999718  1
  V  V18  1  0.24372746  0.63266954  0.86618972  1
  V  V19  1  0.19510912  -0.06144668  0.23070036  1
  V  V20  1  0.25170844  0.13085707  0.85064869  1
  V  V21  1  0.87692889  0.00747752  0.37248431  1
  V  V22  1  0.51359824  0.11315801  0.63021573  1
  V  V23  1  0.38657682  0.11304261  0.27672641  1
  V  V24  1  0.87030817  0.12945907  0.74892114  1
  V  V25  1  0.75084183  0.50843276  0.77787079  1
  V  V26  1  0.75813630  -0.01388532  0.24318119  1
  V  V27  1  0.63393818  0.51431825  0.61809807  1
  V  V28  1  0.63209214  0.38077822  0.74834963  1
  V  V29  1  -0.00527233  0.62426664  0.63325546  1
  V  V30  1  0.23885255  0.75064266  -0.00091551  1
  V  V31  1  0.68837382  0.47662262  0.20492626  1
  V  V32  1  0.12712916  0.26143723  0.88861951  1
  V  V33  1  0.60530015  0.25731842  0.38488693  1
  V  V34  1  0.26397934  0.47864771  0.74385162  1
  V  V35  1  0.61901984  0.74408582  0.35211541  1
  V  V36  1  0.12383530  0.74847610  0.37313188  1
  V  V37  1  0.64052522  -0.00492721  0.11744815  1
  V  V38  1  0.73965580  0.74111250  0.49929638  1
  V  V39  1  0.00296622  0.49705850  0.50743720  1
  V  V40  1  0.49703552  0.64140743  0.62221733  1
  V  V41  1  0.00887175  0.11389839  0.61990502  1
  V  V42  1  0.38262500  0.50532825  0.38234845  1
  V  V43  1  0.25407555  0.62674907  0.37211457  1
  V  V44  1  0.39861921  0.63289342  0.22329756  1
  V  V45  1  0.86605537  0.75195029  0.63932715  1
  V  V46  1  0.87488878  0.52117972  0.36664261  1
  V  V47  1  0.13304818  0.47855720  0.63196724  1
  V  V48  1  0.24949268  0.23457493  0.50677350  1
  V  V49  1  0.50874534  0.74731569  0.77943193  1
  V  V50  1  0.01258510  0.37307657  0.36839035  1
  V  V51  1  0.49621128  0.25106514  0.23510041  1
  V  V52  1  0.87365688  0.87276051  0.50800313  1
  V  V53  1  0.37682551  0.63233900  0.75679317  1
  V  V54  1  0.12772541  0.48191360  0.13590438  1
  V  V55  1  0.36765321  0.87484673  0.48867307  1
  V  V56  1  0.50667291  0.25631795  0.74908547  1
  V  V57  1  0.01100672  0.14057771  0.13075430  1
  V  V58  1  0.32490848  0.44014979  0.91977724  1
  V  V59  1  0.87516284  0.37916648  0.49652784  1
  V  V60  1  0.00287829  0.48690892  -0.00200628  1
  V  V61  1  0.01044344  0.26337757  0.74529060  1
  V  V62  1  0.88708606  0.87594058  0.01700551  1
  V  V63  1  0.50834959  0.50537065  0.00517644  1
  Zn  Zn64  1  0.20648783  0.18898770  0.17295214  1
  Zn  Zn65  1  0.19172433  0.19002943  0.67795858  1
  Zn  Zn66  1  0.23393965  0.73441229  0.21393083  1
  Zn  Zn67  1  0.16936576  0.67411268  0.71650252  1
  Zn  Zn68  1  0.68220116  0.17803067  0.20232762  1
  Zn  Zn69  1  0.69201742  0.19092151  0.68100481  1
  Zn  Zn70  1  0.57100640  0.70811924  0.15885503  1
  Zn  Zn71  1  0.68581486  0.69013759  0.69773420  1
  Zn  Zn72  1  0.38714676  0.29625687  0.38863822  1
  Zn  Zn73  1  0.33399907  0.28127064  0.82371342  1
  Zn  Zn74  1  0.36240951  0.83561919  0.28526245  1
  Zn  Zn75  1  0.34095081  0.79322223  0.85542423  1
  Zn  Zn76  1  0.80805025  0.33028917  0.19665102  1
  Zn  Zn77  1  0.80157121  0.30701989  0.79459938  1
  Zn  Zn78  1  0.80077492  0.81100228  0.31992697  1
  Zn  Zn79  1  0.80340268  0.81573452  0.89398503  1
  Zn  Zn80  1  0.22341262  0.40351577  0.40259490  1
  Zn  Zn81  1  0.15521875  0.43263383  0.94272440  1
  Zn  Zn82  1  0.19277516  0.93645994  0.40901215  1
  Zn  Zn83  1  0.20719664  0.95439374  0.93584233  1
  Zn  Zn84  1  0.72036763  0.41134951  0.37614476  1
  Zn  Zn85  1  0.72544040  0.49992430  0.99602645  1
  Zn  Zn86  1  0.69849603  0.92546963  0.42807144  1
  Zn  Zn87  1  0.70943581  0.95864594  0.94446250  1
  Zn  Zn88  1  0.31501988  0.04775974  0.14573139  1
  Zn  Zn89  1  0.32758310  0.07160948  0.56621022  1
  Zn  Zn90  1  0.30098707  0.56036823  0.05774370  1
  Zn  Zn91  1  0.32190368  0.55798761  0.57359708  1
  Zn  Zn92  1  0.82232753  0.06541035  0.06111329  1
  Zn  Zn93  1  0.85166897  0.08731458  0.53521318  1
  Zn  Zn94  1  0.73330054  0.62573021  0.12437667  1
  Zn  Zn95  1  0.81301309  0.56487325  0.56012898  1
  Zn  Zn96  1  0.47831394  0.46062051  0.20972547  1
  Zn  Zn97  1  0.44386919  0.44220676  0.68135467  1
  Zn  Zn98  1  0.47568266  0.94722322  0.19955753  1
  Zn  Zn99  1  0.48864901  0.91121078  0.66904674  1
  Zn  Zn100  1  0.94434721  0.45068728  0.18682606  1
  Zn  Zn101  1  0.93065944  0.44103336  0.68695179  1
  Zn  Zn102  1  0.97000965  0.93604176  0.18710532  1
  Zn  Zn103  1  0.93746278  0.93878280  0.69425493  1
  Zn  Zn104  1  0.05100239  0.04207395  0.29561165  1
  Zn  Zn105  1  0.04829043  0.09911574  0.82983215  1
  Zn  Zn106  1  0.09527249  0.52443172  0.33860346  1
  Zn  Zn107  1  0.06490900  0.54684712  0.81183452  1
  Zn  Zn108  1  0.57949194  0.07335102  0.30947059  1
  Zn  Zn109  1  0.57621999  0.07061675  0.81207741  1
  Zn  Zn110  1  0.56605341  0.57273723  0.31364975  1
  Zn  Zn111  1  0.56532012  0.56388332  0.82706187  1
  Zn  Zn112  1  0.45295762  0.15676536  0.45413037  1
  Zn  Zn113  1  0.44149894  0.12104479  0.91612947  1
  Zn  Zn114  1  0.43568804  0.70264484  0.43828043  1
  Zn  Zn115  1  0.44032253  0.70168878  0.98061960  1
  Zn  Zn116  1  0.94990664  0.19238821  0.43102122  1
  Zn  Zn117  1  0.94359443  0.19918719  0.93881454  1
  Zn  Zn118  1  0.93706390  0.68805280  0.45252448  1
  Zn  Zn119  1  0.85015641  0.66858250  0.97092513  1
  Zn  Zn120  1  0.05859720  0.31826940  0.07164831  1
  Zn  Zn121  1  0.06075017  0.30379415  0.56095214  1
  Zn  Zn122  1  0.07511717  0.84946176  -0.06808544  1
  Zn  Zn123  1  0.04787717  0.79970838  0.55998949  1
  Zn  Zn124  1  0.56579152  0.31270016  0.06681668  1
  Zn  Zn125  1  0.57680591  0.32291809  0.56774982  1
  Zn  Zn126  1  0.56354816  0.84682048  0.02615611  1
  Zn  Zn127  1  0.55021495  0.80754857  0.55203749  1
  O  O128  1  0.11125540  0.13438242  0.14984611  1
  O  O129  1  0.10761229  0.12845729  0.62263765  1
  O  O130  1  -0.03494091  0.63442453  0.17440438  1
  O  O131  1  0.11520279  0.62312376  0.62712155  1
  O  O132  1  0.62731799  0.12590960  0.11119515  1
  O  O133  1  0.62986554  0.12773166  0.61305160  1
  O  O134  1  0.64060975  0.67981684  0.07544986  1
  O  O135  1  0.60843387  0.61823723  0.64313070  1
  O  O136  1  0.39009846  0.40818962  0.36647143  1
  O  O137  1  0.39058659  0.37163116  0.87205569  1
  O  O138  1  0.38801007  0.88848097  0.38501084  1
  O  O139  1  0.35733430  0.90438568  0.86368471  1
  O  O140  1  0.89632336  0.39275299  0.39197937  1
  O  O141  1  0.84508718  0.33962341  0.96478183  1
  O  O142  1  0.88030570  0.86346091  0.38709039  1
  O  O143  1  0.87042116  0.89906107  0.85750555  1
  O  O144  1  0.22340739  -0.00947633  0.31195730  1
  O  O145  1  0.26317457  0.04012840  0.89642760  1
  O  O146  1  0.27079625  0.50940994  0.38815712  1
  O  O147  1  0.25577743  0.50259829  0.85878324  1
  O  O148  1  0.76708910  -0.00909098  0.35734904  1
  O  O149  1  0.77578764  0.02822890  0.88051656  1
  O  O150  1  0.77705493  0.50551263  0.38974205  1
  O  O151  1  0.75252974  0.50080149  0.87535588  1
  O  O152  1  0.22351703  0.51318647  0.11863757  1
  O  O153  1  0.24379547  0.49325340  0.63247788  1
  O  O154  1  0.23085494  0.97874473  0.14476602  1
  O  O155  1  0.23606547  1.00326557  0.62610577  1
  O  O156  1  0.70541081  0.46281306  0.10740848  1
  O  O157  1  0.73499988  0.51520484  0.62721782  1
  O  O158  1  0.75117789  1.00267396  0.13079841  1
  O  O159  1  0.65705498  0.92646404  0.62953183  1
  O  O160  1  -0.00090267  0.38165293  0.27123322  1
  O  O161  1  -0.01131214  0.36087390  0.74683343  1
  O  O162  1  -0.02180634  0.85049754  0.26962276  1
  O  O163  1  0.01256860  0.89711013  0.78095894  1
  O  O164  1  0.49314637  0.34921115  0.23500854  1
  O  O165  1  0.51166994  0.37548955  0.75064287  1
  O  O166  1  0.47828668  0.86360124  0.27205639  1
  O  O167  1  0.48822640  0.86286561  0.77532959  1
  O  O168  1  0.49030544  0.12640190  0.23325724  1
  O  O169  1  0.53590223  0.15227994  0.73811526  1
  O  O170  1  0.50158232  0.64195315  0.22456717  1
  O  O171  1  0.49235996  0.63080858  0.75695374  1
  O  O172  1  0.98461423  0.11950371  0.24003580  1
  O  O173  1  0.98968914  0.13928088  0.73653656  1
  O  O174  1  0.97568982  0.66464208  0.23850299  1
  O  O175  1  0.98505805  0.60590568  0.74316425  1
  O  O176  1  0.26848222  0.17421730  0.00502739  1
  O  O177  1  0.38627267  0.24291643  0.50705365  1
  O  O178  1  0.34151550  0.76190311  -0.02384288  1
  O  O179  1  0.37328405  0.77541510  0.50315541  1
  O  O180  1  0.87486982  0.27186567  0.00073543  1
  O  O181  1  0.86686853  0.25642359  0.49957067  1
  O  O182  1  0.89759298  0.77889224  -0.01676143  1
  O  O183  1  0.86585076  0.75388806  0.51841017  1
  O  O184  1  0.15080455  0.25189412  0.51382181  1
  O  O185  1  0.12025841  0.25917714  0.98803719  1
  O  O186  1  0.11835405  0.72865701  0.50249049  1
  O  O187  1  0.12528727  0.70381724  0.98133469  1
  O  O188  1  0.64081175  0.25553268  0.49803675  1
  O  O189  1  0.62985497  0.24086291  1.00072992  1
  O  O190  1  0.64126860  0.75149080  0.51710111  1
  O  O191  1  0.62599479  0.78055979  0.96071425  1
  O  O192  1  0.49744427  0.23160029  0.12809641  1
  O  O193  1  0.50392811  0.25248640  0.62440220  1
  O  O194  1  0.49119649  0.76482690  0.07938204  1
  O  O195  1  0.50217726  0.74234553  0.64520955  1
  O  O196  1  0.99756189  0.23895583  0.12350227  1
  O  O197  1  0.98755121  0.24361343  0.62964424  1
  O  O198  1  1.02597903  0.73991967  0.09290138  1
  O  O199  1  0.98235743  0.73201637  0.62674031  1
  O  O200  1  0.01125046  0.27360986  0.38926599  1
  O  O201  1  0.01682014  0.23691296  0.85538443  1
  O  O202  1  0.00998359  0.75047342  0.38813519  1
  O  O203  1  0.07306153  0.73401924  0.93183244  1
  O  O204  1  0.50394163  0.25343208  0.40326578  1
  O  O205  1  0.50495358  0.26273314  0.85056034  1
  O  O206  1  0.51621237  0.75834097  0.38087774  1
  O  O207  1  0.48755358  0.74086425  0.87688363  1
  O  O208  1  0.26352126  0.13527891  0.49403076  1
  O  O209  1  0.23538899  0.12932728  1.05235121  1
  O  O210  1  0.23916913  0.62010278  0.51772707  1
  O  O211  1  0.25193042  0.63080628  0.97206675  1
  O  O212  1  0.74981439  0.14246580  0.50574971  1
  O  O213  1  0.75133409  0.13547014  0.99286239  1
  O  O214  1  0.75670106  0.64344829  0.50000362  1
  O  O215  1  0.75539252  0.61016067  1.01098969  1
  O  O216  1  0.26107588  0.38749511  -0.02799997  1
  O  O217  1  0.27381737  0.30491270  0.42659890  1
  O  O218  1  0.19510117  0.84579164  -0.02523783  1
  O  O219  1  0.26747113  0.89939073  0.48378041  1
  O  O220  1  0.79116116  0.37406470  0.00600715  1
  O  O221  1  0.76276294  0.36255593  0.48114859  1
  O  O222  1  0.78151443  0.88326646  -0.00854726  1
  O  O223  1  0.76597161  0.86176887  0.50025693  1
  O  O224  1  0.11427968  0.51601941  0.23144759  1
  O  O225  1  0.14202241  0.49392918  0.73750031  1
  O  O226  1  0.09007397  0.95264484  0.23128917  1
  O  O227  1  0.08156302  0.93627161  0.78424959  1
  O  O228  1  0.58838774  0.48817364  0.24222677  1
  O  O229  1  0.63838659  0.50213698  0.75256806  1
  O  O230  1  0.64880630  1.01413322  0.23539119  1
  O  O231  1  0.64214842  0.97368696  0.78970036  1
  O  O232  1  0.38849657  0.01529919  0.23830367  1
  O  O233  1  0.25390345  -0.03438149  0.68751525  1
  O  O234  1  0.40040252  0.53249073  0.27123498  1
  O  O235  1  0.36734619  0.50544449  0.74048665  1
  O  O236  1  0.87114610  0.00021270  0.25551766  1
  O  O237  1  0.88209821  0.02071333  0.76142180  1
  O  O238  1  0.88830976  0.51127329  0.26844584  1
  O  O239  1  0.85865285  0.50721342  0.74941477  1
  O  O240  1  0.11428846  0.40823550  0.37891697  1
  O  O241  1  0.12033340  0.36005986  0.86621413  1
  O  O242  1  0.10927840  0.85604639  0.38412146  1
  O  O243  1  0.13088811  0.90304655  0.84347077  1
  O  O244  1  0.62133811  0.35417311  0.37319522  1
  O  O245  1  0.61431737  0.37869886  0.85516294  1
  O  O246  1  0.61652623  0.86552653  0.37556526  1
  O  O247  1  0.64688190  0.92180966  0.84787912  1
  O  O248  1  0.39816790  0.10240349  0.08945693  1
  O  O249  1  0.40903778  0.13387294  0.62228033  1
  O  O250  1  0.37036153  0.61878101  0.12913755  1
  O  O251  1  0.39090833  0.62294198  0.64065745  1
  O  O252  1  0.87943141  0.13088455  0.13483948  1
  O  O253  1  0.87190511  0.13693809  0.63722729  1
  O  O254  1  0.82678521  0.69933333  0.11996179  1
  O  O255  1  0.87967702  0.62910970  0.63323581  1
  O  O256  1  0.26777950  0.27552127  0.12424094  1
  O  O257  1  0.27692689  0.24479562  0.61311488  1
  O  O258  1  0.23345506  0.73805535  0.09746083  1
  O  O259  1  0.22641290  0.81608766  0.61648063  1
  O  O260  1  0.70801130  0.27991803  0.15057839  1
  O  O261  1  0.76372433  0.25696143  0.61834045  1
  O  O262  1  0.84249891  0.74837402  0.17905472  1
  O  O263  1  0.76070543  0.74391351  0.62493839  1
  O  O264  1  0.14605630  0.21425536  0.32718638  1
  O  O265  1  0.23069762  0.24782089  0.85959036  1
  O  O266  1  0.23073384  0.72989714  0.39138153  1
  O  O267  1  0.24186744  0.73519791  0.85903851  1
  O  O268  1  0.73618906  0.24345721  0.38267364  1
  O  O269  1  0.75146423  0.24922524  0.87661206  1
  O  O270  1  0.72879867  0.75837278  0.39057740  1
  O  O271  1  0.75718304  0.71982476  0.90879626  1
  O  O272  1  -0.00525038  0.12577160  0.01506685  1
  O  O273  1  -0.02837585  0.12442710  0.52049539  1
  O  O274  1  -0.07328748  0.58604585  0.01806339  1
  O  O275  1  0.00529386  0.61317267  0.51797561  1
  O  O276  1  0.52053461  0.12744221  -0.00041182  1
  O  O277  1  0.52712392  0.10478818  0.52143528  1
  O  O278  1  0.48765211  0.60389800  0.00407768  1
  O  O279  1  0.49541801  0.64004894  0.52163014  1
  O  O280  1  0.51230881  0.39756124  0.50134833  1
  O  O281  1  0.51136439  0.36680041  0.98100584  1
  O  O282  1  0.49414319  0.87885347  0.48309636  1
  O  O283  1  0.49838071  0.89726829  0.94477288  1
  O  O284  1  0.99898576  0.38504486  0.50252194  1
  O  O285  1  0.99800532  0.38715742  0.99963734  1
  O  O286  1  0.98254552  0.86882564  0.49788300  1
  O  O287  1  0.99443372  0.90225664  0.99022441  1
  O  O288  1  0.49591298  0.52717892  0.39747979  1
  O  O289  1  0.49733177  0.48477486  0.88119973  1
  O  O290  1  0.52157408  0.99002965  0.36300718  1
  O  O291  1  0.47466848  1.02875061  0.85069387  1
  O  O292  1  0.99442892  0.50032117  0.39540412  1
  O  O293  1  1.00990114  0.50770554  0.89762065  1
  O  O294  1  0.98153287  0.97315079  0.36712678  1
  O  O295  1  0.98347401  1.02858031  0.88879283  1
  O  O296  1  -0.00136847  0.01655202  0.10930996  1
  O  O297  1  -0.00385988  0.01542944  0.63490013  1
  O  O298  1  0.01596447  0.50172318  0.11455996  1
  O  O299  1  0.01246002  0.50198650  0.62742751  1
  O  O300  1  0.52802815  0.01855821  0.12901234  1
  O  O301  1  0.51692643  0.02045490  0.66485853  1
  O  O302  1  0.48930417  0.47015284  0.09868597  1
  O  O303  1  0.50512332  0.51551797  0.61533685  1
  O  O304  1  0.28145780  0.33404747  0.17851582  1
  O  O305  1  0.27149196  0.38285647  0.75363717  1
  O  O306  1  0.24866653  0.84650286  0.24526752  1
  O  O307  1  0.25382127  0.75891167  0.65431255  1
  O  O308  1  0.74239001  0.40409498  0.26083417  1
  O  O309  1  0.74165945  0.39417527  0.75576877  1
  O  O310  1  0.75723486  0.88738989  0.24303754  1
  O  O311  1  0.72160467  0.91440058  0.66456010  1
  O  O312  1  0.29455120  0.13662930  0.23013636  1
  O  O313  1  0.25170221  0.12214306  0.75019036  1
  O  O314  1  0.24819110  0.62531601  0.27309738  1
  O  O315  1  0.26727911  0.61742799  0.74491544  1
  O  O316  1  0.76737398  0.11407370  0.24737400  1
  O  O317  1  0.75743902  0.14055736  0.76392538  1
  O  O318  1  0.72516331  0.56875000  0.22098635  1
  O  O319  1  0.75888531  0.61482426  0.75737271  1
  O  O320  1  0.38828190  0.10576931  0.37684024  1
  O  O321  1  0.35283856  0.16938078  0.87234887  1
  O  O322  1  0.36028953  0.62771143  0.39060166  1
  O  O323  1  0.36124107  0.61814584  0.85805356  1
  O  O324  1  0.88905194  0.10995116  0.36651222  1
  O  O325  1  0.86845973  0.13944532  0.86701759  1
  O  O326  1  0.88487144  0.61972603  0.38307203  1
  O  O327  1  0.88654807  0.62672802  0.86231306  1
  O  O328  1  0.12861766  0.38050902  0.13535373  1
  O  O329  1  0.12569558  0.38261659  0.62116266  1
  O  O330  1  0.05717731  0.79365445  0.12912836  1
  O  O331  1  0.11445786  0.83112862  0.66137365  1
  O  O332  1  0.63992874  0.32817509  0.15547439  1
  O  O333  1  0.62033953  0.40446824  0.63926626  1
  O  O334  1  0.62216304  0.89767892  0.11223606  1
  O  O335  1  0.59685748  0.86481980  0.64592223  1
  O  O336  1  0.17294935  0.25966035  0.27600803  1
  O  O337  1  0.11012818  0.25514490  0.73142509  1
  O  O338  1  0.12581058  0.73507282  0.27539832  1
  O  O339  1  0.11641402  0.78241015  0.72085605  1
  O  O340  1  0.59766576  0.22491817  0.27654394  1
  O  O341  1  0.62652094  0.27727923  0.73163216  1
  O  O342  1  0.62261403  0.75297026  0.25231207  1
  O  O343  1  0.60797586  0.74020180  0.76786745  1
  O  O344  1  0.40365378  0.23445767  0.28347496  1
  O  O345  1  0.40112192  0.25616163  0.72925256  1
  O  O346  1  0.35887567  0.72531723  0.24833004  1
  O  O347  1  0.38408493  0.73714149  0.75781588  1
  O  O348  1  0.86101366  0.23890932  0.25141369  1
  O  O349  1  0.88114789  0.24936340  0.74067050  1
  O  O350  1  0.82133594  0.72038672  0.25023391  1
  O  O351  1  0.86842618  0.73038670  0.74206157  1
  O  O352  1  0.39194250  0.50735942  0.49626693  1
  O  O353  1  0.37415021  0.49631963  0.98734057  1
  O  O354  1  0.39309386  0.97677084  0.54480073  1
  O  O355  1  0.43093325  0.88678563  1.09995958  1
  O  O356  1  0.88891492  0.49449799  0.51056504  1
  O  O357  1  0.89194677  0.51377761  1.01665284  1
  O  O358  1  0.86527998  0.98997280  0.47970426  1
  O  O359  1  0.88466388  0.99636075  0.99030604  1
  O  O360  1  0.11049491  0.00510783  -0.01095910  1
  O  O361  1  0.12175920  0.03019949  0.45035584  1
  O  O362  1  0.11197258  0.50356490  0.01557355  1
  O  O363  1  0.11907646  0.51175442  0.52254611  1
  O  O364  1  0.64181812  0.01792421  0.01301616  1
  O  O365  1  0.66063188  0.01064174  0.49698977  1
  O  O366  1  0.60700049  0.49692399  -0.00596676  1
  O  O367  1  0.61511838  0.51478335  0.51641766  1
  O  O368  1  0.33082286  0.38493763  0.15739292  1
  O  O369  1  0.38845073  0.36437203  0.61320326  1
  O  O370  1  0.42319793  0.81111353  0.11414143  1
  O  O371  1  0.38994901  0.91115552  0.60101473  1
  O  O372  1  0.87669864  0.38306085  0.13126523  1
  O  O373  1  0.88103421  0.36884939  0.60923499  1
  O  O374  1  0.89593381  0.88025395  0.11565471  1
  O  O375  1  0.88272620  0.85875515  0.63116812  1
  O  O376  1  0.10277555  0.08345257  0.39814654  1
  O  O377  1  0.14222873  0.14132128  0.86975405  1
  O  O378  1  0.13703066  0.61666809  0.39912647  1
  O  O379  1  0.14525258  0.62539318  0.83073998  1
  O  O380  1  0.61875359  0.13598864  0.40156732  1
  O  O381  1  0.64564136  0.12476317  0.88754706  1
  O  O382  1  0.62466339  0.64540948  0.37105837  1
  O  O383  1  0.62147848  0.62951991  0.90041333  1
