# generated using pymatgen
data_VZnO4
_symmetry_space_group_name_H-M   'P 1'
_cell_length_a   16.91195794
_cell_length_b   16.92821507
_cell_length_c   16.93536803
_cell_angle_alpha   90.10109574
_cell_angle_beta   89.86802817
_cell_angle_gamma   89.86658498
_symmetry_Int_Tables_number   1
_chemical_formula_structural   VZnO4
_chemical_formula_sum   'V64 Zn64 O256'
_cell_volume   4848.38040549
_cell_formula_units_Z   64
loop_
 _symmetry_equiv_pos_site_id
 _symmetry_equiv_pos_as_xyz
  1  'x, y, z'
loop_
 _atom_site_type_symbol
 _atom_site_label
 _atom_site_symmetry_multiplicity
 _atom_site_fract_x
 _atom_site_fract_y
 _atom_site_fract_z
 _atom_site_occupancy
  V  V0  1  0.61899422  0.49566471  0.60574924  1
  V  V1  1  0.38534751  0.63787920  0.74500258  1
  V  V2  1  0.76616590  0.61909440  0.35954265  1
  V  V3  1  0.00340158  0.24680927  0.26494361  1
  V  V4  1  0.14599778  0.87850814  0.73447012  1
  V  V5  1  0.35873292  0.59755179  0.25550390  1
  V  V6  1  0.50207963  0.89408785  0.36171181  1
  V  V7  1  0.50202349  0.63093561  0.59649675  1
  V  V8  1  0.87135482  0.87657985  0.50487032  1
  V  V9  1  0.63954742  0.62277701  -0.00046313  1
  V  V10  1  -0.01538282  0.75937298  0.74333345  1
  V  V11  1  0.85916346  0.50630427  0.89675613  1
  V  V12  1  0.11766005  0.02084616  0.62775755  1
  V  V13  1  0.87113405  0.74590129  0.13631834  1
  V  V14  1  0.74596885  0.76965516  0.00169572  1
  V  V15  1  -0.00999788  0.52558566  0.51135005  1
  V  V16  1  0.50690033  0.37179113  0.38546422  1
  V  V17  1  0.35834703  0.37817393  0.00128876  1
  V  V18  1  -0.00533784  0.87711627  0.36416738  1
  V  V19  1  0.65584097  0.10014824  0.50586044  1
  V  V20  1  0.86692485  0.37214935  0.51396650  1
  V  V21  1  0.62099832  0.74640215  0.86652799  1
  V  V22  1  0.50440157  0.37200289  0.87226237  1
  V  V23  1  0.50498887  0.21935435  0.75447133  1
  V  V24  1  0.12696401  0.76000670  0.87475447  1
  V  V25  1  -0.00677161  0.24707088  0.73601819  1
  V  V26  1  0.77138209  0.24991483  0.00628108  1
  V  V27  1  -0.00579472  0.39102096  0.38003577  1
  V  V28  1  0.86496382  0.12388792  0.73445517  1
  V  V29  1  0.48544372  0.00132786  0.52583711  1
  V  V30  1  0.89117189  0.88214584  -0.00139148  1
  V  V31  1  0.63415550  0.23450739  0.89028209  1
  V  V32  1  0.50642830  0.25621482  0.23463413  1
  V  V33  1  0.37000457  0.48428862  0.41465935  1
  V  V34  1  0.64383179  0.49673520  0.12935178  1
  V  V35  1  0.12502147  0.37620041  0.75103925  1
  V  V36  1  0.75242971  0.73780293  0.50569101  1
  V  V37  1  0.14871588  0.11801024  0.03800531  1
  V  V38  1  0.24374256  0.76365246  0.48016064  1
  V  V39  1  0.61656766  0.74292570  0.37510422  1
  V  V40  1  0.12446998  0.39794209  0.24734577  1
  V  V41  1  0.26011163  0.11847165  0.84148797  1
  V  V42  1  -0.00797206  0.11136717  0.12812297  1
  V  V43  1  0.25293542  0.61741505  0.87078649  1
  V  V44  1  0.62353927  0.02819027  0.11049216  1
  V  V45  1  0.90454450  0.00544334  0.87561549  1
  V  V46  1  0.35218068  0.26437643  0.12628572  1
  V  V47  1  0.36607741  0.14499928  0.26617151  1
  V  V48  1  0.75698568  0.01144872  0.24564473  1
  V  V49  1  0.63265307  0.86817819  0.23323519  1
  V  V50  1  0.63898025  0.37575921  0.24901805  1
  V  V51  1  -0.00545459  0.35878137  0.89227101  1
  V  V52  1  0.02511367  0.73600602  0.24953117  1
  V  V53  1  0.12425453  0.50959854  0.62603408  1
  V  V54  1  0.49277401  0.86024343  0.85023050  1
  V  V55  1  0.49399779  0.62525673  0.13704225  1
  V  V56  1  0.74326453  0.48788134  0.74569049  1
  V  V57  1  0.13067662  0.13071234  0.47862362  1
  V  V58  1  0.49401364  0.49835018  -0.00107564  1
  V  V59  1  0.37445609  -0.01221112  0.83752091  1
  V  V60  1  0.36864753  0.26624845  0.64347056  1
  V  V61  1  0.88319652  0.26328971  0.13662247  1
  V  V62  1  0.86935203  0.62124568  0.73591899  1
  V  V63  1  0.01956544  0.54356300  -0.00379237  1
  Zn  Zn64  1  0.18031330  0.19415693  0.20295146  1
  Zn  Zn65  1  0.18705802  0.20345113  0.68818398  1
  Zn  Zn66  1  0.14378976  0.61161796  0.27024830  1
  Zn  Zn67  1  0.16619466  0.66907607  0.72407905  1
  Zn  Zn68  1  0.69641431  0.19096100  0.18224258  1
  Zn  Zn69  1  0.67186682  0.17290749  0.69761360  1
  Zn  Zn70  1  0.68731861  0.68850016  0.18414422  1
  Zn  Zn71  1  0.68511193  0.66954334  0.68748081  1
  Zn  Zn72  1  0.33091424  0.37527179  0.28337455  1
  Zn  Zn73  1  0.31336075  0.31211473  0.82055205  1
  Zn  Zn74  1  0.33640587  0.80005104  0.30554301  1
  Zn  Zn75  1  0.30975700  0.80344313  0.80250978  1
  Zn  Zn76  1  0.82232641  0.43744504  0.29614798  1
  Zn  Zn77  1  0.81743497  0.31368634  0.81725897  1
  Zn  Zn78  1  0.80054186  0.81574558  0.31862791  1
  Zn  Zn79  1  0.81394415  0.81451622  0.82294538  1
  Zn  Zn80  1  0.15765537  0.48606405  0.41461934  1
  Zn  Zn81  1  0.17655881  0.44218834  0.92825671  1
  Zn  Zn82  1  0.16188041  0.94445137  0.45663721  1
  Zn  Zn83  1  0.16351600  0.96272352  0.90962571  1
  Zn  Zn84  1  0.69153680  0.44174228  0.43036762  1
  Zn  Zn85  1  0.68951301  0.42718307  0.93970941  1
  Zn  Zn86  1  0.69659046  0.92489324  0.43037161  1
  Zn  Zn87  1  0.66925778  0.93670378  0.93596506  1
  Zn  Zn88  1  0.32939692  0.06282006  0.11723172  1
  Zn  Zn89  1  0.29674765  0.06604858  0.55891970  1
  Zn  Zn90  1  0.31976053  0.58160519  0.05089298  1
  Zn  Zn91  1  0.33068306  0.52625326  0.61354289  1
  Zn  Zn92  1  0.80994279  0.06578081  0.06163146  1
  Zn  Zn93  1  0.86319132  0.08413551  0.51788938  1
  Zn  Zn94  1  0.85770660  0.53440858  0.11607012  1
  Zn  Zn95  1  0.80271838  0.55833947  0.55703238  1
  Zn  Zn96  1  0.45030861  0.43696163  0.18114122  1
  Zn  Zn97  1  0.44636193  0.45196705  0.69430219  1
  Zn  Zn98  1  0.48192518  0.99836646  0.23040067  1
  Zn  Zn99  1  0.43882488  0.90949440  0.66864815  1
  Zn  Zn100  1  0.97861027  0.42858199  0.16530800  1
  Zn  Zn101  1  0.93728164  0.43782358  0.69203020  1
  Zn  Zn102  1  0.93701979  0.92211773  0.18891747  1
  Zn  Zn103  1  0.93205572  0.94479813  0.68264841  1
  Zn  Zn104  1  -0.00100142  0.08186139  0.35783148  1
  Zn  Zn105  1  0.06984009  0.07112999  0.80229538  1
  Zn  Zn106  1  -0.05764381  0.55934957  0.30231711  1
  Zn  Zn107  1  0.05309203  0.56404962  0.81282408  1
  Zn  Zn108  1  0.62193101  0.05041598  0.33681745  1
  Zn  Zn109  1  0.55980754  0.05183926  0.84070190  1
  Zn  Zn110  1  0.56092863  0.54877269  0.31997013  1
  Zn  Zn111  1  0.56417736  0.56091212  0.81482474  1
  Zn  Zn112  1  0.50088845  0.16493754  0.40827032  1
  Zn  Zn113  1  0.40182178  0.19682883  0.92363266  1
  Zn  Zn114  1  0.43575836  0.68016346  0.40250447  1
  Zn  Zn115  1  0.43967348  0.67645718  0.92953901  1
  Zn  Zn116  1  0.96914815  0.22098881  0.47403999  1
  Zn  Zn117  1  0.94735106  0.17691224  0.94650171  1
  Zn  Zn118  1  0.93551824  0.70692856  0.43084672  1
  Zn  Zn119  1  0.92881537  0.69338276  0.91508890  1
  Zn  Zn120  1  0.07655828  0.29651130  0.06863144  1
  Zn  Zn121  1  0.06459118  0.32055322  0.56653084  1
  Zn  Zn122  1  0.03630352  0.75126188  0.04311232  1
  Zn  Zn123  1  0.04512355  0.81515001  0.56887089  1
  Zn  Zn124  1  0.56837656  0.31770180  0.06095778  1
  Zn  Zn125  1  0.52383645  0.33518422  0.59191549  1
  Zn  Zn126  1  0.55411093  0.80421859  0.06643256  1
  Zn  Zn127  1  0.53645483  0.80688645  0.53670993  1
  O  O128  1  0.11420554  0.12081698  0.14030353  1
  O  O129  1  0.12534500  0.12228695  0.63773751  1
  O  O130  1  0.16858004  0.57655249  0.12684359  1
  O  O131  1  0.11971193  0.60993041  0.64104135  1
  O  O132  1  0.62079934  0.12788370  0.12332658  1
  O  O133  1  0.63442967  0.13629907  0.60007321  1
  O  O134  1  0.61838330  0.61544552  0.11564387  1
  O  O135  1  0.61057723  0.60835594  0.62743357  1
  O  O136  1  0.39432344  0.37843313  0.38226600  1
  O  O137  1  0.38817770  0.36870773  0.89453897  1
  O  O138  1  0.40249998  0.87883674  0.35361411  1
  O  O139  1  0.38210958  0.87501782  0.86135222  1
  O  O140  1  0.88789177  0.38842922  0.37955327  1
  O  O141  1  0.89027915  0.39119411  0.87628914  1
  O  O142  1  0.88563037  0.84485740  0.38538887  1
  O  O143  1  0.86313842  0.89884881  0.88489881  1
  O  O144  1  0.24498153  -0.00544941  0.37027364  1
  O  O145  1  0.26941174  -0.00002212  0.86582188  1
  O  O146  1  0.27079205  0.47039689  0.40002061  1
  O  O147  1  0.23877745  0.51867129  0.86775712  1
  O  O148  1  0.73026209  0.00098717  0.35055860  1
  O  O149  1  0.71015520  -0.04659156  0.76792438  1
  O  O150  1  0.75432367  0.51360125  0.36451764  1
  O  O151  1  0.75764168  0.48766855  0.86712426  1
  O  O152  1  0.22108705  0.52673742  0.11128488  1
  O  O153  1  0.22303122  0.49590710  0.61169486  1
  O  O154  1  0.28357590  0.94810808  0.09899277  1
  O  O155  1  0.21995361  0.99665374  0.60637310  1
  O  O156  1  0.74111904  0.50931187  0.12348549  1
  O  O157  1  0.73195514  0.50501268  0.63572225  1
  O  O158  1  0.73600737  1.00765214  0.12980077  1
  O  O159  1  0.68413922  0.90594230  0.62141634  1
  O  O160  1  0.00114606  0.37401396  0.26775726  1
  O  O161  1  -0.00320570  0.36081209  0.75991630  1
  O  O162  1  -0.00142994  0.85194755  0.25525534  1
  O  O163  1  -0.02467229  0.85957223  0.75134394  1
  O  O164  1  0.51464866  0.37444044  0.25446551  1
  O  O165  1  0.49530708  0.38621239  0.77419347  1
  O  O166  1  0.52135030  0.88097755  0.25287141  1
  O  O167  1  0.50856055  0.86264370  0.75409806  1
  O  O168  1  0.49300378  0.15636839  0.24634270  1
  O  O169  1  0.50525164  0.12008916  0.75990318  1
  O  O170  1  0.50056284  0.60237821  0.23571385  1
  O  O171  1  0.48627986  0.61722092  0.75864860  1
  O  O172  1  0.99788428  0.14242776  0.25582892  1
  O  O173  1  0.99323998  0.14151186  0.75562571  1
  O  O174  1  0.99866470  0.63739193  0.24506119  1
  O  O175  1  0.97640255  0.62959876  0.75606362  1
  O  O176  1  0.37263333  0.26851136  0.01486381  1
  O  O177  1  0.38498657  0.21716633  0.54347745  1
  O  O178  1  0.40321904  0.77189206  0.00174529  1
  O  O179  1  0.34450707  0.74491607  0.45543685  1
  O  O180  1  0.87518902  0.24929898  0.00500421  1
  O  O181  1  0.87141251  0.27046857  0.50133417  1
  O  O182  1  0.85661417  0.76630307  -0.01680522  1
  O  O183  1  0.85759671  0.74483056  0.50707723  1
  O  O184  1  0.08480374  0.22246606  0.50754323  1
  O  O185  1  0.13318325  0.21642526  1.00832929  1
  O  O186  1  0.14265888  0.77774838  0.50477956  1
  O  O187  1  0.12324939  0.76276630  0.97504812  1
  O  O188  1  0.69446413  0.28039774  0.55878184  1
  O  O189  1  0.62320163  0.24772387  0.99233793  1
  O  O190  1  0.63223154  0.76074728  0.48066106  1
  O  O191  1  0.63037707  0.73886108  1.00293276  1
  O  O192  1  0.49293814  0.27251792  0.13307990  1
  O  O193  1  0.50718025  0.23938505  0.65376985  1
  O  O194  1  0.50228266  0.72373823  0.13050387  1
  O  O195  1  0.52435384  0.72833283  0.62279253  1
  O  O196  1  0.99564228  0.23852996  0.13787616  1
  O  O197  1  0.98993132  0.25520360  0.63788237  1
  O  O198  1  0.98362687  0.75647176  0.14031391  1
  O  O199  1  0.99776715  0.74472130  0.64439285  1
  O  O200  1  -0.00607610  0.26631463  0.36641387  1
  O  O201  1  -0.00878809  0.25761718  0.87402394  1
  O  O202  1  0.01089440  0.74870970  0.35528611  1
  O  O203  1  0.01614532  0.74503565  0.85729932  1
  O  O204  1  0.50466456  0.26692595  0.35084738  1
  O  O205  1  0.49771262  0.25454547  0.87043861  1
  O  O206  1  0.51214057  0.76775732  0.38370622  1
  O  O207  1  0.50548716  0.75178514  0.87238887  1
  O  O208  1  0.23053573  0.13632816  0.49317919  1
  O  O209  1  0.25002944  0.10972870  1.05038373  1
  O  O210  1  0.21353630  0.66560540  0.45955644  1
  O  O211  1  0.26282094  0.63576217  0.97335555  1
  O  O212  1  0.75510828  0.11513749  0.49842042  1
  O  O213  1  0.75279039  0.14797838  1.00307604  1
  O  O214  1  0.75067321  0.62941137  0.47918473  1
  O  O215  1  0.73602088  0.63221044  0.99690369  1
  O  O216  1  0.26048314  0.39088297  -0.01043033  1
  O  O217  1  0.25193312  0.31715453  0.48318006  1
  O  O218  1  0.32114793  0.90115967  0.05556659  1
  O  O219  1  0.25075960  0.86957249  0.48759541  1
  O  O220  1  0.74440299  0.35087703  0.00086035  1
  O  O221  1  0.76899702  0.39054922  0.49268449  1
  O  O222  1  0.74108269  0.86990013  -0.00129653  1
  O  O223  1  0.76023012  0.85070351  0.48832054  1
  O  O224  1  0.11145045  0.49955513  0.24974887  1
  O  O225  1  0.10551737  0.48663864  0.74062234  1
  O  O226  1  0.24627087  0.96612195  0.30256904  1
  O  O227  1  0.12757043  0.98707127  0.74189865  1
  O  O228  1  0.62618721  0.49175141  0.23582074  1
  O  O229  1  0.64269721  0.50010609  0.76212393  1
  O  O230  1  0.63474658  0.99101132  0.23008222  1
  O  O231  1  0.67862999  0.99731122  0.83240333  1
  O  O232  1  0.37422943  0.04352362  0.22610403  1
  O  O233  1  0.37770134  -0.01862486  0.73861229  1
  O  O234  1  0.37148831  0.48781368  0.24928716  1
  O  O235  1  0.36166718  0.51896915  0.72422046  1
  O  O236  1  0.85383378  -0.01309450  0.23695668  1
  O  O237  1  0.88181584  0.01372802  0.76624482  1
  O  O238  1  0.89027623  0.49342445  0.22314616  1
  O  O239  1  0.86608017  0.50899974  0.75468813  1
  O  O240  1  0.10670045  0.39182544  0.36597509  1
  O  O241  1  0.09793731  0.38830657  0.86357796  1
  O  O242  1  0.09520006  0.88950468  0.38657565  1
  O  O243  1  0.13239574  0.87046033  0.85206366  1
  O  O244  1  0.62130655  0.38446219  0.35649121  1
  O  O245  1  0.60809458  0.35925460  0.88437711  1
  O  O246  1  0.62128526  0.86548495  0.35913485  1
  O  O247  1  0.59757786  0.85599841  0.89139293  1
  O  O248  1  0.37798486  0.16533040  0.13972918  1
  O  O249  1  0.37313098  0.15786088  0.60020107  1
  O  O250  1  0.38392716  0.61144391  0.14034980  1
  O  O251  1  0.39670085  0.62840751  0.62955624  1
  O  O252  1  0.88836454  0.13416845  0.12386581  1
  O  O253  1  0.87549809  0.11052156  0.63661698  1
  O  O254  1  0.86972925  0.64915348  0.11284780  1
  O  O255  1  0.86612580  0.62138466  0.63701973  1
  O  O256  1  0.25364413  0.26456910  0.13519351  1
  O  O257  1  0.26902937  0.27480147  0.64768564  1
  O  O258  1  0.21875467  0.80181084  0.09670702  1
  O  O259  1  0.27205943  0.74616682  0.57617341  1
  O  O260  1  0.77343329  0.25018260  0.11995866  1
  O  O261  1  0.73295414  0.27360636  0.61990951  1
  O  O262  1  0.75424196  0.75023107  0.10634393  1
  O  O263  1  0.73021567  0.73268889  0.60298704  1
  O  O264  1  0.24856837  0.28274616  0.42006475  1
  O  O265  1  0.28993858  0.21294509  0.88013786  1
  O  O266  1  0.23754721  0.78407044  0.37276312  1
  O  O267  1  0.23326238  0.74663374  0.86430652  1
  O  O268  1  0.73474199  0.25048287  0.39743953  1
  O  O269  1  0.73889334  0.25150372  0.88259407  1
  O  O270  1  0.73806979  0.73397867  0.37897431  1
  O  O271  1  0.72915678  0.75709344  0.88975075  1
  O  O272  1  0.01012120  0.12099506  0.02612556  1
  O  O273  1  -0.04701558  0.11259653  0.45680477  1
  O  O274  1  0.00398257  0.64661222  -0.00419625  1
  O  O275  1  -0.01303074  0.62347737  0.49971472  1
  O  O276  1  0.46524833  0.10778929  0.00477596  1
  O  O277  1  0.51225445  0.09727035  0.50073129  1
  O  O278  1  0.49782323  0.61155216  0.00960108  1
  O  O279  1  0.49132950  0.63637923  0.49749346  1
  O  O280  1  0.52241284  0.34705634  0.48055409  1
  O  O281  1  0.49647335  0.38789133  0.99758217  1
  O  O282  1  0.51530962  0.90612894  0.47290573  1
  O  O283  1  0.45366021  0.83047880  1.00548756  1
  O  O284  1  0.99221954  0.37467703  0.48958057  1
  O  O285  1  1.01248197  0.36126607  0.99040403  1
  O  O286  1  0.98169710  0.85667693  0.48604836  1
  O  O287  1  0.98664728  0.86014221  0.99333536  1
  O  O288  1  0.49929704  0.47942677  0.38538137  1
  O  O289  1  0.51102137  0.48933875  0.89331016  1
  O  O290  1  0.51248114  1.00054869  0.34783320  1
  O  O291  1  0.48548270  0.97246782  0.87157432  1
  O  O292  1  0.99637429  0.49960374  0.39159669  1
  O  O293  1  0.98499913  0.50683388  0.90019979  1
  O  O294  1  0.97130519  0.97362538  0.34748709  1
  O  O295  1  1.00383662  1.00190781  0.87375057  1
  O  O296  1  -0.00796125  0.01284123  0.14421020  1
  O  O297  1  0.01493123  0.00266226  0.63271837  1
  O  O298  1  -0.02168436  0.50986773  0.08315790  1
  O  O299  1  0.00114073  0.50244809  0.61672987  1
  O  O300  1  0.52445257  -0.00194608  0.12619278  1
  O  O301  1  0.51082273  -0.01150633  0.62198469  1
  O  O302  1  0.51503860  0.50402488  0.11054129  1
  O  O303  1  0.50943166  0.51282525  0.61851862  1
  O  O304  1  0.22351567  0.38109281  0.25136342  1
  O  O305  1  0.22292024  0.36660721  0.77577099  1
  O  O306  1  0.32074117  0.85612004  0.19833415  1
  O  O307  1  0.24439503  0.86626996  0.72867006  1
  O  O308  1  0.73828584  0.37193802  0.25373944  1
  O  O309  1  0.76203588  0.38865217  0.74791964  1
  O  O310  1  0.73667795  0.88138637  0.24832585  1
  O  O311  1  0.71736597  0.87706532  0.78066792  1
  O  O312  1  0.26557543  0.15426207  0.26609825  1
  O  O313  1  0.26226768  0.12954682  0.74298153  1
  O  O314  1  0.26111052  0.60677148  0.25070462  1
  O  O315  1  0.26910923  0.63510810  0.75472518  1
  O  O316  1  0.74784319  0.11429554  0.24822709  1
  O  O317  1  0.76495790  0.13041206  0.74610837  1
  O  O318  1  0.74570067  0.62862816  0.26088080  1
  O  O319  1  0.76042962  0.61174486  0.75379985  1
  O  O320  1  0.39296960  0.14264277  0.36204973  1
  O  O321  1  0.37934539  0.09142991  0.86544439  1
  O  O322  1  0.38127851  0.58175469  0.36870549  1
  O  O323  1  0.36616624  0.62701524  0.85996771  1
  O  O324  1  0.78709458  0.21835177  0.36047474  1
  O  O325  1  0.87971603  0.10514888  0.88428777  1
  O  O326  1  0.86873607  0.62975166  0.36401525  1
  O  O327  1  0.86553728  0.60824680  0.87443210  1
  O  O328  1  0.09247661  0.38313068  0.14506637  1
  O  O329  1  0.12010473  0.38064514  0.64331211  1
  O  O330  1  0.19646402  0.84952861  0.14628826  1
  O  O331  1  0.11280193  0.88077195  0.63500720  1
  O  O332  1  0.62964258  0.39072536  0.12964688  1
  O  O333  1  0.60806542  0.39766676  0.63436634  1
  O  O334  1  0.62319152  0.86345006  0.13156761  1
  O  O335  1  0.62780414  0.86436401  0.63930025  1
  O  O336  1  0.10594468  0.26607705  0.25139514  1
  O  O337  1  0.10599743  0.26266024  0.74869924  1
  O  O338  1  0.12396611  0.72336724  0.23442223  1
  O  O339  1  0.11124004  0.76995348  0.74677641  1
  O  O340  1  0.61969663  0.26794824  0.23187931  1
  O  O341  1  0.61128332  0.24091016  0.77085085  1
  O  O342  1  0.63092566  0.76027335  0.25688918  1
  O  O343  1  0.63240816  0.73745447  0.76950236  1
  O  O344  1  0.38276027  0.27198339  0.23989969  1
  O  O345  1  0.39311004  0.25268991  0.74985774  1
  O  O346  1  0.38388486  0.69983245  0.28681525  1
  O  O347  1  0.38370932  0.74023721  0.74279734  1
  O  O348  1  0.88997148  0.26135150  0.23921968  1
  O  O349  1  0.88091021  0.23510599  0.75661982  1
  O  O350  1  0.85645165  0.75463821  0.23347580  1
  O  O351  1  0.87451688  0.73659330  0.76462438  1
  O  O352  1  0.37751634  0.49612399  0.51255070  1
  O  O353  1  0.38766380  0.49357849  1.00541458  1
  O  O354  1  0.38422695  1.00265481  0.52354662  1
  O  O355  1  0.42747323  1.04720727  1.02472060  1
  O  O356  1  0.88772312  0.49516897  0.50723360  1
  O  O357  1  0.84951727  0.50564552  0.99437255  1
  O  O358  1  0.85813250  0.97297119  0.48414286  1
  O  O359  1  0.87907164  0.99021807  0.99418239  1
  O  O360  1  0.13041984  0.02475612  -0.00601425  1
  O  O361  1  0.10705487  0.02821417  0.51063034  1
  O  O362  1  0.11586472  0.51855324  -0.00749517  1
  O  O363  1  0.10066566  0.49861880  0.51569508  1
  O  O364  1  0.62873444  0.00936891  0.00910573  1
  O  O365  1  0.64224263  -0.00144916  0.50299534  1
  O  O366  1  0.62475957  0.50897019  0.00633271  1
  O  O367  1  0.62780183  0.49778019  0.50657837  1
  O  O368  1  0.37219359  0.37867327  0.11133129  1
  O  O369  1  0.40835861  0.36107144  0.62339502  1
  O  O370  1  0.35087504  0.82100389  0.14028078  1
  O  O371  1  0.43423078  0.83239691  0.58841351  1
  O  O372  1  0.89435583  0.36000066  0.11697548  1
  O  O373  1  0.87546257  0.38089021  0.61427049  1
  O  O374  1  0.87378876  0.86275340  0.10305563  1
  O  O375  1  0.87663224  0.87884652  0.60706523  1
  O  O376  1  0.11322038  0.11796459  0.38078252  1
  O  O377  1  0.15966722  0.11420423  0.86207494  1
  O  O378  1  0.14165678  0.59392410  0.38181430  1
  O  O379  1  0.13733274  0.64119222  0.84611290  1
  O  O380  1  0.61983364  0.14052675  0.40802725  1
  O  O381  1  0.61898729  0.13520605  0.88638051  1
  O  O382  1  0.61501976  0.64037943  0.36493044  1
  O  O383  1  0.61198870  0.63617317  0.89393827  1
