# generated using pymatgen
data_VZnO4
_symmetry_space_group_name_H-M   'P 1'
_cell_length_a   16.95104094
_cell_length_b   16.99044027
_cell_length_c   16.92689080
_cell_angle_alpha   89.33333068
_cell_angle_beta   89.69999770
_cell_angle_gamma   90.58883537
_symmetry_Int_Tables_number   1
_chemical_formula_structural   VZnO4
_chemical_formula_sum   'V64 Zn64 O256'
_cell_volume   4874.38281101
_cell_formula_units_Z   64
loop_
 _symmetry_equiv_pos_site_id
 _symmetry_equiv_pos_as_xyz
  1  'x, y, z'
loop_
 _atom_site_type_symbol
 _atom_site_label
 _atom_site_symmetry_multiplicity
 _atom_site_fract_x
 _atom_site_fract_y
 _atom_site_fract_z
 _atom_site_occupancy
  V  V0  1  0.76554507  0.34725851  0.64683303  1
  V  V1  1  0.49615237  0.24798426  0.24537298  1
  V  V2  1  0.88240371  0.51133493  0.87404908  1
  V  V3  1  0.11938680  0.88325653  0.73151872  1
  V  V4  1  -0.01217150  -0.02388341  0.50449183  1
  V  V5  1  0.74474411  0.49982746  0.75390395  1
  V  V6  1  0.48477752  0.23952211  0.74226326  1
  V  V7  1  0.50369732  -0.00077319  0.01511794  1
  V  V8  1  0.35584983  0.51533545  0.34729730  1
  V  V9  1  -0.00812650  0.48092548  0.49564236  1
  V  V10  1  0.87183809  0.62826783  0.74207511  1
  V  V11  1  0.73501301  0.72147471  0.50563940  1
  V  V12  1  0.74837452  0.24909096  -0.00730629  1
  V  V13  1  0.00059321  0.25516557  0.22385229  1
  V  V14  1  0.86116864  -0.02578189  0.36509039  1
  V  V15  1  0.71683348  0.91828361  0.15308062  1
  V  V16  1  0.22281035  0.72355322  0.50532420  1
  V  V17  1  0.49033698  0.49973592  -0.02135441  1
  V  V18  1  0.61028819  0.38716777  0.74312520  1
  V  V19  1  0.75366042  0.49441368  0.24087173  1
  V  V20  1  0.24424902  0.26057777  0.49851741  1
  V  V21  1  0.84545326  0.84962801  0.50194096  1
  V  V22  1  0.01301534  0.24384958  0.74291887  1
  V  V23  1  0.11161368  0.75906630  0.87509870  1
  V  V24  1  0.85926675  0.15172300  0.24900713  1
  V  V25  1  0.01156049  0.61243100  0.61888599  1
  V  V26  1  0.88296044  0.36966464  -0.01049061  1
  V  V27  1  0.12808929  0.08559769  0.02226151  1
  V  V28  1  0.63577593  0.01048184  0.62778938  1
  V  V29  1  0.12514712  0.38745680  0.72233794  1
  V  V30  1  0.63752026  0.62547121  -0.02065640  1
  V  V31  1  0.24083247  0.37608260  0.14907163  1
  V  V32  1  0.11875172  0.26471991  0.36479699  1
  V  V33  1  0.25028995  0.11672732  0.36919118  1
  V  V34  1  0.63086106  0.75917737  0.86308041  1
  V  V35  1  0.26136853  0.50265940  0.75825521  1
  V  V36  1  0.14547589  0.23536125  0.92219152  1
  V  V37  1  0.25929589  0.74942833  -0.02303483  1
  V  V38  1  0.26947024  0.86015294  0.17360779  1
  V  V39  1  0.50120476  0.61542281  0.11991619  1
  V  V40  1  0.49992897  0.74756745  0.24531719  1
  V  V41  1  0.37253801  0.23982837  0.61905348  1
  V  V42  1  0.47890324  0.36805089  0.88147720  1
  V  V43  1  0.12393714  0.61755145  0.00074273  1
  V  V44  1  -0.00271225  0.74798461  0.74036261  1
  V  V45  1  0.62497668  0.49618531  0.11386130  1
  V  V46  1  0.37874632  0.39276176  0.50151270  1
  V  V47  1  0.26717650  0.87298700  0.61514536  1
  V  V48  1  0.76524544  0.76160195  0.00270853  1
  V  V49  1  0.10344922  0.12944389  0.50674486  1
  V  V50  1  0.36995723  0.65937535  0.74457817  1
  V  V51  1  0.28131408  0.02204156  0.73612880  1
  V  V52  1  0.37953163  0.88023289  -0.00144658  1
  V  V53  1  0.50730950  0.87788389  0.86780791  1
  V  V54  1  0.62632622  0.24956995  0.86800716  1
  V  V55  1  -0.00122516  0.50692523  0.01053051  1
  V  V56  1  0.74418050  0.61325318  0.36035440  1
  V  V57  1  0.61806622  0.12903086  0.01184764  1
  V  V58  1  0.37623416  0.73069774  0.12207887  1
  V  V59  1  0.62305073  0.74207209  0.35927042  1
  V  V60  1  0.88257405  0.63388977  0.23066473  1
  V  V61  1  0.49907493  0.39116699  0.36410031  1
  V  V62  1  0.36454935  0.24699564  0.12292457  1
  V  V63  1  0.75099753  0.37602229  0.11455727  1
  Zn  Zn64  1  0.17830485  0.18712904  0.18130651  1
  Zn  Zn65  1  0.18463062  0.19346011  0.68306814  1
  Zn  Zn66  1  0.17677500  0.69841173  0.17484365  1
  Zn  Zn67  1  0.19378063  0.68509574  0.68855293  1
  Zn  Zn68  1  0.67843878  0.23116817  0.20591852  1
  Zn  Zn69  1  0.72208040  0.19312168  0.55100939  1
  Zn  Zn70  1  0.68744332  0.68416807  0.17391493  1
  Zn  Zn71  1  0.67597334  0.67484892  0.69748532  1
  Zn  Zn72  1  0.31314868  0.32059019  0.31239399  1
  Zn  Zn73  1  0.29715439  0.30791493  0.80655001  1
  Zn  Zn74  1  0.30694712  0.71127044  0.32488672  1
  Zn  Zn75  1  0.31455455  0.84323632  0.80438351  1
  Zn  Zn76  1  0.96574998  0.36602633  0.37142609  1
  Zn  Zn77  1  0.82899813  0.31899700  0.80234641  1
  Zn  Zn78  1  0.81362480  0.80251540  0.30030911  1
  Zn  Zn79  1  0.80986057  0.81789703  0.81582187  1
  Zn  Zn80  1  0.18131802  0.44919144  0.44043673  1
  Zn  Zn81  1  0.19228440  0.43682651  0.93431616  1
  Zn  Zn82  1  0.17510970  0.94570238  0.44813622  1
  Zn  Zn83  1  0.20516691  0.94549570  0.90693839  1
  Zn  Zn84  1  0.66532885  0.36607303  0.47322187  1
  Zn  Zn85  1  0.68717315  0.43620491  0.92455177  1
  Zn  Zn86  1  0.67481000  0.93841402  0.31949702  1
  Zn  Zn87  1  0.67546637  0.92407344  0.97251683  1
  Zn  Zn88  1  0.28331380  0.06374879  0.17407430  1
  Zn  Zn89  1  0.30679975  0.06045304  0.54384735  1
  Zn  Zn90  1  0.31205685  0.56736657  0.03695332  1
  Zn  Zn91  1  0.30724344  0.56665969  0.58328358  1
  Zn  Zn92  1  0.75094219  0.09673942  0.12940722  1
  Zn  Zn93  1  0.84276797  0.04458213  0.57495050  1
  Zn  Zn94  1  0.81404316  0.56897856  0.05623833  1
  Zn  Zn95  1  0.77955288  0.49240065  0.52980964  1
  Zn  Zn96  1  0.42346984  0.44142814  0.17635721  1
  Zn  Zn97  1  0.42450502  0.42216445  0.68711806  1
  Zn  Zn98  1  0.42997975  0.93434225  0.19314138  1
  Zn  Zn99  1  0.45206477  0.93210062  0.56315961  1
  Zn  Zn100  1  0.93295999  0.43101146  0.18383652  1
  Zn  Zn101  1  0.94761592  0.43381873  0.69657158  1
  Zn  Zn102  1  0.89958811  0.98549590  0.15541646  1
  Zn  Zn103  1  0.91455173  0.91573233  0.68498784  1
  Zn  Zn104  1  0.02029971  0.10270459  0.34719851  1
  Zn  Zn105  1  0.11702467  0.08581678  0.80553055  1
  Zn  Zn106  1  0.04622120  0.55465391  0.32161130  1
  Zn  Zn107  1  0.06813608  0.56494936  0.81857747  1
  Zn  Zn108  1  0.56729229  0.06496800  0.19300671  1
  Zn  Zn109  1  0.55568955  0.06574123  0.82450723  1
  Zn  Zn110  1  0.56410526  0.54337467  0.30363781  1
  Zn  Zn111  1  0.52735154  0.54529217  0.76405718  1
  Zn  Zn112  1  0.42269187  0.20708708  0.41538895  1
  Zn  Zn113  1  0.43921151  0.19366703  0.95839571  1
  Zn  Zn114  1  0.46943562  0.62559026  0.42474639  1
  Zn  Zn115  1  0.44766608  0.68452902  0.91989200  1
  Zn  Zn116  1  0.89463910  0.17745797  0.44952188  1
  Zn  Zn117  1  0.94257893  0.21491522  0.90776147  1
  Zn  Zn118  1  0.89243043  0.63201984  0.46381492  1
  Zn  Zn119  1  0.94135469  0.68662219  0.93592075  1
  Zn  Zn120  1  0.08126475  0.31966299  0.05069613  1
  Zn  Zn121  1  0.05383661  0.30972102  0.56551669  1
  Zn  Zn122  1  0.12297816  0.87579659  0.04137514  1
  Zn  Zn123  1  0.06073753  0.80132657  0.55804916  1
  Zn  Zn124  1  0.55537678  0.31413336  0.06379312  1
  Zn  Zn125  1  0.59201173  0.49229896  0.58593730  1
  Zn  Zn126  1  0.56641129  0.80266955  0.05764367  1
  Zn  Zn127  1  0.62443356  0.86643561  0.48916556  1
  O  O128  1  0.18487017  0.09121605  0.11410015  1
  O  O129  1  0.12085698  0.13626123  0.60397216  1
  O  O130  1  0.12333132  0.63394174  0.09938990  1
  O  O131  1  0.10894569  0.62427317  0.63668655  1
  O  O132  1  0.62223877  0.14267320  0.11549898  1
  O  O133  1  0.64936693  0.11288608  0.59893182  1
  O  O134  1  0.61862654  0.61505897  0.10191834  1
  O  O135  1  0.59303706  0.61005117  0.63943751  1
  O  O136  1  0.37326001  0.39823347  0.38193001  1
  O  O137  1  0.38096645  0.35832031  0.87685293  1
  O  O138  1  0.41920583  0.79319727  0.47353627  1
  O  O139  1  0.39607851  0.86521740  0.89277610  1
  O  O140  1  0.76553446  0.36036297  0.38221949  1
  O  O141  1  0.87527681  0.39070465  0.88606061  1
  O  O142  1  0.86026153  0.86633487  0.38356251  1
  O  O143  1  0.75908054  1.05520953  0.85544970  1
  O  O144  1  0.23800860  0.01859112  0.38796483  1
  O  O145  1  0.27882568  -0.04180435  0.82388136  1
  O  O146  1  0.26011598  0.50236849  0.37810038  1
  O  O147  1  0.23428605  0.50777968  0.86189306  1
  O  O148  1  0.76229442  -0.00437152  0.36435259  1
  O  O149  1  0.73977143  -0.01503396  0.86349260  1
  O  O150  1  0.73559466  0.50527177  0.34364732  1
  O  O151  1  0.76963947  0.49857310  0.86671295  1
  O  O152  1  0.24891757  0.48562919  0.09589179  1
  O  O153  1  0.24056033  0.50746618  0.65679449  1
  O  O154  1  0.31364166  0.95622989  0.19547548  1
  O  O155  1  0.25948695  0.98732921  0.63513326  1
  O  O156  1  0.74259252  0.49510870  0.11546135  1
  O  O157  1  0.75890189  0.49349870  0.65362025  1
  O  O158  1  0.68215785  1.01192270  0.18179715  1
  O  O159  1  0.74262702  1.01642499  0.63229419  1
  O  O160  1  -0.01539189  0.35856284  0.25354703  1
  O  O161  1  0.02216041  0.36647927  0.75472354  1
  O  O162  1  0.05235199  0.90524837  0.25778425  1
  O  O163  1  0.00441528  0.85443220  0.74090381  1
  O  O164  1  0.48939349  0.40436453  0.26210785  1
  O  O165  1  0.49439673  0.35442095  0.76808783  1
  O  O166  1  0.49055544  0.84558618  0.24354604  1
  O  O167  1  0.49974625  0.88727944  0.77302113  1
  O  O168  1  0.51050049  0.14945073  0.25111792  1
  O  O169  1  0.48982965  0.14564779  0.77454842  1
  O  O170  1  0.50799587  0.61444119  0.22146913  1
  O  O171  1  0.47570372  0.64110606  0.77551689  1
  O  O172  1  0.98708579  0.14874560  0.24787844  1
  O  O173  1  1.03493602  0.14461009  0.75376963  1
  O  O174  1  0.97909450  0.61038278  0.25165708  1
  O  O175  1  0.99348195  0.63070350  0.74895402  1
  O  O176  1  0.36815895  0.25074477  0.02045097  1
  O  O177  1  0.36211100  0.25966883  0.50027974  1
  O  O178  1  0.36780602  0.74469938  -0.00105179  1
  O  O179  1  0.43158190  0.72981555  0.50828061  1
  O  O180  1  0.86949207  0.26364731  -0.01609791  1
  O  O181  1  0.87411786  0.29081205  0.41621898  1
  O  O182  1  0.86210835  0.73723658  -0.00755441  1
  O  O183  1  0.84592348  0.73952380  0.48412121  1
  O  O184  1  0.13099005  0.25178976  0.49355104  1
  O  O185  1  0.13930557  0.20519375  1.02394656  1
  O  O186  1  0.12428368  0.74294869  0.48921845  1
  O  O187  1  0.14051000  0.76775751  0.98581182  1
  O  O188  1  0.66249483  0.25621074  0.48513663  1
  O  O189  1  0.62761898  0.24794563  0.99150072  1
  O  O190  1  0.63275721  0.73133223  0.47182730  1
  O  O191  1  0.63662013  0.73736705  0.99165149  1
  O  O192  1  0.47962263  0.26359076  0.13296383  1
  O  O193  1  0.48691587  0.24093925  0.63943355  1
  O  O194  1  0.49716637  0.73498683  0.12479663  1
  O  O195  1  0.54377647  0.64696693  0.58389274  1
  O  O196  1  1.01051031  0.25997540  0.12559876  1
  O  O197  1  0.99093443  0.25216343  0.64487393  1
  O  O198  1  1.01498128  0.76479713  0.14319279  1
  O  O199  1  0.99996903  0.73615318  0.63819857  1
  O  O200  1  0.01632943  0.25722792  0.37592021  1
  O  O201  1  0.05013254  0.23566733  0.88076663  1
  O  O202  1  0.00001936  0.75126106  0.36629169  1
  O  O203  1  0.00836197  0.75865895  0.87273195  1
  O  O204  1  0.48944382  0.27941945  0.35771483  1
  O  O205  1  0.50521191  0.26081463  0.88855841  1
  O  O206  1  0.51086287  0.72016785  0.35274409  1
  O  O207  1  0.51931326  0.76687703  0.88535751  1
  O  O208  1  0.23215310  0.13662862  0.49142664  1
  O  O209  1  0.30536280  0.09671411  0.93094745  1
  O  O210  1  0.23727782  0.62487130  0.51458738  1
  O  O211  1  0.23646249  0.64115859  0.99302955  1
  O  O212  1  0.81786546  0.14060885  0.52472136  1
  O  O213  1  0.73747134  0.14326433  1.01421219  1
  O  O214  1  0.74906807  0.61834828  0.46997038  1
  O  O215  1  0.73964850  0.62767693  0.99099413  1
  O  O216  1  0.25648112  0.42600603  0.03606814  1
  O  O217  1  0.25393778  0.36404726  0.49106934  1
  O  O218  1  0.27088238  0.86227897  -0.01004900  1
  O  O219  1  0.23640159  0.88469218  0.51902294  1
  O  O220  1  0.75917755  0.36963750  -0.00514622  1
  O  O221  1  0.78083042  0.37067088  0.54935509  1
  O  O222  1  0.76891654  0.86125331  -0.01806431  1
  O  O223  1  0.73963172  0.83967172  0.50101613  1
  O  O224  1  0.15641435  0.57923366  0.28657295  1
  O  O225  1  0.11802119  0.48751596  0.75487591  1
  O  O226  1  0.10310209  0.93055597  0.30626285  1
  O  O227  1  0.11548616  0.97929393  0.75553591  1
  O  O228  1  0.63478195  0.50209053  0.22016925  1
  O  O229  1  0.64120838  0.50279681  0.76899688  1
  O  O230  1  0.57807335  0.99717411  0.29439440  1
  O  O231  1  0.61719773  1.04003090  0.72665873  1
  O  O232  1  0.44259170  -0.00862906  0.30680226  1
  O  O233  1  0.37384813  0.04518432  0.73078207  1
  O  O234  1  0.35883348  0.51140662  0.24775894  1
  O  O235  1  0.36206264  0.48594821  0.75684426  1
  O  O236  1  0.89224637  -0.03251131  0.26923769  1
  O  O237  1  0.96654314  -0.01105576  0.85168385  1
  O  O238  1  0.85632010  0.50156499  0.23584925  1
  O  O239  1  0.87727914  0.51117811  0.76162719  1
  O  O240  1  0.13133473  0.36314146  0.37475134  1
  O  O241  1  0.14189051  0.33910094  0.95114354  1
  O  O242  1  0.11998131  0.87940828  0.36809630  1
  O  O243  1  0.13374882  0.86035216  0.85451087  1
  O  O244  1  0.59636139  0.40161562  0.37949820  1
  O  O245  1  0.61302711  0.36667115  0.86588914  1
  O  O246  1  0.62091346  0.84719737  0.37352157  1
  O  O247  1  0.62104332  0.86835111  0.88380798  1
  O  O248  1  0.35793304  0.14631465  0.13975594  1
  O  O249  1  0.36903649  0.14322650  0.60597525  1
  O  O250  1  0.38679404  0.62482508  0.10408036  1
  O  O251  1  0.38085245  0.62706938  0.64789574  1
  O  O252  1  0.86457351  0.09378428  0.15838401  1
  O  O253  1  0.87622834  0.08179865  0.70576727  1
  O  O254  1  0.87623373  0.62294007  0.13008150  1
  O  O255  1  0.88877570  0.62539535  0.64422298  1
  O  O256  1  0.25465593  0.26574867  0.14159334  1
  O  O257  1  0.25745787  0.24911133  0.60711412  1
  O  O258  1  0.26320326  0.74897868  0.11572790  1
  O  O259  1  0.24424475  0.75855194  0.60719929  1
  O  O260  1  0.74126561  0.27088383  0.10859814  1
  O  O261  1  0.75135820  0.24874104  0.64984743  1
  O  O262  1  0.74619718  0.75312859  0.10380120  1
  O  O263  1  0.72922795  0.71285826  0.60318472  1
  O  O264  1  0.23977531  0.24646014  0.38244603  1
  O  O265  1  0.23244580  0.23801245  0.86869270  1
  O  O266  1  0.27590217  0.75542398  0.42371111  1
  O  O267  1  0.25154005  0.75553088  0.87751135  1
  O  O268  1  0.79588019  0.29145579  0.38364204  1
  O  O269  1  0.73390136  0.25823685  0.87837783  1
  O  O270  1  0.73274210  0.72952479  0.35256265  1
  O  O271  1  0.73850503  0.75632732  0.87882707  1
  O  O272  1  0.03475266  0.08389911  0.04457966  1
  O  O273  1  0.00308196  0.14601478  0.49352450  1
  O  O274  1  0.00818476  0.61552591  -0.00152834  1
  O  O275  1  -0.00330434  0.62992362  0.51876277  1
  O  O276  1  0.51022217  0.11639858  0.00292836  1
  O  O277  1  0.51324546  0.12478923  0.44982731  1
  O  O278  1  0.51149274  0.61283389  -0.00584651  1
  O  O279  1  0.52342839  0.59172325  0.52841573  1
  O  O280  1  0.47859529  0.38356869  0.48292778  1
  O  O281  1  0.50169880  0.38870239  0.98795227  1
  O  O282  1  0.53324901  0.85980298  0.55076993  1
  O  O283  1  0.49333085  0.87932735  1.00804327  1
  O  O284  1  0.98323313  0.37965137  0.50590559  1
  O  O285  1  0.98580412  0.38624195  1.00273600  1
  O  O286  1  0.99318126  0.87570644  0.49897053  1
  O  O287  1  1.00281849  0.88781575  1.06268798  1
  O  O288  1  0.47588545  0.51228349  0.37489415  1
  O  O289  1  0.50174788  0.48221997  0.87309642  1
  O  O290  1  0.50839667  0.97889164  0.34304658  1
  O  O291  1  0.51373895  0.98688978  0.89880649  1
  O  O292  1  0.98656730  0.48042471  0.38319082  1
  O  O293  1  0.98839221  0.50352508  0.88563986  1
  O  O294  1  0.96825900  1.01245987  0.40218178  1
  O  O295  1  0.96339512  0.94561933  0.91011398  1
  O  O296  1  0.00114034  -0.05618343  0.11536382  1
  O  O297  1  -0.04882352  -0.00257434  0.60203436  1
  O  O298  1  -0.00447457  0.49648169  0.10905436  1
  O  O299  1  -0.00773818  0.50648685  0.61705921  1
  O  O300  1  0.50090094  -0.00288097  0.12259457  1
  O  O301  1  0.53147411  0.01196411  0.61170932  1
  O  O302  1  0.50593786  0.49900027  0.10136159  1
  O  O303  1  0.53117476  0.46521033  0.67898220  1
  O  O304  1  0.24470376  0.38816479  0.24895427  1
  O  O305  1  0.23015912  0.38692207  0.75901016  1
  O  O306  1  0.26002077  0.80995046  0.25977184  1
  O  O307  1  0.22665062  0.85900487  0.72152919  1
  O  O308  1  0.74881831  0.38643073  0.21916703  1
  O  O309  1  0.73370909  0.38642397  0.76251935  1
  O  O310  1  0.73234133  0.86761683  0.24269665  1
  O  O311  1  0.84230723  0.90938379  0.76881310  1
  O  O312  1  0.23455890  0.12371433  0.26565822  1
  O  O313  1  0.22403504  0.10855864  0.74992849  1
  O  O314  1  0.18510254  0.65509419  0.28255314  1
  O  O315  1  0.26404888  0.62235002  0.75458462  1
  O  O316  1  0.75353991  0.15888489  0.24028913  1
  O  O317  1  0.83624594  0.12968132  0.74273661  1
  O  O318  1  0.75424695  0.61202749  0.23817828  1
  O  O319  1  0.76354536  0.61594258  0.74899671  1
  O  O320  1  0.35062969  0.12982523  0.37873095  1
  O  O321  1  0.36180255  0.12265475  0.89003040  1
  O  O322  1  0.36686567  0.61963028  0.36975742  1
  O  O323  1  0.37905342  0.62581389  0.85421254  1
  O  O324  1  0.87031906  0.11789810  0.34799891  1
  O  O325  1  0.90036562  0.09769302  0.91410295  1
  O  O326  1  0.84984171  0.62188085  0.35129888  1
  O  O327  1  0.87989928  0.61511428  0.86755234  1
  O  O328  1  0.14077060  0.37207152  0.13050202  1
  O  O329  1  0.12277203  0.38501327  0.62217300  1
  O  O330  1  0.17669846  0.87911632  0.14219880  1
  O  O331  1  0.10937066  0.87788758  0.63061540  1
  O  O332  1  0.63845937  0.38879071  0.09683609  1
  O  O333  1  0.64538849  0.36616105  0.64958997  1
  O  O334  1  0.64310479  0.88286824  0.08920658  1
  O  O335  1  0.64532271  0.91412251  0.66282178  1
  O  O336  1  0.11042768  0.24776087  0.25563249  1
  O  O337  1  0.12483035  0.27243050  0.73905509  1
  O  O338  1  0.06337896  0.75761759  0.19801503  1
  O  O339  1  0.11126240  0.74689870  0.75915741  1
  O  O340  1  0.59231230  0.28801546  0.23526931  1
  O  O341  1  0.60374174  0.25628472  0.76585080  1
  O  O342  1  0.61093036  0.74105560  0.24409235  1
  O  O343  1  0.63108526  0.75347727  0.76323566  1
  O  O344  1  0.38638932  0.26172878  0.24681577  1
  O  O345  1  0.37285982  0.25455556  0.73205844  1
  O  O346  1  0.38989145  0.72406862  0.23333103  1
  O  O347  1  0.36311384  0.75863071  0.74589950  1
  O  O348  1  0.88466448  0.24956580  0.23289537  1
  O  O349  1  0.91660853  0.24512293  0.79902753  1
  O  O350  1  0.87703093  0.73441472  0.24062508  1
  O  O351  1  0.88810429  0.73607596  0.76390834  1
  O  O352  1  0.36481769  0.49074840  0.51588428  1
  O  O353  1  0.39276485  0.50794132  0.98468957  1
  O  O354  1  0.39599409  1.00505383  0.50638758  1
  O  O355  1  0.38494095  0.97995243  1.00898877  1
  O  O356  1  0.88629616  0.51910604  0.49834154  1
  O  O357  1  0.88364135  0.50045951  0.99058248  1
  O  O358  1  0.86204001  0.96214139  0.48828892  1
  O  O359  1  0.88474570  1.05967345  0.97628548  1
  O  O360  1  0.14804719  -0.02085953  -0.00417124  1
  O  O361  1  0.09141223  0.01449414  0.49979854  1
  O  O362  1  0.11175371  0.51256606  -0.00842091  1
  O  O363  1  0.09318891  0.50001095  0.48993632  1
  O  O364  1  0.62517857  0.02388290  0.00404567  1
  O  O365  1  0.63994650  -0.02013046  0.52611167  1
  O  O366  1  0.62296600  0.51158282  -0.00932338  1
  O  O367  1  0.66723837  0.47313784  0.50859559  1
  O  O368  1  0.35518704  0.36692793  0.12967918  1
  O  O369  1  0.37823182  0.35931384  0.60617778  1
  O  O370  1  0.37387510  0.84825506  0.11356304  1
  O  O371  1  0.36649632  0.87228367  0.61824089  1
  O  O372  1  0.85905124  0.38530821  0.10086607  1
  O  O373  1  0.86068840  0.35958965  0.69019971  1
  O  O374  1  0.80451996  0.94092422  0.10771661  1
  O  O375  1  0.86702386  0.84956644  0.59896295  1
  O  O376  1  0.12405155  0.14166330  0.38696508  1
  O  O377  1  0.14200971  0.11165344  0.91421930  1
  O  O378  1  0.05762636  0.71125005  0.35050586  1
  O  O379  1  0.11807586  0.64829008  0.88923709  1
  O  O380  1  0.58016294  0.13063117  0.41900974  1
  O  O381  1  0.61815699  0.14421664  0.88769331  1
  O  O382  1  0.63325299  0.62383689  0.35484812  1
  O  O383  1  0.62137806  0.64191793  0.87955860  1
