# generated using pymatgen
data_VZnO4
_symmetry_space_group_name_H-M   'P 1'
_cell_length_a   17.17959934
_cell_length_b   16.90889478
_cell_length_c   16.98887482
_cell_angle_alpha   89.98241093
_cell_angle_beta   90.71060751
_cell_angle_gamma   89.55783365
_symmetry_Int_Tables_number   1
_chemical_formula_structural   VZnO4
_chemical_formula_sum   'V64 Zn64 O256'
_cell_volume   4934.53801312
_cell_formula_units_Z   64
loop_
 _symmetry_equiv_pos_site_id
 _symmetry_equiv_pos_as_xyz
  1  'x, y, z'
loop_
 _atom_site_type_symbol
 _atom_site_label
 _atom_site_symmetry_multiplicity
 _atom_site_fract_x
 _atom_site_fract_y
 _atom_site_fract_z
 _atom_site_occupancy
  V  V0  1  0.25277125  0.87314026  0.11495148  1
  V  V1  1  0.48513977  0.86334325  0.88187799  1
  V  V2  1  0.62528747  0.88977614  0.25151699  1
  V  V3  1  0.13614817  0.35456255  0.75356545  1
  V  V4  1  0.25144897  0.51342786  0.76914271  1
  V  V5  1  0.12123532  0.61966979  0.00323482  1
  V  V6  1  0.57284720  0.47900512  0.64081102  1
  V  V7  1  0.62882562  0.36145235  0.78452930  1
  V  V8  1  0.74778278  0.50441291  0.72592196  1
  V  V9  1  0.13978270  0.10287535  0.51185124  1
  V  V10  1  0.51395920  0.24707263  0.23896907  1
  V  V11  1  0.12129604  0.75350950  0.86506293  1
  V  V12  1  0.01819151  0.89759314  0.38977971  1
  V  V13  1  0.37789104  0.25575269  0.65562628  1
  V  V14  1  0.35650840  0.37516597  0.46967163  1
  V  V15  1  0.61897055  0.01424610  0.10676103  1
  V  V16  1  0.64472646  0.50971030  0.15950388  1
  V  V17  1  0.23317447  0.26312709  0.01142017  1
  V  V18  1  -0.00281013  0.77902506  0.74232998  1
  V  V19  1  0.65054160  0.75836304  0.36761628  1
  V  V20  1  0.37452005  0.86130314  0.52360169  1
  V  V21  1  0.87254490  0.77109725  0.60737754  1
  V  V22  1  0.11680685  0.12758608  -0.02494136  1
  V  V23  1  -0.00687726  -0.01014175  -0.00501365  1
  V  V24  1  0.36882667  -0.01364000  0.37159196  1
  V  V25  1  0.75697216  0.62335530  0.87315683  1
  V  V26  1  0.53124421  0.37768628  0.36263617  1
  V  V27  1  0.36446244  0.62578926  0.25464766  1
  V  V28  1  0.37411615  0.09701215  0.76058852  1
  V  V29  1  0.87079375  0.24970548  0.11116301  1
  V  V30  1  0.73853616  0.01085377  0.74758281  1
  V  V31  1  0.22984960  -0.00932813  0.75274864  1
  V  V32  1  -0.00838561  0.49985340  0.00367170  1
  V  V33  1  0.49556666  0.51173421  -0.02295225  1
  V  V34  1  0.37797893  0.38094474  -0.01918380  1
  V  V35  1  0.50234512  0.62918866  0.13673565  1
  V  V36  1  0.63262685  0.75837939  0.87961856  1
  V  V37  1  0.22690405  0.86740481  0.63099738  1
  V  V38  1  0.61179509  0.14282284  0.49307415  1
  V  V39  1  0.01056113  0.12849427  0.12817481  1
  V  V40  1  0.63272609  0.87142679  0.74252259  1
  V  V41  1  0.63721918  0.61783059  -0.00210579  1
  V  V42  1  0.24987518  0.14138032  0.38069021  1
  V  V43  1  0.89306149  0.12405874  0.74654219  1
  V  V44  1  0.62342759  0.64357931  0.51634774  1
  V  V45  1  0.86553299  0.12961005  0.26335853  1
  V  V46  1  0.00214513  0.24871761  0.27125410  1
  V  V47  1  0.88415790  0.49042646  0.85602720  1
  V  V48  1  0.75229701  0.37372969  0.14048910  1
  V  V49  1  0.87769018  0.62656385  0.73518797  1
  V  V50  1  0.50183462  0.11406593  0.63509470  1
  V  V51  1  0.00524962  0.35418932  0.86832077  1
  V  V52  1  0.37043042  0.13508319  0.24395168  1
  V  V53  1  0.85861619  0.26417502  0.62401621  1
  V  V54  1  0.75570126  0.87897613  0.10604209  1
  V  V55  1  0.47151104  0.02646485  0.00171425  1
  V  V56  1  0.50124206  -0.01046863  0.49847759  1
  V  V57  1  0.87031927  -0.01354412  0.87244415  1
  V  V58  1  -0.00226258  0.58796651  0.61531960  1
  V  V59  1  0.14850309  0.41505201  0.23538306  1
  V  V60  1  0.13509490  0.71579834  0.37106230  1
  V  V61  1  0.50068193  0.76290578  0.24964810  1
  V  V62  1  0.14498717  0.48857522  0.61761077  1
  V  V63  1  0.74700090  0.01381027  0.25271353  1
  Zn  Zn64  1  0.18998682  0.20294963  0.19884461  1
  Zn  Zn65  1  0.21806375  0.18346809  0.68011733  1
  Zn  Zn66  1  0.16201650  0.62719202  0.20642846  1
  Zn  Zn67  1  0.17575043  0.68418109  0.68552041  1
  Zn  Zn68  1  0.68435720  0.19123106  0.17560511  1
  Zn  Zn69  1  0.67770526  0.19137603  0.69010533  1
  Zn  Zn70  1  0.68233236  0.70766120  0.17188348  1
  Zn  Zn71  1  0.69450891  0.70179211  0.68456155  1
  Zn  Zn72  1  0.31955273  0.32051785  0.29370026  1
  Zn  Zn73  1  0.30357456  0.29233267  0.83033316  1
  Zn  Zn74  1  0.30761683  0.79273123  0.31206686  1
  Zn  Zn75  1  0.32698293  0.75108537  0.84300001  1
  Zn  Zn76  1  0.85217062  0.34142107  0.30090986  1
  Zn  Zn77  1  0.81487168  0.31560420  0.78806656  1
  Zn  Zn78  1  0.84445258  0.82468574  0.41604516  1
  Zn  Zn79  1  0.81300500  0.80922532  0.80828656  1
  Zn  Zn80  1  0.17876995  0.33376865  0.40564194  1
  Zn  Zn81  1  0.17917265  0.43926506  0.93491333  1
  Zn  Zn82  1  0.20110625  0.93270838  0.44062266  1
  Zn  Zn83  1  0.17570366  0.94105126  0.92491373  1
  Zn  Zn84  1  0.61516317  0.43211176  0.48631949  1
  Zn  Zn85  1  0.71930081  0.33383199  0.94460592  1
  Zn  Zn86  1  0.70313944  0.99532701  0.45788494  1
  Zn  Zn87  1  0.69577570  1.05676581  0.93994245  1
  Zn  Zn88  1  0.28933970  0.06722527  0.06652109  1
  Zn  Zn89  1  0.31652307  0.05292308  0.56996392  1
  Zn  Zn90  1  0.31495281  0.58518184  -0.05857790  1
  Zn  Zn91  1  0.36362631  0.46778637  0.63170657  1
  Zn  Zn92  1  0.81926062  0.05675989  0.06979467  1
  Zn  Zn93  1  0.81021516  0.12975580  0.54121696  1
  Zn  Zn94  1  0.78658865  0.50325577  0.02454064  1
  Zn  Zn95  1  0.80817183  0.57197427  0.54651579  1
  Zn  Zn96  1  0.46334113  0.46758647  0.23251216  1
  Zn  Zn97  1  0.43373528  0.41370228  0.77984103  1
  Zn  Zn98  1  0.44253317  0.95353296  0.18739111  1
  Zn  Zn99  1  0.44740552  0.92428063  0.69258608  1
  Zn  Zn100  1  0.96798621  0.41041769  0.17707019  1
  Zn  Zn101  1  0.98805200  0.37316432  0.64633163  1
  Zn  Zn102  1  0.88900262  0.89398498  0.24146096  1
  Zn  Zn103  1  0.86197895  0.98128919  0.63269074  1
  Zn  Zn104  1  0.02971731  0.10294018  0.37132967  1
  Zn  Zn105  1  0.05662747  0.05407901  0.81469170  1
  Zn  Zn106  1  0.11584778  0.50883679  0.40669307  1
  Zn  Zn107  1  0.06965094  0.55764448  0.79771624  1
  Zn  Zn108  1  0.54964048  0.06446147  0.31348865  1
  Zn  Zn109  1  0.54663716  0.03594798  0.82055630  1
  Zn  Zn110  1  0.56602522  0.58164983  0.34085694  1
  Zn  Zn111  1  0.57198464  0.57034988  0.80639425  1
  Zn  Zn112  1  0.42927102  0.20843594  0.42144357  1
  Zn  Zn113  1  0.39308886  0.18551168  0.95051068  1
  Zn  Zn114  1  0.45362929  0.69660381  0.42630703  1
  Zn  Zn115  1  0.46227000  0.71600511  0.96400350  1
  Zn  Zn116  1  0.97524344  0.22721891  0.49412726  1
  Zn  Zn117  1  0.82280056  0.18354733  0.92588009  1
  Zn  Zn118  1  0.98492071  0.70614594  0.46577765  1
  Zn  Zn119  1  0.97494445  0.66178440  0.89827040  1
  Zn  Zn120  1  0.05059959  0.31685323  0.06206048  1
  Zn  Zn121  1  0.05065250  0.19231542  0.66994472  1
  Zn  Zn122  1  0.05942984  0.80074212  0.05272592  1
  Zn  Zn123  1  0.05485461  0.81976458  0.55938469  1
  Zn  Zn124  1  0.54430876  0.35352387  0.09630837  1
  Zn  Zn125  1  0.51715154  0.30325395  0.55101847  1
  Zn  Zn126  1  0.57587576  0.81753192  0.06108638  1
  Zn  Zn127  1  0.59262546  0.84649196  0.53422012  1
  O  O128  1  0.10624081  0.13261395  0.15070717  1
  O  O129  1  0.13667856  0.14059982  0.61059272  1
  O  O130  1  0.11291241  0.63260540  0.10252545  1
  O  O131  1  0.10716738  0.59585925  0.63579361  1
  O  O132  1  0.62056214  0.11286038  0.12255520  1
  O  O133  1  0.60288005  0.12844307  0.62535587  1
  O  O134  1  0.63726749  0.61646206  0.11910987  1
  O  O135  1  0.61129836  0.67401765  0.61073090  1
  O  O136  1  0.37425673  0.38333795  0.36856575  1
  O  O137  1  0.38716654  0.36875948  0.87760566  1
  O  O138  1  0.36172666  0.88625980  0.36262612  1
  O  O139  1  0.39143941  0.84829288  0.85982261  1
  O  O140  1  0.86711078  0.38043465  0.41134938  1
  O  O141  1  0.89098583  0.38602051  0.84508205  1
  O  O142  1  0.92131371  0.86032423  0.34020787  1
  O  O143  1  0.87415429  0.88736762  0.86573579  1
  O  O144  1  0.26871391  0.01046615  0.38045474  1
  O  O145  1  0.24622057  -0.01269169  0.85440811  1
  O  O146  1  0.28559051  0.60301671  0.47633423  1
  O  O147  1  0.25239792  0.50690785  0.87283938  1
  O  O148  1  0.72605131  0.01659245  0.34870589  1
  O  O149  1  0.76576792  0.00161193  0.86650145  1
  O  O150  1  0.83507099  0.45344379  0.42428916  1
  O  O151  1  0.76763082  0.51355769  0.85569049  1
  O  O152  1  0.29992634  0.46316262  0.11718628  1
  O  O153  1  0.24332531  0.49297679  0.63615933  1
  O  O154  1  0.23093255  0.97679866  0.12271954  1
  O  O155  1  0.25997107  0.98188195  0.63912803  1
  O  O156  1  0.74752979  0.49874028  0.13552665  1
  O  O157  1  0.75950711  0.50163981  0.62904528  1
  O  O158  1  0.73164915  1.00312661  0.13032662  1
  O  O159  1  0.74657381  0.99233715  0.64937811  1
  O  O160  1  -0.03298351  0.35054651  0.27425084  1
  O  O161  1  0.02136432  0.36585647  0.75990554  1
  O  O162  1  0.05714591  0.89170383  0.22981287  1
  O  O163  1  -0.00243092  0.87446311  0.73621596  1
  O  O164  1  0.50275037  0.36062136  0.24889776  1
  O  O165  1  0.54370346  0.41431598  0.75378446  1
  O  O166  1  0.51325665  0.87028035  0.22835797  1
  O  O167  1  0.52294267  0.88635013  0.77583171  1
  O  O168  1  0.48265375  0.13887645  0.25512336  1
  O  O169  1  0.49275447  0.10026613  0.73921141  1
  O  O170  1  0.50979732  0.64256861  0.24652104  1
  O  O171  1  0.50256708  0.64227624  0.73990680  1
  O  O172  1  0.98125466  0.13344750  0.24297692  1
  O  O173  1  0.99501797  0.11902774  0.73984677  1
  O  O174  1  0.80403533  0.57675165  0.32869356  1
  O  O175  1  0.98535950  0.61472148  0.73020528  1
  O  O176  1  0.39714389  0.28916584  0.01465819  1
  O  O177  1  0.40083789  0.28182659  0.50789888  1
  O  O178  1  0.36849533  0.67960718  -0.07853960  1
  O  O179  1  0.38756743  0.76897962  0.48498593  1
  O  O180  1  0.87753866  0.24953428  0.01426761  1
  O  O181  1  0.86567163  0.22686198  0.52143838  1
  O  O182  1  0.93417100  0.71382367  0.09897416  1
  O  O183  1  0.88575395  0.75481552  0.50157153  1
  O  O184  1  0.10030799  0.31474943  0.49116534  1
  O  O185  1  0.13232941  0.26306716  0.99945052  1
  O  O186  1  0.09867202  0.74032326  0.48503303  1
  O  O187  1  0.10308740  0.73018109  0.97789080  1
  O  O188  1  0.60709838  0.24126468  0.50380072  1
  O  O189  1  0.62418981  0.21463555  0.96384176  1
  O  O190  1  0.62377205  0.75504767  0.47557775  1
  O  O191  1  0.62605987  0.73017200  0.98892818  1
  O  O192  1  0.50637575  0.25750736  0.13692561  1
  O  O193  1  0.48219325  0.22442257  0.62931793  1
  O  O194  1  0.52607293  0.73624693  0.13523184  1
  O  O195  1  0.41316977  0.65101010  0.59066299  1
  O  O196  1  0.98456568  0.24771443  0.13619710  1
  O  O197  1  0.98000881  0.25981923  0.61397112  1
  O  O198  1  0.99016781  0.76314903  0.13448466  1
  O  O199  1  0.98651663  0.74916829  0.62919157  1
  O  O200  1  -0.00657828  0.22292703  0.36938929  1
  O  O201  1  -0.00748172  0.26045887  0.87804792  1
  O  O202  1  0.03152228  0.76452526  0.38074299  1
  O  O203  1  -0.00871204  0.76107416  0.84745795  1
  O  O204  1  0.50099901  0.26860267  0.35758017  1
  O  O205  1  0.58616436  0.19052333  0.90463782  1
  O  O206  1  0.52203528  0.76013321  0.35089831  1
  O  O207  1  0.52594319  0.75382651  0.86756752  1
  O  O208  1  0.24872924  0.12354724  0.49454168  1
  O  O209  1  0.21357302  0.13384423  1.01550573  1
  O  O210  1  0.25131202  0.65481111  0.51210441  1
  O  O211  1  0.21801746  0.60984967  0.99242332  1
  O  O212  1  0.70861623  0.10040050  0.51055651  1
  O  O213  1  0.76301861  0.12379172  0.99791767  1
  O  O214  1  0.71893702  0.61944878  0.49640973  1
  O  O215  1  0.74602157  0.60504347  0.98498027  1
  O  O216  1  0.26324437  0.37014681  -0.01216191  1
  O  O217  1  0.25815701  0.36871831  0.47842057  1
  O  O218  1  0.25640882  0.89051144  0.01089859  1
  O  O219  1  0.26843300  0.87766207  0.52018640  1
  O  O220  1  0.75424746  0.39269679  0.02958349  1
  O  O221  1  0.72702751  0.37653949  0.51505055  1
  O  O222  1  0.75674518  0.90046244  0.01186865  1
  O  O223  1  0.79997382  0.92674270  0.47217373  1
  O  O224  1  0.16313872  0.51228523  0.22105796  1
  O  O225  1  0.14470888  0.48662725  0.75061334  1
  O  O226  1  0.08806707  0.95611668  0.21734102  1
  O  O227  1  0.13269797  1.00965836  0.74559341  1
  O  O228  1  0.64792491  0.52322630  0.25482412  1
  O  O229  1  0.63843734  0.52719862  0.72185222  1
  O  O230  1  0.61270279  1.00010097  0.23651561  1
  O  O231  1  0.63535481  0.98548526  0.76538558  1
  O  O232  1  0.38886756  0.01520860  0.26911853  1
  O  O233  1  0.37892282  -0.00461686  0.75407915  1
  O  O234  1  0.36871101  0.52467263  0.24716374  1
  O  O235  1  0.35120662  0.48985235  0.74757723  1
  O  O236  1  0.85130930  0.01246128  0.24773636  1
  O  O237  1  0.86309291  0.00729121  0.75718430  1
  O  O238  1  0.96197590  0.52752554  0.27956798  1
  O  O239  1  0.86026990  0.50929631  0.74594387  1
  O  O240  1  0.12407450  0.41394638  0.34168712  1
  O  O241  1  0.11558671  0.36852260  0.86517681  1
  O  O242  1  0.11926639  0.88725760  0.37998684  1
  O  O243  1  0.11817885  0.85331174  0.88536004  1
  O  O244  1  0.62952716  0.38390326  0.37601159  1
  O  O245  1  0.62770806  0.36991764  0.88370118  1
  O  O246  1  0.62214055  0.88082353  0.35125639  1
  O  O247  1  0.63387043  0.85701169  0.88644120  1
  O  O248  1  0.35525891  0.11120143  0.14826722  1
  O  O249  1  0.38302577  0.12189338  0.64051895  1
  O  O250  1  0.40474822  0.63006695  0.13753888  1
  O  O251  1  0.35768800  0.62130247  0.62438433  1
  O  O252  1  0.88057605  0.13917626  0.13018903  1
  O  O253  1  0.86786037  0.10466561  0.64440484  1
  O  O254  1  0.91584946  0.65532924  0.13989433  1
  O  O255  1  0.88486214  0.61890133  0.62169621  1
  O  O256  1  0.25016207  0.25190516  0.10969783  1
  O  O257  1  0.28523586  0.25097242  0.61868882  1
  O  O258  1  0.28493334  0.77541591  0.09638145  1
  O  O259  1  0.23652459  0.76408239  0.63484744  1
  O  O260  1  0.75618733  0.26455000  0.12560343  1
  O  O261  1  0.76005755  0.24292342  0.63116515  1
  O  O262  1  0.74077238  0.77690253  0.11048717  1
  O  O263  1  0.77658025  0.74669775  0.62003479  1
  O  O264  1  0.24669429  0.24522399  0.37393453  1
  O  O265  1  0.28684580  0.22795589  0.92444729  1
  O  O266  1  0.22800056  0.75546812  0.37703828  1
  O  O267  1  0.21822840  0.73794453  0.85411125  1
  O  O268  1  0.74796262  0.32119742  0.47220605  1
  O  O269  1  0.76581933  0.26522829  0.87312827  1
  O  O270  1  0.74560010  0.78300921  0.37756420  1
  O  O271  1  0.74984943  0.73276751  0.86986667  1
  O  O272  1  0.02324924  0.14963044  0.01860835  1
  O  O273  1  0.04181858  0.13282650  0.48796229  1
  O  O274  1  -0.00659853  0.60538085  -0.00516740  1
  O  O275  1  -0.00650381  0.60523236  0.51616428  1
  O  O276  1  0.48182786  0.12558142  -0.00631150  1
  O  O277  1  0.50734382  0.10673257  0.51283688  1
  O  O278  1  0.50844255  0.61962527  0.01762554  1
  O  O279  1  0.53902092  0.62311794  0.45396919  1
  O  O280  1  0.50827164  0.38612733  0.46517996  1
  O  O281  1  0.49030307  0.40794176  1.01031887  1
  O  O282  1  0.48454792  0.88271701  0.50844767  1
  O  O283  1  0.48802504  0.83391653  0.98679120  1
  O  O284  1  1.02934164  0.34028230  0.47985841  1
  O  O285  1  1.00363994  0.38714950  0.97756569  1
  O  O286  1  0.99692042  0.89072600  0.48714771  1
  O  O287  1  1.00637919  0.89403359  1.01093391  1
  O  O288  1  0.51249053  0.48248270  0.33851647  1
  O  O289  1  0.50027976  0.51651984  0.87764278  1
  O  O290  1  0.48317902  1.00461416  0.39331361  1
  O  O291  1  0.49594129  0.97367595  0.90640702  1
  O  O292  1  0.98060154  0.52877978  0.35095218  1
  O  O293  1  0.98663801  0.49987988  0.85976697  1
  O  O294  1  1.00455669  0.99496806  0.36158193  1
  O  O295  1  0.98542502  1.00182142  0.88474641  1
  O  O296  1  -0.00771878  0.02830362  0.09970568  1
  O  O297  1  -0.12182862  0.02764547  0.51853711  1
  O  O298  1  -0.02701154  0.49314277  0.10049466  1
  O  O299  1  -0.00191861  0.48784409  0.62157528  1
  O  O300  1  0.50473937  -0.00408876  0.10169898  1
  O  O301  1  0.48933935  0.00421632  0.61217751  1
  O  O302  1  0.52770088  0.51843559  0.14547567  1
  O  O303  1  0.48002252  0.50691600  0.64234403  1
  O  O304  1  0.23307407  0.36016418  0.23288533  1
  O  O305  1  0.23729108  0.36706747  0.77200748  1
  O  O306  1  0.24790776  0.85638187  0.21698924  1
  O  O307  1  0.23816800  0.88227411  0.73732660  1
  O  O308  1  0.76501386  0.38226500  0.24100698  1
  O  O309  1  0.72765078  0.39770965  0.75089109  1
  O  O310  1  0.73243469  0.90117610  0.24003116  1
  O  O311  1  0.73615891  0.87970945  0.75636357  1
  O  O312  1  0.25959009  0.13471027  0.26719256  1
  O  O313  1  0.26747768  0.10242569  0.74554764  1
  O  O314  1  0.27171714  0.65235482  0.23104247  1
  O  O315  1  0.24392476  0.61106046  0.74884330  1
  O  O316  1  0.75688082  0.12339792  0.23624291  1
  O  O317  1  0.73714271  0.11248629  0.75233281  1
  O  O318  1  0.79319782  0.65699070  0.23029503  1
  O  O319  1  0.75962648  0.62120767  0.74535260  1
  O  O320  1  0.36316041  0.12831556  0.37403987  1
  O  O321  1  0.39315494  0.11700927  0.85678381  1
  O  O322  1  0.38048319  0.64710013  0.35310467  1
  O  O323  1  0.43226358  0.65202198  0.77203988  1
  O  O324  1  0.86781779  0.12460898  0.35924291  1
  O  O325  1  0.87821071  0.11737022  0.85016644  1
  O  O326  1  0.84739116  0.62175956  0.36446654  1
  O  O327  1  0.87507446  0.61968606  0.85165623  1
  O  O328  1  0.08410267  0.38314860  0.15779757  1
  O  O329  1  0.11944171  0.38650067  0.64716042  1
  O  O330  1  0.15513569  0.84683072  0.10552797  1
  O  O331  1  0.13078684  0.88068871  0.61524062  1
  O  O332  1  0.64005640  0.39773552  0.13959563  1
  O  O333  1  0.58632154  0.38369114  0.60497470  1
  O  O334  1  0.63259727  0.89225420  0.12533040  1
  O  O335  1  0.61658977  0.86434066  0.64463029  1
  O  O336  1  0.10057042  0.25223474  0.25814979  1
  O  O337  1  0.13555286  0.25214816  0.73405422  1
  O  O338  1  0.11813010  0.71043476  0.27038438  1
  O  O339  1  0.10041425  0.74541437  0.75075894  1
  O  O340  1  0.61198447  0.23512228  0.25036967  1
  O  O341  1  0.62269185  0.26572398  0.75711364  1
  O  O342  1  0.63065264  0.77389216  0.25011579  1
  O  O343  1  0.63764514  0.76243084  0.76541024  1
  O  O344  1  0.37946995  0.23946591  0.24409240  1
  O  O345  1  0.36584161  0.22676423  0.75531013  1
  O  O346  1  0.39978191  0.75756714  0.24695366  1
  O  O347  1  0.39519158  0.71773983  0.74903417  1
  O  O348  1  0.87119745  0.23721599  0.24850352  1
  O  O349  1  0.87528517  0.23125140  0.73336763  1
  O  O350  1  0.83937902  0.70467388  0.26059749  1
  O  O351  1  0.88275032  0.74524959  0.73362609  1
  O  O352  1  0.37739116  0.45991705  0.52136841  1
  O  O353  1  0.38862240  0.50350796  0.98428410  1
  O  O354  1  0.38144301  0.98200489  0.49361411  1
  O  O355  1  0.37364133  1.01790252  1.00662302  1
  O  O356  1  0.87109256  0.49134512  0.48413583  1
  O  O357  1  0.88356389  0.49669299  0.96497348  1
  O  O358  1  0.86018698  0.98281999  0.45475173  1
  O  O359  1  0.88578431  1.00432495  0.98435710  1
  O  O360  1  0.10516622  0.01899292  -0.01719484  1
  O  O361  1  0.13944122  0.00468584  0.51225383  1
  O  O362  1  0.10141142  0.50558866  -0.00974998  1
  O  O363  1  0.13258715  0.48516059  0.51866106  1
  O  O364  1  0.61731987  0.00616944  0.00582381  1
  O  O365  1  0.60333805  -0.03490323  0.49861030  1
  O  O366  1  0.60676135  0.51574628  -0.00038816  1
  O  O367  1  0.61128707  0.52657305  0.55324552  1
  O  O368  1  0.35617461  0.41651584  0.10967511  1
  O  O369  1  0.39790538  0.35580968  0.67290155  1
  O  O370  1  0.35253453  0.89971904  0.12908126  1
  O  O371  1  0.38423868  0.85570648  0.62404834  1
  O  O372  1  0.86849474  0.35864856  0.13349722  1
  O  O373  1  0.86641443  0.36327301  0.63309514  1
  O  O374  1  0.85492396  0.88815753  0.13819971  1
  O  O375  1  0.87696443  0.86967058  0.61804296  1
  O  O376  1  0.14951355  0.11889194  0.38739273  1
  O  O377  1  0.11419184  0.13777986  0.87717590  1
  O  O378  1  0.13896694  0.61512107  0.39096306  1
  O  O379  1  0.09305983  0.63551070  0.87582210  1
  O  O380  1  0.60489980  0.12199593  0.39531898  1
  O  O381  1  0.61809732  0.11774108  0.86980610  1
  O  O382  1  0.65231596  0.65934488  0.34990763  1
  O  O383  1  0.64048243  0.62803540  0.87809049  1
