# generated using pymatgen
data_VZnO4
_symmetry_space_group_name_H-M   'P 1'
_cell_length_a   16.88148747
_cell_length_b   16.94518104
_cell_length_c   16.97357161
_cell_angle_alpha   89.54008451
_cell_angle_beta   89.83733265
_cell_angle_gamma   90.33338300
_symmetry_Int_Tables_number   1
_chemical_formula_structural   VZnO4
_chemical_formula_sum   'V64 Zn64 O256'
_cell_volume   4855.19870610
_cell_formula_units_Z   64
loop_
 _symmetry_equiv_pos_site_id
 _symmetry_equiv_pos_as_xyz
  1  'x, y, z'
loop_
 _atom_site_type_symbol
 _atom_site_label
 _atom_site_symmetry_multiplicity
 _atom_site_fract_x
 _atom_site_fract_y
 _atom_site_fract_z
 _atom_site_occupancy
  V  V0  1  0.49786627  0.12890416  0.63422918  1
  V  V1  1  0.24988491  0.85940278  0.10767869  1
  V  V2  1  0.86610165  0.11209268  0.74105863  1
  V  V3  1  0.01558018  0.25210298  0.74874937  1
  V  V4  1  0.10577466  0.63748221  -0.00626241  1
  V  V5  1  0.24669017  0.64767423  0.87958669  1
  V  V6  1  0.76095174  0.75999926  0.49840632  1
  V  V7  1  0.35174356  0.27569941  0.12052732  1
  V  V8  1  0.00574003  0.87225373  0.84797721  1
  V  V9  1  0.25061971  0.50395765  0.23994196  1
  V  V10  1  0.50648320  0.75519245  0.74608583  1
  V  V11  1  0.25078899  0.76046763  0.50724497  1
  V  V12  1  0.63138348  0.49350237  0.62351878  1
  V  V13  1  0.87072424  0.48552498  0.86255080  1
  V  V14  1  0.74903707  0.25478063  0.50699111  1
  V  V15  1  0.62670277  0.11722291  0.50392297  1
  V  V16  1  0.00143572  0.49742932  0.50247832  1
  V  V17  1  0.75016982  0.61952056  0.89827553  1
  V  V18  1  0.13092562  0.48681054  0.63444788  1
  V  V19  1  0.24084266  -0.00504687  0.23954610  1
  V  V20  1  0.48339878  -0.00927045  0.50395337  1
  V  V21  1  0.02898394  -0.00727059  0.02546728  1
  V  V22  1  0.00264281  0.24725847  0.23099694  1
  V  V23  1  0.63259804  -0.01065598  0.64008509  1
  V  V24  1  0.12970523  0.24437501  0.38484817  1
  V  V25  1  0.74192958  0.62795885  0.37955152  1
  V  V26  1  0.12640617  0.62178508  0.49340822  1
  V  V27  1  0.22003542  0.12473807  0.88080574  1
  V  V28  1  0.76756742  0.12463396  0.37154325  1
  V  V29  1  0.37894022  0.47984209  0.37318090  1
  V  V30  1  0.37145787  0.61876186  0.74614867  1
  V  V31  1  0.02047252  0.00648913  0.52022723  1
  V  V32  1  0.87229921  0.49473020  0.37424519  1
  V  V33  1  0.51259257  0.87233271  0.87342122  1
  V  V34  1  0.60462984  0.37297835  0.25807204  1
  V  V35  1  -0.00582143  0.64288816  0.63152799  1
  V  V36  1  0.86947271  0.37751962  0.50769170  1
  V  V37  1  0.60713680  0.25263988  0.38016225  1
  V  V38  1  0.60643093  0.63698684  0.49876460  1
  V  V39  1  0.52048323  -0.00748560  0.00772708  1
  V  V40  1  0.50045639  0.50043353  -0.02457056  1
  V  V41  1  0.36804008  -0.00983496  0.88429787  1
  V  V42  1  -0.03443985  0.91730130  0.36650426  1
  V  V43  1  0.10260386  0.50833722  0.11761489  1
  V  V44  1  0.74979992  0.36262043  0.11017652  1
  V  V45  1  0.87906060  0.62677935  0.24128288  1
  V  V46  1  0.76416399  0.87377406  0.64319038  1
  V  V47  1  0.12163417  0.75950781  0.36506501  1
  V  V48  1  0.88321379  0.25232561  0.63275631  1
  V  V49  1  0.50993138  0.88800125  0.36058697  1
  V  V50  1  0.49595342  0.73151330  0.23558899  1
  V  V51  1  0.38565120  0.12811399  0.76822192  1
  V  V52  1  0.75728436  0.12253130  0.89341388  1
  V  V53  1  0.37623595  0.13098697  0.23740346  1
  V  V54  1  0.01660946  0.38046743  0.87892959  1
  V  V55  1  0.26866644  0.63259576  0.36956544  1
  V  V56  1  0.48992776  0.47477670  0.50384553  1
  V  V57  1  0.37575878  0.76846372  0.62289691  1
  V  V58  1  0.01096623  0.37594213  0.36826154  1
  V  V59  1  0.25135427  0.11914852  0.37734756  1
  V  V60  1  0.24380078  0.00070372  0.72902024  1
  V  V61  1  0.35702930  0.48465004  0.87610378  1
  V  V62  1  0.61750340  0.50638242  0.11307637  1
  V  V63  1  0.74539745  0.48685225  0.25448900  1
  Zn  Zn64  1  0.19196444  0.20947577  0.21025801  1
  Zn  Zn65  1  0.23287011  0.23421019  0.74349626  1
  Zn  Zn66  1  0.18187953  0.68678217  0.18169777  1
  Zn  Zn67  1  0.20814755  0.64286379  0.66534507  1
  Zn  Zn68  1  0.68755094  0.19285041  0.20022469  1
  Zn  Zn69  1  0.68975953  0.18761036  0.69041812  1
  Zn  Zn70  1  0.66071480  0.67587085  0.21164056  1
  Zn  Zn71  1  0.67974930  0.68956171  0.66793710  1
  Zn  Zn72  1  0.30714857  0.31394120  0.30340025  1
  Zn  Zn73  1  0.29111453  0.29662433  0.94180481  1
  Zn  Zn74  1  0.32674280  0.81954475  0.31025778  1
  Zn  Zn75  1  0.31004749  0.82012856  0.79949620  1
  Zn  Zn76  1  0.81578718  0.30194427  0.31458847  1
  Zn  Zn77  1  0.86051782  0.27172804  0.85495892  1
  Zn  Zn78  1  0.81308710  0.80879133  0.31139004  1
  Zn  Zn79  1  0.82749010  0.79886557  0.82009113  1
  Zn  Zn80  1  0.19484212  0.44020264  0.43862092  1
  Zn  Zn81  1  0.17657512  0.44725529  0.93817350  1
  Zn  Zn82  1  0.19217536  0.94308695  0.43565970  1
  Zn  Zn83  1  0.18328826  0.92831085  0.92190072  1
  Zn  Zn84  1  0.67885642  0.43797487  0.44205634  1
  Zn  Zn85  1  0.68997463  0.43723376  0.92993977  1
  Zn  Zn86  1  0.69205048  0.94193066  0.42950289  1
  Zn  Zn87  1  0.68564755  0.96989814  0.91107407  1
  Zn  Zn88  1  0.29843859  0.05951786  0.06067101  1
  Zn  Zn89  1  0.29014118  0.13498324  0.58483192  1
  Zn  Zn90  1  0.31617292  0.57106918  0.04890326  1
  Zn  Zn91  1  0.31602701  0.55651199  0.55570905  1
  Zn  Zn92  1  0.89511410  0.01897352  -0.09398474  1
  Zn  Zn93  1  0.81590084  0.06102819  0.56055009  1
  Zn  Zn94  1  0.81753603  0.54603487  0.06200852  1
  Zn  Zn95  1  0.81138782  0.56512095  0.56474686  1
  Zn  Zn96  1  0.42977633  0.45164989  0.18823752  1
  Zn  Zn97  1  0.47767002  0.45087026  0.70899049  1
  Zn  Zn98  1  0.42044081  0.94807063  0.18604043  1
  Zn  Zn99  1  0.43427686  0.94427869  0.69113156  1
  Zn  Zn100  1  0.95645534  0.39470520  0.15335269  1
  Zn  Zn101  1  0.94342278  0.43665130  0.69057456  1
  Zn  Zn102  1  1.07116696  0.91871918  0.20072318  1
  Zn  Zn103  1  0.94659674  0.92813274  0.67504007  1
  Zn  Zn104  1  0.05997820  0.07658364  0.29952775  1
  Zn  Zn105  1  0.05326751  0.05946449  0.78465660  1
  Zn  Zn106  1  0.06551803  0.56642596  0.30707929  1
  Zn  Zn107  1  0.05858513  0.56653842  0.81148542  1
  Zn  Zn108  1  0.54913528  0.07333947  0.32431095  1
  Zn  Zn109  1  0.56314314  0.06319116  0.82240470  1
  Zn  Zn110  1  0.55405333  0.56039957  0.31682241  1
  Zn  Zn111  1  0.56725851  0.57443809  0.80763086  1
  Zn  Zn112  1  0.42300780  0.18291573  0.44487577  1
  Zn  Zn113  1  0.44989602  0.16770105  1.04511766  1
  Zn  Zn114  1  0.43660857  0.72643144  0.42615730  1
  Zn  Zn115  1  0.45076789  0.67496002  0.92381937  1
  Zn  Zn116  1  0.94739138  0.18985675  0.44950075  1
  Zn  Zn117  1  1.01635459  0.16448020  0.92499129  1
  Zn  Zn118  1  0.93520724  0.67962386  0.42867960  1
  Zn  Zn119  1  0.91406836  0.69769512  0.93718054  1
  Zn  Zn120  1  0.10994595  0.32685127  0.05473430  1
  Zn  Zn121  1  0.20854448  0.30517066  0.56637483  1
  Zn  Zn122  1  0.09022007  0.83459920  0.03205034  1
  Zn  Zn123  1  0.02689058  0.80041390  0.51247946  1
  Zn  Zn124  1  0.52992814  0.33639462  0.08549359  1
  Zn  Zn125  1  0.56229723  0.30980275  0.56923180  1
  Zn  Zn126  1  0.44449535  0.82217556  0.06994129  1
  Zn  Zn127  1  0.56843449  0.81565940  0.56226979  1
  O  O128  1  0.10407511  0.15066730  0.07779199  1
  O  O129  1  0.23001971  0.21856176  0.63233879  1
  O  O130  1  0.12258044  0.62288526  0.10726913  1
  O  O131  1  0.10942869  0.62162099  0.60634857  1
  O  O132  1  0.62052261  0.09262079  0.16563486  1
  O  O133  1  0.62232812  0.11268140  0.62271628  1
  O  O134  1  0.63555952  0.60265209  0.13054368  1
  O  O135  1  0.62002492  0.61596748  0.60289134  1
  O  O136  1  0.37197280  0.38162847  0.37193133  1
  O  O137  1  0.35279448  0.38630439  0.87965195  1
  O  O138  1  0.40943579  0.84063818  0.38990647  1
  O  O139  1  0.37535915  0.88751247  0.86915220  1
  O  O140  1  0.88034453  0.38282740  0.38362779  1
  O  O141  1  0.87979220  0.38245495  0.87771148  1
  O  O142  1  0.86752181  0.88962128  0.36680202  1
  O  O143  1  0.80394154  0.90022925  0.99904265  1
  O  O144  1  0.24737817  0.01387120  0.36090450  1
  O  O145  1  0.25726666  0.00442822  0.87097385  1
  O  O146  1  0.26392462  0.51544898  0.37174322  1
  O  O147  1  0.25797519  0.50931201  0.87879824  1
  O  O148  1  0.75098054  0.02496765  0.38239448  1
  O  O149  1  0.78810740  -0.00068274  0.87828318  1
  O  O150  1  0.75417003  0.50176539  0.37572952  1
  O  O151  1  0.76056637  0.50308370  0.87011854  1
  O  O152  1  0.27819379  0.52230383  0.14370856  1
  O  O153  1  0.22854543  0.52740236  0.62280490  1
  O  O154  1  0.24393528  0.98768462  0.13348829  1
  O  O155  1  0.25897963  1.03087717  0.63417598  1
  O  O156  1  0.73374909  0.48237208  0.13631512  1
  O  O157  1  0.73153440  0.50867549  0.62343757  1
  O  O158  1  0.76312498  1.00065490  0.19241285  1
  O  O159  1  0.74325812  0.98621503  0.62177933  1
  O  O160  1  -0.00312137  0.38624482  0.26998488  1
  O  O161  1  -0.00466599  0.35718241  0.75702893  1
  O  O162  1  0.00562237  0.87661862  0.28359127  1
  O  O163  1  -0.00569412  0.85537169  0.74933059  1
  O  O164  1  0.50694998  0.37995231  0.25335353  1
  O  O165  1  0.50447045  0.35618346  0.76443481  1
  O  O166  1  0.49544586  0.91087695  0.26444703  1
  O  O167  1  0.49221928  0.86385945  0.75752228  1
  O  O168  1  0.47514206  0.12467618  0.25391322  1
  O  O169  1  0.50014972  0.11806854  0.74495463  1
  O  O170  1  0.50497194  0.62942878  0.24365030  1
  O  O171  1  0.48176728  0.64589589  0.76374720  1
  O  O172  1  1.01202016  0.14769134  0.22157655  1
  O  O173  1  0.98378556  0.14422536  0.74908228  1
  O  O174  1  0.97842526  0.62005384  0.25842719  1
  O  O175  1  1.00914221  0.63666936  0.73112393  1
  O  O176  1  0.36347280  0.25130022  0.01674643  1
  O  O177  1  0.35656747  0.21500773  0.52619616  1
  O  O178  1  0.39030199  0.72088598  0.02356161  1
  O  O179  1  0.36423381  0.74199276  0.51683540  1
  O  O180  1  0.90682503  0.23603809  0.01848492  1
  O  O181  1  0.86994151  0.25981857  0.51208654  1
  O  O182  1  0.86134157  0.74323305  0.03667023  1
  O  O183  1  0.86010898  0.74434737  0.49095766  1
  O  O184  1  0.13207582  0.25569164  0.48277008  1
  O  O185  1  0.08811942  0.20276201  1.02561159  1
  O  O186  1  0.14021772  0.74053055  0.49434551  1
  O  O187  1  0.12621397  0.73588130  0.99871970  1
  O  O188  1  0.62904876  0.24377925  0.49503077  1
  O  O189  1  0.60861908  0.25347521  0.95015136  1
  O  O190  1  0.63501947  0.73892761  0.50301430  1
  O  O191  1  0.62058498  0.73623857  0.99618888  1
  O  O192  1  0.47445351  0.24848714  0.12105509  1
  O  O193  1  0.51073642  0.22749709  0.62673289  1
  O  O194  1  0.51329116  0.76556792  0.13977805  1
  O  O195  1  0.48672834  0.75842961  0.63286094  1
  O  O196  1  1.01810011  0.29419780  0.13762039  1
  O  O197  1  0.98502687  0.25608369  0.63725312  1
  O  O198  1  0.91764099  0.77130383  0.08722080  1
  O  O199  1  0.99999408  0.74140140  0.60394194  1
  O  O200  1  0.00841478  0.26499223  0.37911791  1
  O  O201  1  -0.01219786  0.25744572  0.86255995  1
  O  O202  1  0.01919404  0.75272762  0.39931564  1
  O  O203  1  -0.07250158  0.80216496  0.88060012  1
  O  O204  1  0.50879939  0.24181701  0.39096094  1
  O  O205  1  0.55271226  0.23725757  0.90739017  1
  O  O206  1  0.51475582  0.76997911  0.34713253  1
  O  O207  1  0.49454470  0.76309460  0.86170839  1
  O  O208  1  0.25159049  0.11691608  0.47548373  1
  O  O209  1  0.24449086  0.11983362  0.97768833  1
  O  O210  1  0.24391811  0.62903942  0.48805854  1
  O  O211  1  0.24821981  0.63332546  0.98190143  1
  O  O212  1  0.74192042  0.13451844  0.49834561  1
  O  O213  1  0.77310165  0.11184099  0.98843969  1
  O  O214  1  0.74434765  0.63022405  0.49051840  1
  O  O215  1  0.74246254  0.60996994  0.99707542  1
  O  O216  1  0.20255571  0.34921109  -0.01252261  1
  O  O217  1  0.26074781  0.37877927  0.50120433  1
  O  O218  1  0.23771776  0.86726070  0.00758368  1
  O  O219  1  0.24793924  0.85848642  0.49796999  1
  O  O220  1  0.73218531  0.37147700  0.01165333  1
  O  O221  1  0.76050110  0.36998721  0.49211673  1
  O  O222  1  0.67046383  0.78520194  -0.02257150  1
  O  O223  1  0.74734492  0.85880017  0.48538439  1
  O  O224  1  0.14166479  0.52439843  0.23084600  1
  O  O225  1  0.11582837  0.50287531  0.73187863  1
  O  O226  1  0.13594479  1.00286082  0.25212515  1
  O  O227  1  0.14287096  1.00803025  0.74575442  1
  O  O228  1  0.62823194  0.48462638  0.26046216  1
  O  O229  1  0.59237884  0.50614776  0.71944859  1
  O  O230  1  0.61121465  1.03850923  0.21764262  1
  O  O231  1  0.62400376  0.99757702  0.73678562  1
  O  O232  1  0.35500290  0.02209471  0.24413443  1
  O  O233  1  0.36858204  0.00709916  0.75988118  1
  O  O234  1  0.37147324  0.50707029  0.26963874  1
  O  O235  1  0.38755400  0.51266063  0.76842424  1
  O  O236  1  0.79396555  -0.05817615  0.22486468  1
  O  O237  1  0.88650752  0.01682124  0.72344838  1
  O  O238  1  0.85849076  0.50521785  0.26424674  1
  O  O239  1  0.87841657  0.49685737  0.76151012  1
  O  O240  1  0.11359514  0.37824242  0.37959410  1
  O  O241  1  0.11365498  0.38958578  0.85608936  1
  O  O242  1  0.14094020  0.85681389  0.37496610  1
  O  O243  1  0.10402197  0.85788584  0.87248914  1
  O  O244  1  0.62054901  0.36275057  0.37283984  1
  O  O245  1  0.62429864  0.37021061  0.83374380  1
  O  O246  1  0.61077988  0.88976064  0.37232202  1
  O  O247  1  0.61162050  0.88491728  0.86757349  1
  O  O248  1  0.36563177  0.12986524  0.12778313  1
  O  O249  1  0.39586040  0.11479530  0.64390591  1
  O  O250  1  0.38243053  0.66863288  0.08109374  1
  O  O251  1  0.36968118  0.61677326  0.64426867  1
  O  O252  1  0.87884647  0.19544128  0.07176314  1
  O  O253  1  0.86742189  0.14576284  0.62860662  1
  O  O254  1  0.86049917  0.60953192  0.14461351  1
  O  O255  1  0.89755304  0.61529829  0.61461692  1
  O  O256  1  0.24775351  0.26247701  0.12737043  1
  O  O257  1  0.26259011  0.35558644  0.71276618  1
  O  O258  1  0.25392867  0.76065725  0.13253231  1
  O  O259  1  0.25807956  0.74136817  0.61383521  1
  O  O260  1  0.73140542  0.26398227  0.12784066  1
  O  O261  1  0.74837856  0.25257523  0.61095567  1
  O  O262  1  0.72197831  0.76222047  0.13071255  1
  O  O263  1  0.74660202  0.76611171  0.60929708  1
  O  O264  1  0.23455651  0.24411671  0.36040162  1
  O  O265  1  0.24116271  0.22652165  0.86297108  1
  O  O266  1  0.24756165  0.74250038  0.38378625  1
  O  O267  1  0.24970569  0.74661010  0.86582051  1
  O  O268  1  0.74145087  0.24568684  0.39060828  1
  O  O269  1  0.75959300  0.22591644  0.87791289  1
  O  O270  1  0.74723085  0.73260873  0.38052694  1
  O  O271  1  0.78047456  0.72048398  0.88833953  1
  O  O272  1  -0.02897311  0.07134318  -0.02034065  1
  O  O273  1  -0.00288133  0.11170857  0.51372037  1
  O  O274  1  0.00680337  0.63918419  -0.02080653  1
  O  O275  1  0.00698264  0.61088876  0.49472330  1
  O  O276  1  0.51068050  0.09387751  -0.00874905  1
  O  O277  1  0.50720551  0.11132289  0.51482412  1
  O  O278  1  0.50964805  0.60381081  -0.01048789  1
  O  O279  1  0.50845235  0.64623747  0.48306952  1
  O  O280  1  0.49241923  0.37611195  0.50359615  1
  O  O281  1  0.50168529  0.39839225  0.99838313  1
  O  O282  1  0.50867559  0.88886792  0.49854912  1
  O  O283  1  0.49398459  0.87539201  0.97904163  1
  O  O284  1  0.98614173  0.38873682  0.48806326  1
  O  O285  1  1.02076920  0.36199066  0.97833736  1
  O  O286  1  1.00247670  0.90220391  0.46978821  1
  O  O287  1  0.99960479  0.89633794  0.99516720  1
  O  O288  1  0.48641871  0.49782486  0.38628559  1
  O  O289  1  0.50089326  0.49758172  0.87301150  1
  O  O290  1  0.49589648  0.99901044  0.39454014  1
  O  O291  1  0.49148040  0.98511844  0.87801034  1
  O  O292  1  0.99292585  0.49512006  0.38058783  1
  O  O293  1  0.99172044  0.48606070  0.86616461  1
  O  O294  1  0.98007936  1.01750793  0.35675780  1
  O  O295  1  0.98765454  0.97580053  0.84755687  1
  O  O296  1  0.01888020  -0.00838041  0.12517235  1
  O  O297  1  0.02988694  -0.02130988  0.61646572  1
  O  O298  1  0.00302973  0.49643598  0.12760949  1
  O  O299  1  0.01109238  0.49999614  0.61361108  1
  O  O300  1  0.49412258  -0.02077468  0.10344603  1
  O  O301  1  0.51531479  -0.00080580  0.61960973  1
  O  O302  1  0.51492319  0.49701031  0.12604019  1
  O  O303  1  0.49115548  0.50003071  0.60265124  1
  O  O304  1  0.24899430  0.40515593  0.25659057  1
  O  O305  1  0.33921836  0.36621515  0.72001324  1
  O  O306  1  0.25970546  0.89384871  0.25532882  1
  O  O307  1  0.25733248  0.89828300  0.73711609  1
  O  O308  1  0.74248511  0.37960462  0.25692286  1
  O  O309  1  0.66762364  0.32635897  0.78644849  1
  O  O310  1  0.74142404  0.88327885  0.25159220  1
  O  O311  1  0.76928016  0.85821231  0.74244196  1
  O  O312  1  0.24814347  0.11742760  0.25045446  1
  O  O313  1  0.26539770  0.11263764  0.77179960  1
  O  O314  1  0.25251896  0.62610792  0.26743575  1
  O  O315  1  0.26298141  0.62621647  0.76319667  1
  O  O316  1  0.75489686  0.14179328  0.27228907  1
  O  O317  1  0.76228773  0.11913291  0.74423899  1
  O  O318  1  0.74240925  0.60981407  0.26827962  1
  O  O319  1  0.77679504  0.65046656  0.73534461  1
  O  O320  1  0.35635985  0.14135072  0.35635645  1
  O  O321  1  0.39003011  0.10478817  0.86935910  1
  O  O322  1  0.36773041  0.63738576  0.38127574  1
  O  O323  1  0.36093462  0.62690430  0.86728593  1
  O  O324  1  0.86513600  0.14189037  0.38649832  1
  O  O325  1  0.87106084  0.12481222  0.84971869  1
  O  O326  1  0.85964202  0.61158906  0.37244800  1
  O  O327  1  0.86792472  0.60133820  0.88718111  1
  O  O328  1  0.13908379  0.41534418  0.12299444  1
  O  O329  1  0.13606346  0.38913498  0.61908695  1
  O  O330  1  0.13903714  0.86157016  0.13156502  1
  O  O331  1  0.12879789  0.82433529  0.68181714  1
  O  O332  1  0.62522630  0.38094899  0.14626075  1
  O  O333  1  0.62411841  0.39267856  0.61352523  1
  O  O334  1  0.69169909  0.82809874  0.12213487  1
  O  O335  1  0.63864012  0.88425517  0.62506369  1
  O  O336  1  0.10819072  0.26154520  0.26789177  1
  O  O337  1  0.11262033  0.24457150  0.74872993  1
  O  O338  1  0.12387711  0.73883157  0.26777018  1
  O  O339  1  0.13599778  0.76673954  0.72496090  1
  O  O340  1  0.61930290  0.26101835  0.26962427  1
  O  O341  1  0.62589289  0.26566675  0.75563469  1
  O  O342  1  0.60460565  0.75705161  0.26240272  1
  O  O343  1  0.60501763  0.74401884  0.73568501  1
  O  O344  1  0.36077231  0.24199179  0.23226100  1
  O  O345  1  0.37219081  0.22454325  0.76118944  1
  O  O346  1  0.39657787  0.75434813  0.24917695  1
  O  O347  1  0.37431545  0.74389445  0.73280545  1
  O  O348  1  0.90279558  0.26177556  0.25341327  1
  O  O349  1  0.86546239  0.25139692  0.73468012  1
  O  O350  1  0.85817708  0.72557956  0.25295355  1
  O  O351  1  0.83747587  0.69607171  0.73407411  1
  O  O352  1  0.38304439  0.50038006  0.48607432  1
  O  O353  1  0.38558836  0.50715779  0.98043039  1
  O  O354  1  0.38820031  0.99562429  0.51386092  1
  O  O355  1  0.37147085  0.99990102  0.98527251  1
  O  O356  1  0.87820651  0.49556041  0.49267585  1
  O  O357  1  0.88163392  0.50676212  0.97769602  1
  O  O358  1  0.90586403  1.01671938  0.50993876  1
  O  O359  1  0.80120163  0.91550270  1.06966502  1
  O  O360  1  0.12566897  -0.00205657  -0.00320299  1
  O  O361  1  0.11591858  0.00842296  0.48484779  1
  O  O362  1  0.12269598  0.52030150  0.00928740  1
  O  O363  1  0.11775126  0.50637384  0.49964995  1
  O  O364  1  0.62010837  -0.02436840  0.00479604  1
  O  O365  1  0.62874750  0.01180626  0.50818655  1
  O  O366  1  0.61870462  0.49486442  0.00834541  1
  O  O367  1  0.60466658  0.50680118  0.50247497  1
  O  O368  1  0.36932906  0.37455330  0.13016070  1
  O  O369  1  0.37906633  0.38339215  0.65519072  1
  O  O370  1  0.35737307  0.87883285  0.11877907  1
  O  O371  1  0.37247471  0.86597399  0.62512600  1
  O  O372  1  0.84951524  0.37727739  0.12260118  1
  O  O373  1  0.87735954  0.37016788  0.61470786  1
  O  O374  1  0.89554772  0.82512902  0.13402360  1
  O  O375  1  0.85984730  0.88035775  0.61492922  1
  O  O376  1  0.13071610  0.13846400  0.37148730  1
  O  O377  1  0.11636778  0.11924756  0.87326478  1
  O  O378  1  0.13221383  0.62984952  0.38303215  1
  O  O379  1  0.13676737  0.62138046  0.88100442  1
  O  O380  1  0.62686704  0.13733675  0.38585907  1
  O  O381  1  0.65630392  0.08880949  0.87766237  1
  O  O382  1  0.63515567  0.61227603  0.38840565  1
  O  O383  1  0.65642621  0.61999890  0.85633656  1
