# generated using pymatgen
data_VZnO4
_symmetry_space_group_name_H-M   'P 1'
_cell_length_a   16.92395724
_cell_length_b   17.16584533
_cell_length_c   17.04275821
_cell_angle_alpha   89.61245314
_cell_angle_beta   90.89346457
_cell_angle_gamma   89.97313116
_symmetry_Int_Tables_number   1
_chemical_formula_structural   VZnO4
_chemical_formula_sum   'V64 Zn64 O256'
_cell_volume   4950.44437112
_cell_formula_units_Z   64
loop_
 _symmetry_equiv_pos_site_id
 _symmetry_equiv_pos_as_xyz
  1  'x, y, z'
loop_
 _atom_site_type_symbol
 _atom_site_label
 _atom_site_symmetry_multiplicity
 _atom_site_fract_x
 _atom_site_fract_y
 _atom_site_fract_z
 _atom_site_occupancy
  V  V0  1  0.87589355  0.88886407  -0.00572675  1
  V  V1  1  0.10932352  0.89399372  0.75651852  1
  V  V2  1  -0.00476644  0.60406840  0.13271549  1
  V  V3  1  0.62134855  0.27785998  0.36378924  1
  V  V4  1  0.86407101  0.38982796  0.00826460  1
  V  V5  1  0.77619831  0.49699168  0.25685139  1
  V  V6  1  0.01564599  0.13815793  0.60406457  1
  V  V7  1  0.62738659  0.62610352  0.00484614  1
  V  V8  1  0.86124323  0.01279365  0.41294987  1
  V  V9  1  0.48976602  0.12178137  0.12252912  1
  V  V10  1  0.76870984  0.48642053  0.74851282  1
  V  V11  1  0.49984531  -0.00789973  -0.00508035  1
  V  V12  1  0.62201106  0.74224810  0.87428948  1
  V  V13  1  0.63684059  0.87656227  0.74977026  1
  V  V14  1  0.62333825  0.27302116  0.87587661  1
  V  V15  1  0.89980268  0.65509364  0.75648606  1
  V  V16  1  0.23715852  0.62738066  0.88270294  1
  V  V17  1  0.72661478  0.12414107  0.37246171  1
  V  V18  1  -0.01508178  0.37949693  0.88794583  1
  V  V19  1  0.86584150  0.11593784  0.24112751  1
  V  V20  1  0.76205523  0.11089157  0.87545864  1
  V  V21  1  0.74015551  0.63202583  0.37218271  1
  V  V22  1  0.36828953  0.38419173  0.50985626  1
  V  V23  1  0.75707602  0.28200603  0.48409314  1
  V  V24  1  0.62821795  0.87362863  0.25252724  1
  V  V25  1  0.33735541  0.07727409  0.30314798  1
  V  V26  1  0.49504687  0.51054834  0.49353090  1
  V  V27  1  0.27190312  0.12406939  0.85284077  1
  V  V28  1  0.00311159  0.59819044  0.62393128  1
  V  V29  1  0.62515535  0.12320575  -0.00614932  1
  V  V30  1  0.50146547  0.62761523  0.12701471  1
  V  V31  1  0.49623510  0.25004968  0.23193072  1
  V  V32  1  0.75584149  0.25240423  0.01128771  1
  V  V33  1  0.75988865  0.74155922  0.00156556  1
  V  V34  1  -0.00214596  0.23213025  0.26707902  1
  V  V35  1  0.04052241  0.10967955  0.07115584  1
  V  V36  1  0.63033523  -0.00347777  0.12578407  1
  V  V37  1  0.25515332  0.88255571  0.13829491  1
  V  V38  1  0.24714128  0.25015192  0.48902972  1
  V  V39  1  0.47153354  0.38284415  0.34830756  1
  V  V40  1  0.49112531  0.87465544  0.38034729  1
  V  V41  1  0.12431381  0.60778457  0.50113376  1
  V  V42  1  0.51375670  0.23449441  0.73896132  1
  V  V43  1  0.12024622  0.38718432  0.77184465  1
  V  V44  1  0.50674938  0.74711449  0.25068031  1
  V  V45  1  0.36755913  0.74467301  0.12425785  1
  V  V46  1  0.13264761  0.78661382  0.41785327  1
  V  V47  1  0.63075068  0.49346952  0.14518795  1
  V  V48  1  0.75139525  0.86812666  0.12790352  1
  V  V49  1  0.49379436  0.87023036  0.86935783  1
  V  V50  1  0.50097765  0.04278277  0.53265553  1
  V  V51  1  0.13145746  0.58039135  0.02020300  1
  V  V52  1  0.01801569  0.23428824  0.76934571  1
  V  V53  1  0.23968631  0.63264050  0.36896922  1
  V  V54  1  0.13121029  0.34395355  0.22490891  1
  V  V55  1  0.37893624  0.63060641  0.75740182  1
  V  V56  1  0.37419350  0.36696239  0.01760083  1
  V  V57  1  0.23184498  0.37997329  0.64929419  1
  V  V58  1  0.36901692  0.49044319  0.87562605  1
  V  V59  1  0.87094819  0.25465229  0.63980783  1
  V  V60  1  0.50686947  0.49164534  -0.00450072  1
  V  V61  1  -0.04987077  0.87314548  0.44449685  1
  V  V62  1  0.36817979  0.86857884  -0.00470249  1
  V  V63  1  0.09608503  0.87175587  0.23062322  1
  Zn  Zn64  1  0.17848316  0.15722084  0.19440995  1
  Zn  Zn65  1  0.18965971  0.20767067  0.67285842  1
  Zn  Zn66  1  0.11847808  0.67850569  0.21908941  1
  Zn  Zn67  1  0.21607495  0.63439331  0.67333698  1
  Zn  Zn68  1  0.68146005  0.18506770  0.18939196  1
  Zn  Zn69  1  0.67925244  0.17857630  0.70764598  1
  Zn  Zn70  1  0.69512085  0.68575229  0.19268126  1
  Zn  Zn71  1  0.68967539  0.64797712  0.72221129  1
  Zn  Zn72  1  0.30391424  0.27330325  0.29406374  1
  Zn  Zn73  1  0.33695247  0.31999332  0.80930462  1
  Zn  Zn74  1  0.31766742  0.79075569  0.31737293  1
  Zn  Zn75  1  0.27031408  0.77694839  0.78284074  1
  Zn  Zn76  1  0.82070128  0.30983214  0.30725893  1
  Zn  Zn77  1  0.80174887  0.31127841  0.82161403  1
  Zn  Zn78  1  0.78352507  0.81311544  0.43581844  1
  Zn  Zn79  1  0.81242840  0.80630231  0.82011104  1
  Zn  Zn80  1  0.19805061  0.44305278  0.41119261  1
  Zn  Zn81  1  0.19421724  0.42205950  0.94325851  1
  Zn  Zn82  1  0.22342715  0.93722575  0.33556498  1
  Zn  Zn83  1  0.17288969  0.88075551  0.93005947  1
  Zn  Zn84  1  0.67966597  0.45380640  0.42089804  1
  Zn  Zn85  1  0.69674366  0.44901599  0.93256276  1
  Zn  Zn86  1  0.66731239  0.95158140  0.44179835  1
  Zn  Zn87  1  0.68804718  0.93088745  0.93728674  1
  Zn  Zn88  1  0.31287646  0.05171171  0.05507451  1
  Zn  Zn89  1  0.30673439  0.05558440  0.48621187  1
  Zn  Zn90  1  0.31944031  0.56070078  0.05904168  1
  Zn  Zn91  1  0.30692689  0.55655383  0.55580605  1
  Zn  Zn92  1  0.80737980  0.06072287  0.05755498  1
  Zn  Zn93  1  0.77546912  0.10316975  0.56843978  1
  Zn  Zn94  1  0.81352605  0.56321009  0.07596125  1
  Zn  Zn95  1  0.79221951  0.59242674  0.57786952  1
  Zn  Zn96  1  0.44583529  0.44671483  0.19158313  1
  Zn  Zn97  1  0.41620418  0.48719238  0.66604340  1
  Zn  Zn98  1  0.44108321  0.93633133  0.18670666  1
  Zn  Zn99  1  0.48878347  0.90103921  0.65376582  1
  Zn  Zn100  1  0.93519948  0.42220404  0.18892434  1
  Zn  Zn101  1  0.94157890  0.43180952  0.69394796  1
  Zn  Zn102  1  0.92720037  0.95884052  0.16597785  1
  Zn  Zn103  1  0.93500440  0.95073977  0.63391581  1
  Zn  Zn104  1  0.02885047  0.03351558  0.31799703  1
  Zn  Zn105  1  0.06929042  0.05623304  0.87361323  1
  Zn  Zn106  1  0.00802384  0.51704693  0.29999515  1
  Zn  Zn107  1  0.04587107  0.56836230  0.82693908  1
  Zn  Zn108  1  0.52482549  0.07609327  0.33182609  1
  Zn  Zn109  1  0.56575801  0.05294352  0.80735731  1
  Zn  Zn110  1  0.55070265  0.56942781  0.32946845  1
  Zn  Zn111  1  0.56263534  0.56023463  0.81333536  1
  Zn  Zn112  1  0.43814845  0.20600327  0.43985796  1
  Zn  Zn113  1  0.45021157  0.19771995  0.94074612  1
  Zn  Zn114  1  0.43307328  0.69237604  0.43085900  1
  Zn  Zn115  1  0.43567233  0.68552858  0.93787378  1
  Zn  Zn116  1  0.92828970  0.19251166  0.42990861  1
  Zn  Zn117  1  0.94185613  0.18992581  0.94365843  1
  Zn  Zn118  1  0.90991832  0.66962361  0.47739323  1
  Zn  Zn119  1  0.94592086  0.66594802  0.95717819  1
  Zn  Zn120  1  0.02123540  0.31002271  0.08903559  1
  Zn  Zn121  1  0.06686189  0.30820895  0.56981020  1
  Zn  Zn122  1  0.03238316  0.80482414  0.08992228  1
  Zn  Zn123  1  0.20992554  0.81972394  0.60134250  1
  Zn  Zn124  1  0.57430078  0.31319063  0.06615680  1
  Zn  Zn125  1  0.59378394  0.19952440  0.55780728  1
  Zn  Zn126  1  0.56361598  0.80837926  0.06115751  1
  Zn  Zn127  1  0.62059494  0.82400394  0.54487103  1
  O  O128  1  0.13792686  0.10551037  0.10504377  1
  O  O129  1  0.11629261  0.13992940  0.62294101  1
  O  O130  1  0.14264949  0.59274378  0.11814141  1
  O  O131  1  0.12282874  0.60880384  0.60849304  1
  O  O132  1  0.62461838  0.11174234  0.11172412  1
  O  O133  1  0.67448749  0.13614709  0.60879052  1
  O  O134  1  0.61962206  0.61960401  0.12052827  1
  O  O135  1  0.59033442  0.70864971  0.53134912  1
  O  O136  1  0.37490361  0.36342586  0.33831729  1
  O  O137  1  0.37902882  0.38858056  0.89295111  1
  O  O138  1  0.39138572  0.85781117  0.37741717  1
  O  O139  1  0.38797151  0.86373134  0.89047317  1
  O  O140  1  0.92107827  0.38427967  0.34047607  1
  O  O141  1  0.87897196  0.37137067  0.88692572  1
  O  O142  1  0.85030694  0.90556409  0.40158921  1
  O  O143  1  0.86498746  0.86931424  0.89655771  1
  O  O144  1  0.27957027  0.02501220  0.37346848  1
  O  O145  1  0.28442415  0.02906484  0.82271889  1
  O  O146  1  0.24959088  0.53448812  0.36412590  1
  O  O147  1  0.26751290  0.49953919  0.88850407  1
  O  O148  1  0.74455854  0.02111042  0.38605979  1
  O  O149  1  0.74934208  0.01220929  0.89116489  1
  O  O150  1  0.75587430  0.51358854  0.36086471  1
  O  O151  1  0.74356674  0.51185275  0.85343625  1
  O  O152  1  0.28152533  0.50722625  0.16347555  1
  O  O153  1  0.24847822  0.47384054  0.61905855  1
  O  O154  1  0.25537058  0.97906343  0.11861578  1
  O  O155  1  0.23291244  0.95855947  0.52268329  1
  O  O156  1  0.73951266  0.51291620  0.14716298  1
  O  O157  1  0.75732471  0.51478169  0.64735614  1
  O  O158  1  0.73724625  0.98281204  0.11373339  1
  O  O159  1  0.76558997  0.99692680  0.64329621  1
  O  O160  1  -0.00146137  0.32802596  0.21440119  1
  O  O161  1  0.00853247  0.36707603  0.76659334  1
  O  O162  1  -0.00065206  0.87364197  0.20172203  1
  O  O163  1  0.01909841  0.91129577  0.71188206  1
  O  O164  1  0.50154218  0.35270854  0.23777582  1
  O  O165  1  0.54834959  0.41082743  0.70318000  1
  O  O166  1  0.51050988  0.86192122  0.24526770  1
  O  O167  1  0.49658179  0.87371697  0.76987430  1
  O  O168  1  0.50757271  0.12469583  0.22537700  1
  O  O169  1  0.51131407  0.13469186  0.75217662  1
  O  O170  1  0.51032915  0.63983094  0.23989165  1
  O  O171  1  0.47904886  0.61515861  0.75448811  1
  O  O172  1  0.98702008  0.12377893  0.25853266  1
  O  O173  1  1.01971497  0.13822156  0.78696029  1
  O  O174  1  1.02526002  0.60770678  0.24177093  1
  O  O175  1  1.01422862  0.62356898  0.72512410  1
  O  O176  1  0.39464001  0.26980741  0.00143398  1
  O  O177  1  0.37087890  0.27955342  0.49216889  1
  O  O178  1  0.38728488  0.76167024  0.01341949  1
  O  O179  1  0.38488340  0.72749801  0.53203524  1
  O  O180  1  0.85721616  0.24961970  0.00280946  1
  O  O181  1  0.85263992  0.27317097  0.45037535  1
  O  O182  1  0.86070672  0.73559324  -0.00665376  1
  O  O183  1  0.86175961  0.79275331  0.60895548  1
  O  O184  1  0.14688772  0.26945469  0.50327881  1
  O  O185  1  0.20713193  0.24534840  1.04555394  1
  O  O186  1  0.14042773  0.78722930  0.51743769  1
  O  O187  1  0.11561180  0.78959617  0.98272010  1
  O  O188  1  0.63484864  0.26377483  0.46992251  1
  O  O189  1  0.62824871  0.24257236  0.99026096  1
  O  O190  1  0.62725851  0.65300361  0.57003905  1
  O  O191  1  0.63246484  0.74068111  0.99847394  1
  O  O192  1  0.51338852  0.23237375  0.12475009  1
  O  O193  1  0.53746065  0.25150096  0.64340037  1
  O  O194  1  0.49800627  0.74140883  0.12869774  1
  O  O195  1  0.43391142  0.75947925  0.58642207  1
  O  O196  1  1.00109843  0.19976135  0.09626827  1
  O  O197  1  0.99239855  0.23592260  0.65614330  1
  O  O198  1  1.04182800  0.70914149  0.13808368  1
  O  O199  1  0.85938141  0.85330707  0.64903294  1
  O  O200  1  0.00781214  0.24815789  0.36267775  1
  O  O201  1  -0.00718508  0.26364562  0.86915660  1
  O  O202  1  -0.09748111  0.77956606  0.45285662  1
  O  O203  1  0.07610012  0.74428496  0.93734310  1
  O  O204  1  0.50592029  0.26553580  0.35979078  1
  O  O205  1  0.52214247  0.24699001  0.87001886  1
  O  O206  1  0.50096021  0.75254184  0.35335555  1
  O  O207  1  0.51245252  0.76093930  0.88844760  1
  O  O208  1  0.26789172  0.15455102  0.51934444  1
  O  O209  1  0.27270294  0.10134592  0.95385638  1
  O  O210  1  0.23129882  0.62131323  0.49699223  1
  O  O211  1  0.23838423  0.60917612  0.99659462  1
  O  O212  1  0.74781805  0.15904382  0.46791164  1
  O  O213  1  0.74181268  0.13615161  0.99630349  1
  O  O214  1  0.80706947  0.62070884  0.46801733  1
  O  O215  1  0.74064733  0.63544870  1.01509869  1
  O  O216  1  0.27353155  0.37801393  0.00952627  1
  O  O217  1  0.26349241  0.38024509  0.48381138  1
  O  O218  1  0.26493432  0.87183332  0.00040143  1
  O  O219  1  0.27426253  0.89909910  0.54625825  1
  O  O220  1  0.75613259  0.36255435  -0.00812505  1
  O  O221  1  0.74498037  0.37904408  0.47584988  1
  O  O222  1  0.75559462  0.85923871  0.00763031  1
  O  O223  1  0.71330862  0.86716509  0.50142125  1
  O  O224  1  0.10146768  0.44304710  0.27387603  1
  O  O225  1  0.11682186  0.48425435  0.76685009  1
  O  O226  1  0.11508440  0.95835953  0.28754481  1
  O  O227  1  0.10918953  0.99714545  0.77824056  1
  O  O228  1  0.62143913  0.50607977  0.24299347  1
  O  O229  1  0.65590362  0.54372181  0.75536840  1
  O  O230  1  0.61850114  0.98034639  0.23046311  1
  O  O231  1  0.62865754  0.97471814  0.75625902  1
  O  O232  1  0.37542758  0.01136053  0.24024925  1
  O  O233  1  0.35227665  -0.04125179  0.68783532  1
  O  O234  1  0.33429564  0.50441320  0.21776825  1
  O  O235  1  0.38243948  0.49380243  0.77424680  1
  O  O236  1  0.87841012  0.01469191  0.25373532  1
  O  O237  1  0.91520674  -0.00407409  0.80785616  1
  O  O238  1  0.87739538  0.50470982  0.24847152  1
  O  O239  1  0.87318664  0.49461978  0.75438325  1
  O  O240  1  0.12124878  0.38783154  0.33779437  1
  O  O241  1  0.11787665  0.36839992  0.87494106  1
  O  O242  1  0.04359181  0.84143976  0.40489247  1
  O  O243  1  0.07630004  0.87429160  0.85495664  1
  O  O244  1  0.61013332  0.37652628  0.35747015  1
  O  O245  1  0.62535968  0.37002017  0.88429707  1
  O  O246  1  0.62619409  0.87735933  0.35166109  1
  O  O247  1  0.61827927  0.86049246  0.86826600  1
  O  O248  1  0.39125853  0.11843622  0.10761937  1
  O  O249  1  0.32542117  0.01545136  0.65060780  1
  O  O250  1  0.38614274  0.63796609  0.11570533  1
  O  O251  1  0.34294909  0.60324206  0.65860633  1
  O  O252  1  0.85129538  0.12217242  0.14319424  1
  O  O253  1  0.87398568  0.15963368  0.60749299  1
  O  O254  1  0.89728898  0.62609202  0.11929238  1
  O  O255  1  0.90119007  0.63459526  0.63225903  1
  O  O256  1  0.25505487  0.22695148  0.09797824  1
  O  O257  1  0.25583170  0.28401796  0.61655272  1
  O  O258  1  0.26885043  0.75916765  0.12538740  1
  O  O259  1  0.23005594  0.74712208  0.68029576  1
  O  O260  1  0.73357545  0.24786804  0.10830971  1
  O  O261  1  0.77535622  0.27491725  0.59147173  1
  O  O262  1  0.74455404  0.75932428  0.11375818  1
  O  O263  1  0.70029915  0.67978301  0.60837304  1
  O  O264  1  0.25232768  0.24379157  0.38956177  1
  O  O265  1  0.27571963  0.22886431  0.86564984  1
  O  O266  1  0.21863010  0.83415859  0.38910498  1
  O  O267  1  0.24581555  0.72689204  0.88441596  1
  O  O268  1  0.72910708  0.25816481  0.35921723  1
  O  O269  1  0.73463581  0.24162447  0.88793800  1
  O  O270  1  0.75497512  0.73090313  0.36770250  1
  O  O271  1  0.73433093  0.75079579  0.89491436  1
  O  O272  1  0.02833278  0.11296265  -0.03452923  1
  O  O273  1  0.00263274  0.15737233  0.50624719  1
  O  O274  1  0.02417353  0.61291493  0.01963560  1
  O  O275  1  0.01335171  0.63743584  0.51626800  1
  O  O276  1  0.50724341  0.11450475  0.00340940  1
  O  O277  1  0.49811790  0.14709677  0.51854815  1
  O  O278  1  0.50841001  0.61864808  0.01130173  1
  O  O279  1  0.48386286  0.59256773  0.42972492  1
  O  O280  1  0.47254396  0.39903810  0.45795957  1
  O  O281  1  0.50604469  0.39178194  1.00682765  1
  O  O282  1  0.52457492  0.85657465  0.47494969  1
  O  O283  1  0.49882791  0.87916470  0.99511337  1
  O  O284  1  0.96565205  0.35435417  0.54295183  1
  O  O285  1  0.97880309  0.36467355  0.99524826  1
  O  O286  1  0.96559335  0.89809158  0.53769653  1
  O  O287  1  0.97181864  0.86349985  1.01966209  1
  O  O288  1  0.47780874  0.47822986  0.30929903  1
  O  O289  1  0.49904373  0.50568857  0.89335614  1
  O  O290  1  0.49937346  0.97109790  0.35582316  1
  O  O291  1  0.50797598  0.98047723  0.88434370  1
  O  O292  1  0.95808415  0.49578275  0.40176140  1
  O  O293  1  0.99910487  0.47571466  0.88043132  1
  O  O294  1  0.96720464  0.98631380  0.40213229  1
  O  O295  1  0.95542313  1.00053002  0.86934512  1
  O  O296  1  -0.00726458  0.03137947  0.11049386  1
  O  O297  1  -0.01488457  0.04747567  0.62927044  1
  O  O298  1  -0.00307138  0.50274481  0.13537881  1
  O  O299  1  -0.00527042  0.50148751  0.61961707  1
  O  O300  1  0.50772232  0.00730141  0.11437453  1
  O  O301  1  0.50398495  0.00852273  0.62851999  1
  O  O302  1  0.51230147  0.51229808  0.11960921  1
  O  O303  1  0.49013577  0.53135782  0.59142386  1
  O  O304  1  0.23092761  0.33557335  0.23195005  1
  O  O305  1  0.24031042  0.36985053  0.75505837  1
  O  O306  1  0.26555190  0.87568480  0.24122442  1
  O  O307  1  0.20824502  0.87527857  0.80840347  1
  O  O308  1  0.76452114  0.39810257  0.25904273  1
  O  O309  1  0.75333103  0.38803916  0.75037892  1
  O  O310  1  0.73485932  0.86553744  0.23118046  1
  O  O311  1  0.73496843  0.85765617  0.75240848  1
  O  O312  1  0.27149557  0.14129738  0.25590984  1
  O  O313  1  0.26518308  0.14877243  0.75125999  1
  O  O314  1  0.21522176  0.66097739  0.27535652  1
  O  O315  1  0.25217734  0.61162821  0.78033428  1
  O  O316  1  0.75592007  0.13276431  0.26491720  1
  O  O317  1  0.74799715  0.12439669  0.77683032  1
  O  O318  1  0.75436706  0.61901876  0.26421408  1
  O  O319  1  0.80020428  0.63686157  0.75881401  1
  O  O320  1  0.41238347  0.12333588  0.35992259  1
  O  O321  1  0.37732855  0.13227168  0.86351003  1
  O  O322  1  0.32764899  0.68887014  0.37891753  1
  O  O323  1  0.36874947  0.61274264  0.87695752  1
  O  O324  1  0.86415229  0.11258741  0.37049051  1
  O  O325  1  0.85973516  0.12963017  0.89075452  1
  O  O326  1  0.92278883  0.71569061  0.29179102  1
  O  O327  1  0.94074024  0.62923405  0.85257989  1
  O  O328  1  0.11932582  0.35892708  0.12607218  1
  O  O329  1  0.12656812  0.37342663  0.65073118  1
  O  O330  1  0.14456986  0.86481872  0.13580936  1
  O  O331  1  0.17070411  0.90627369  0.67467760  1
  O  O332  1  0.62489224  0.39654185  0.12615931  1
  O  O333  1  0.60443679  0.41934129  0.65886809  1
  O  O334  1  0.63101579  0.88024483  0.12149333  1
  O  O335  1  0.59869719  0.85278700  0.65365400  1
  O  O336  1  0.10890265  0.23528745  0.24006932  1
  O  O337  1  0.11792088  0.25759592  0.75524475  1
  O  O338  1  0.11277992  0.78671813  0.28108493  1
  O  O339  1  0.09127222  0.79459638  0.73899554  1
  O  O340  1  0.61054449  0.24238407  0.25883429  1
  O  O341  1  0.62639356  0.25651122  0.76950481  1
  O  O342  1  0.61539465  0.76175033  0.23633509  1
  O  O343  1  0.63013475  0.73730240  0.77372229  1
  O  O344  1  0.39797515  0.23759381  0.24017650  1
  O  O345  1  0.42251670  0.27914807  0.75055425  1
  O  O346  1  0.39374900  0.75464249  0.23042297  1
  O  O347  1  0.37218159  0.72936504  0.76455558  1
  O  O348  1  0.88650253  0.22959070  0.25916389  1
  O  O349  1  0.86632253  0.25870477  0.74047912  1
  O  O350  1  0.88208203  0.75575755  0.24738142  1
  O  O351  1  0.89731777  0.75345697  0.76488162  1
  O  O352  1  0.37460887  0.49268277  0.49086609  1
  O  O353  1  0.39385207  0.49585309  0.99868221  1
  O  O354  1  0.41087056  1.01104391  0.49615295  1
  O  O355  1  0.38883189  0.97874776  1.00419679  1
  O  O356  1  0.90929703  0.43282158  0.40053555  1
  O  O357  1  0.85310586  0.48804482  1.00060935  1
  O  O358  1  0.84942793  1.02700605  0.50937952  1
  O  O359  1  0.87113359  0.98747219  1.00386726  1
  O  O360  1  0.13798751  -0.01485959  -0.06240764  1
  O  O361  1  0.13505643  0.06819962  0.45449915  1
  O  O362  1  0.12664798  0.48366537  0.00832852  1
  O  O363  1  0.11665454  0.51687440  0.46636734  1
  O  O364  1  0.61687856  0.00192924  0.00594588  1
  O  O365  1  0.58550933  0.01331694  0.48559805  1
  O  O366  1  0.62161896  0.50964964  0.00687254  1
  O  O367  1  0.59330463  0.49113872  0.48024105  1
  O  O368  1  0.39098037  0.38250559  0.11558489  1
  O  O369  1  0.38071266  0.38937143  0.61041014  1
  O  O370  1  0.37090507  0.86650953  0.11637345  1
  O  O371  1  0.40501983  0.82711911  0.61443224  1
  O  O372  1  0.87245979  0.37305441  0.10654353  1
  O  O373  1  0.91135490  0.35540192  0.60502639  1
  O  O374  1  0.85337769  0.88040245  0.11990732  1
  O  O375  1  0.82619987  0.99145821  0.68730739  1
  O  O376  1  0.11622879  0.10156194  0.39159449  1
  O  O377  1  0.16955810  0.12354316  0.85981172  1
  O  O378  1  0.13468804  0.67740124  0.40568004  1
  O  O379  1  0.13317423  0.60790872  0.89366992  1
  O  O380  1  0.62539042  0.12689684  0.36504573  1
  O  O381  1  0.62882904  0.11659984  0.89037811  1
  O  O382  1  0.64193641  0.62077362  0.38401848  1
  O  O383  1  0.61222713  0.63717224  0.89376105  1
