# generated using pymatgen
data_VZnO4
_symmetry_space_group_name_H-M   'P 1'
_cell_length_a   17.02224201
_cell_length_b   16.89677435
_cell_length_c   16.94334993
_cell_angle_alpha   89.95834005
_cell_angle_beta   89.66021552
_cell_angle_gamma   90.37869523
_symmetry_Int_Tables_number   1
_chemical_formula_structural   VZnO4
_chemical_formula_sum   'V64 Zn64 O256'
_cell_volume   4873.06938297
_cell_formula_units_Z   64
loop_
 _symmetry_equiv_pos_site_id
 _symmetry_equiv_pos_as_xyz
  1  'x, y, z'
loop_
 _atom_site_type_symbol
 _atom_site_label
 _atom_site_symmetry_multiplicity
 _atom_site_fract_x
 _atom_site_fract_y
 _atom_site_fract_z
 _atom_site_occupancy
  V  V0  1  0.87581886  0.62245136  0.25020079  1
  V  V1  1  0.26133286  0.11215036  0.35190516  1
  V  V2  1  0.62185740  0.87163677  0.24177288  1
  V  V3  1  0.00197219  0.39395237  0.86800621  1
  V  V4  1  -0.00866569  0.50848082  0.50036254  1
  V  V5  1  0.15040180  -0.00199910  0.62681676  1
  V  V6  1  0.13413630  0.74889146  0.86350601  1
  V  V7  1  0.61645942  0.60284220  0.49162675  1
  V  V8  1  0.77173618  0.89585080  0.13456502  1
  V  V9  1  0.52870632  -0.01684751  0.51805061  1
  V  V10  1  -0.01379371  0.00238991  -0.01147042  1
  V  V11  1  0.76557585  0.62250733  0.86732086  1
  V  V12  1  0.49423963  0.73887047  0.24625588  1
  V  V13  1  0.02821813  0.37306189  0.37897474  1
  V  V14  1  0.40392915  0.39417863  0.50529435  1
  V  V15  1  0.12623368  0.50276581  0.60852510  1
  V  V16  1  0.24799187  0.26741428  -0.00409575  1
  V  V17  1  -0.02492739  0.24536890  0.75119932  1
  V  V18  1  -0.01462759  0.87328171  0.86819860  1
  V  V19  1  0.32094497  0.50161681  0.87081692  1
  V  V20  1  0.35576380  0.75501409  0.11540769  1
  V  V21  1  0.88687327  -0.01336154  0.37311354  1
  V  V22  1  -0.00279439  0.62563178  0.11272204  1
  V  V23  1  0.63051563  0.48579452  0.64654420  1
  V  V24  1  0.75382966  0.11105214  0.87732437  1
  V  V25  1  0.73232016  0.76217777  -0.00160850  1
  V  V26  1  0.35440953  0.62281560  0.25330366  1
  V  V27  1  0.49746650  0.61894794  0.10631967  1
  V  V28  1  0.01075303  0.12458845  0.12587141  1
  V  V29  1  0.62673861  0.74488220  0.36597395  1
  V  V30  1  0.74789557  0.61366839  0.36304237  1
  V  V31  1  0.48719937  0.87830668  0.37099026  1
  V  V32  1  0.62386336  0.13957340  0.52423203  1
  V  V33  1  0.86480459  0.25189128  0.59462124  1
  V  V34  1  0.13792626  0.88236522  0.75197734  1
  V  V35  1  0.36952514  0.23308331  0.11500372  1
  V  V36  1  0.65727572  0.29134527  0.86170299  1
  V  V37  1  0.38579357  0.23081943  0.61322671  1
  V  V38  1  0.64972809  0.37535877  0.24612392  1
  V  V39  1  0.35819062  0.87044281  -0.02630118  1
  V  V40  1  0.61946279  0.12618871  0.00210951  1
  V  V41  1  0.13835468  0.11725469  -0.01642153  1
  V  V42  1  0.00666360  0.76221509  0.26231333  1
  V  V43  1  0.88111697  0.12221436  0.25753974  1
  V  V44  1  0.12423123  0.49521421  0.12195688  1
  V  V45  1  0.15660710  0.73479930  0.43939311  1
  V  V46  1  0.02774086  0.25346662  0.25440583  1
  V  V47  1  0.88217465  0.26243810  0.12318448  1
  V  V48  1  0.50458027  0.62263969  0.64627975  1
  V  V49  1  0.86996800  0.48388580  0.37109526  1
  V  V50  1  -0.02348171  0.10159973  0.63192389  1
  V  V51  1  0.13890108  0.37166113  0.72930040  1
  V  V52  1  0.12686073  0.12182056  0.50090838  1
  V  V53  1  0.34154581  0.63620931  0.74786168  1
  V  V54  1  0.87334562  0.86987408  0.51429619  1
  V  V55  1  0.12936759  0.24456533  0.85983217  1
  V  V56  1  0.62983456  0.49686008  0.11047686  1
  V  V57  1  0.74546661  0.74702773  0.50575478  1
  V  V58  1  0.23444544  0.49201654  0.25904387  1
  V  V59  1  0.87494807  0.75321071  0.11753264  1
  V  V60  1  0.13526685  -0.01179539  0.12664048  1
  V  V61  1  0.58177314  0.01091239  0.14435790  1
  V  V62  1  0.74230502  0.12979130  0.37801134  1
  V  V63  1  0.13642478  0.63796991  -0.00445553  1
  Zn  Zn64  1  0.19987708  0.17210060  0.17968936  1
  Zn  Zn65  1  0.16995612  0.20588397  0.64742682  1
  Zn  Zn66  1  0.17749826  0.69581737  0.18733922  1
  Zn  Zn67  1  0.16135195  0.70185519  0.65871857  1
  Zn  Zn68  1  0.69797364  0.18789531  0.18496537  1
  Zn  Zn69  1  0.69870188  0.18925413  0.70110831  1
  Zn  Zn70  1  0.68613898  0.68185789  0.17666049  1
  Zn  Zn71  1  0.75000297  0.61820563  0.65392686  1
  Zn  Zn72  1  0.29079895  0.29718575  0.30197062  1
  Zn  Zn73  1  0.30907809  0.31421997  0.80631326  1
  Zn  Zn74  1  0.30883337  0.79265994  0.32979759  1
  Zn  Zn75  1  0.34812282  0.84008348  0.76216631  1
  Zn  Zn76  1  0.82063901  0.30189334  0.30737011  1
  Zn  Zn77  1  0.80654644  0.42256730  0.83564864  1
  Zn  Zn78  1  0.81154648  0.80583841  0.30348368  1
  Zn  Zn79  1  0.77609379  0.89553514  0.84553466  1
  Zn  Zn80  1  0.20072826  0.45475763  0.45167528  1
  Zn  Zn81  1  0.15213053  0.43212630  0.94544880  1
  Zn  Zn82  1  0.19444321  0.93865357  0.44066551  1
  Zn  Zn83  1  0.15606222  0.90341857  0.97161522  1
  Zn  Zn84  1  0.61798245  0.38591082  0.44971221  1
  Zn  Zn85  1  0.65777195  0.48895361  0.91058924  1
  Zn  Zn86  1  0.70871859  0.93559505  0.42613805  1
  Zn  Zn87  1  0.69634140  0.97268650  0.98364682  1
  Zn  Zn88  1  0.31956753  0.04766795  0.05280616  1
  Zn  Zn89  1  0.33692306  -0.07723643  0.58091298  1
  Zn  Zn90  1  0.30552266  0.56443468  0.06429919  1
  Zn  Zn91  1  0.33440057  0.52239380  0.58373256  1
  Zn  Zn92  1  0.81923693  0.08081649  0.06786761  1
  Zn  Zn93  1  0.80805318  0.05999219  0.55347081  1
  Zn  Zn94  1  0.80206547  0.58231528  0.05617739  1
  Zn  Zn95  1  0.78897972  0.42935858  0.54802993  1
  Zn  Zn96  1  0.42605340  0.44809021  0.18782352  1
  Zn  Zn97  1  0.43219491  0.46043156  0.69747390  1
  Zn  Zn98  1  0.42194056  0.92720068  0.19635860  1
  Zn  Zn99  1  0.48905402  0.94152096  0.69505479  1
  Zn  Zn100  1  0.95339900  0.43853666  0.19794640  1
  Zn  Zn101  1  0.93974558  0.41499093  0.67280405  1
  Zn  Zn102  1  0.95446478  0.94537497  0.18713105  1
  Zn  Zn103  1  0.95974844  0.88821534  0.66799398  1
  Zn  Zn104  1  0.08456918  0.03634751  0.32863676  1
  Zn  Zn105  1  0.05775468  0.05957313  0.80338569  1
  Zn  Zn106  1  0.06636138  0.57933932  0.31926747  1
  Zn  Zn107  1  0.12197369  0.54702012  0.81550202  1
  Zn  Zn108  1  0.58808579  0.03670248  0.34823195  1
  Zn  Zn109  1  0.48934070  0.01849905  0.96467544  1
  Zn  Zn110  1  0.56377888  0.55568686  0.29382347  1
  Zn  Zn111  1  0.61705909  0.61868859  0.78961997  1
  Zn  Zn112  1  0.39360453  0.09492890  0.48807899  1
  Zn  Zn113  1  0.47723703  0.24049233  0.96661962  1
  Zn  Zn114  1  0.43739387  0.66997448  0.42660668  1
  Zn  Zn115  1  0.40991640  0.68134842  0.93091285  1
  Zn  Zn116  1  0.96676724  0.17386923  0.43405305  1
  Zn  Zn117  1  0.93716303  0.19298680  0.93756380  1
  Zn  Zn118  1  0.93146588  0.68852089  0.43789455  1
  Zn  Zn119  1  0.93446608  0.69751667  0.93029171  1
  Zn  Zn120  1  0.04735738  0.30752993  0.04945523  1
  Zn  Zn121  1  0.04811504  0.30569582  0.55824829  1
  Zn  Zn122  1  0.04792452  0.81084586  0.05852718  1
  Zn  Zn123  1  0.08183218  0.83594377  0.53958775  1
  Zn  Zn124  1  0.57465028  0.28570635  0.11174460  1
  Zn  Zn125  1  0.55230557  0.30782757  0.58669182  1
  Zn  Zn126  1  0.55014403  0.81308163  0.06449748  1
  Zn  Zn127  1  0.52904403  0.78051362  0.53428313  1
  O  O128  1  0.12259253  0.11571006  0.10766496  1
  O  O129  1  0.12009597  0.10136663  0.63296986  1
  O  O130  1  0.10886210  0.63792205  0.11034989  1
  O  O131  1  0.11750167  0.59872770  0.62586582  1
  O  O132  1  0.62219299  0.10507036  0.14467471  1
  O  O133  1  0.63437957  0.12838270  0.62214068  1
  O  O134  1  0.60474100  0.61545522  0.12562198  1
  O  O135  1  0.61779117  0.60690677  0.60220197  1
  O  O136  1  0.34360810  0.36770496  0.40252095  1
  O  O137  1  0.34651995  0.40258630  0.86613809  1
  O  O138  1  0.39122344  0.85858527  0.37525217  1
  O  O139  1  0.36327401  0.86498481  0.87475142  1
  O  O140  1  0.88234611  0.38511492  0.35794338  1
  O  O141  1  0.90278329  0.37928458  0.87472802  1
  O  O142  1  0.85996099  0.88676199  0.36657458  1
  O  O143  1  0.88783728  0.87684507  0.85854521  1
  O  O144  1  0.19477665  0.02268320  0.36394974  1
  O  O145  1  0.29200083  0.04309222  0.82157880  1
  O  O146  1  0.23027037  0.51331172  0.35686052  1
  O  O147  1  0.21701713  0.50176930  0.87034691  1
  O  O148  1  0.77086727  0.02051673  0.37081933  1
  O  O149  1  0.75078601  0.00026916  0.88497554  1
  O  O150  1  0.76719710  0.50522674  0.36995415  1
  O  O151  1  0.78874473  0.52581507  0.88758439  1
  O  O152  1  0.22903668  0.50764199  0.13089158  1
  O  O153  1  0.22552118  0.49280349  0.57552778  1
  O  O154  1  0.23382862  1.00395425  0.11562678  1
  O  O155  1  0.24724631  0.99800606  0.62561509  1
  O  O156  1  0.72888409  0.51671781  0.11031023  1
  O  O157  1  0.73108587  0.50922071  0.61084211  1
  O  O158  1  0.76828859  0.99421076  0.13958522  1
  O  O159  1  0.73801852  0.99867612  0.63248083  1
  O  O160  1  0.01671566  0.36283775  0.26086635  1
  O  O161  1  0.00355510  0.35670698  0.75125034  1
  O  O162  1  -0.00131511  0.86097047  0.24317855  1
  O  O163  1  0.01473293  0.88742748  0.76711310  1
  O  O164  1  0.46434347  0.41295412  0.29344882  1
  O  O165  1  0.49777647  0.39359837  0.78330646  1
  O  O166  1  0.50093779  0.85805291  0.25658810  1
  O  O167  1  0.52942403  0.85310683  0.76352840  1
  O  O168  1  0.49460095  0.19747886  0.29396069  1
  O  O169  1  0.45934596  0.19431695  0.79561454  1
  O  O170  1  0.48488647  0.62864809  0.24231447  1
  O  O171  1  0.51536889  0.62745616  0.74628875  1
  O  O172  1  1.00527309  0.13266505  0.24039402  1
  O  O173  1  0.99974645  0.13624126  0.73793558  1
  O  O174  1  0.98960971  0.63685463  0.24238023  1
  O  O175  1  1.00461652  0.66194211  0.71688812  1
  O  O176  1  0.35129676  0.25335873  -0.00679274  1
  O  O177  1  0.38569142  0.27492016  0.52173479  1
  O  O178  1  0.35713341  0.75520298  0.00799134  1
  O  O179  1  0.40238459  0.75578128  0.49878836  1
  O  O180  1  0.91713732  0.26354310  0.02500773  1
  O  O181  1  0.88322518  0.23120840  0.49897858  1
  O  O182  1  0.88116966  0.76185657  0.01686351  1
  O  O183  1  0.85278576  0.75656799  0.48788993  1
  O  O184  1  0.12497872  0.22356411  0.53959727  1
  O  O185  1  0.13085196  0.23441477  0.98640124  1
  O  O186  1  0.14830930  0.73573786  0.54707291  1
  O  O187  1  0.11422736  0.74434784  0.98574884  1
  O  O188  1  0.60781342  0.23720884  0.51025763  1
  O  O189  1  0.63343580  0.21961412  1.03687244  1
  O  O190  1  0.62923923  0.74036682  0.48052437  1
  O  O191  1  0.63472169  0.75612527  1.01339159  1
  O  O192  1  0.46743479  0.26364158  0.08541563  1
  O  O193  1  0.47657840  0.25820853  0.65232382  1
  O  O194  1  0.49191280  0.73644361  0.13241041  1
  O  O195  1  0.51226375  0.72269562  0.62505209  1
  O  O196  1  1.00974898  0.24349022  0.13906453  1
  O  O197  1  0.97406580  0.24725612  0.63704072  1
  O  O198  1  0.99199582  0.74193399  0.13246312  1
  O  O199  1  0.98098307  0.76945263  0.64278584  1
  O  O200  1  0.00843726  0.26132387  0.36324376  1
  O  O201  1  0.01085119  0.24507191  0.85909508  1
  O  O202  1  -0.01778221  0.75369031  0.36000752  1
  O  O203  1  0.00536600  0.77049072  0.87771511  1
  O  O204  1  0.47539011  0.24150086  0.34795961  1
  O  O205  1  0.56662838  0.29004777  0.91016750  1
  O  O206  1  0.51020833  0.74932203  0.36328747  1
  O  O207  1  0.49142553  0.77447492  0.91561675  1
  O  O208  1  0.22365721  0.11714832  0.48342226  1
  O  O209  1  0.23828722  0.11781479  0.98832560  1
  O  O210  1  0.34138008  0.72547526  0.55009242  1
  O  O211  1  0.23270558  0.63992931  1.00543902  1
  O  O212  1  0.72853283  0.11758251  0.48919492  1
  O  O213  1  0.72550524  0.08880028  1.01084904  1
  O  O214  1  0.73229954  0.63394369  0.47466712  1
  O  O215  1  0.76220836  0.65859298  0.98194571  1
  O  O216  1  0.23131199  0.36501519  -0.00253093  1
  O  O217  1  0.28969535  0.37530964  0.46468836  1
  O  O218  1  0.26264352  0.88460900  -0.00621528  1
  O  O219  1  0.27858371  0.89145764  0.49324474  1
  O  O220  1  0.83030034  0.41865653  0.01233318  1
  O  O221  1  0.72469162  0.37270860  0.47723914  1
  O  O222  1  0.73968690  0.87750731  0.03586856  1
  O  O223  1  0.74727475  0.85440502  0.49611687  1
  O  O224  1  0.12724746  0.51703521  0.23613122  1
  O  O225  1  0.12091068  0.48148532  0.72170974  1
  O  O226  1  0.11160132  0.99303991  0.22396345  1
  O  O227  1  0.13138732  0.99146488  0.74559467  1
  O  O228  1  0.62582756  0.48695733  0.23239950  1
  O  O229  1  0.63769954  0.50061691  0.74441446  1
  O  O230  1  0.61757584  0.98417541  0.24625925  1
  O  O231  1  0.56359438  0.94282494  0.87570279  1
  O  O232  1  0.31719093  -0.05400548  0.25420914  1
  O  O233  1  0.48653308  0.03930187  0.77776966  1
  O  O234  1  0.34549649  0.51568915  0.23393474  1
  O  O235  1  0.36062864  0.51891152  0.76528260  1
  O  O236  1  0.89040875  0.01362279  0.25601294  1
  O  O237  1  0.77271151  -0.02448955  0.69898499  1
  O  O238  1  0.88968713  0.51285702  0.26151836  1
  O  O239  1  0.87793966  0.55044559  0.73953302  1
  O  O240  1  0.12519850  0.37965274  0.38611762  1
  O  O241  1  0.11929453  0.36189305  0.84433754  1
  O  O242  1  0.12492299  0.83479018  0.42578338  1
  O  O243  1  0.12232549  0.86791547  0.86609480  1
  O  O244  1  0.60923262  0.36829609  0.33800437  1
  O  O245  1  0.69970248  0.39178021  0.86555600  1
  O  O246  1  0.62505041  0.86164165  0.35420744  1
  O  O247  1  0.62074796  0.90211006  0.89887511  1
  O  O248  1  0.36967130  0.13326030  0.11249578  1
  O  O249  1  0.38307116  0.13181848  0.59406807  1
  O  O250  1  0.37686455  0.63702964  0.12850443  1
  O  O251  1  0.39498376  0.60394569  0.64314625  1
  O  O252  1  0.89687211  0.12972889  0.13558255  1
  O  O253  1  0.87589363  0.12443860  0.62316108  1
  O  O254  1  0.88197638  0.63131460  0.12834452  1
  O  O255  1  0.86947131  0.59076079  0.67502712  1
  O  O256  1  0.25163224  0.24241894  0.10104917  1
  O  O257  1  0.27734382  0.25298321  0.64705488  1
  O  O258  1  0.25891985  0.75822478  0.13473332  1
  O  O259  1  0.31274165  0.77656937  0.59690037  1
  O  O260  1  0.78532565  0.23575015  0.12198094  1
  O  O261  1  0.77015546  0.23337526  0.62184032  1
  O  O262  1  0.75966396  0.75006332  0.11505380  1
  O  O263  1  0.74430702  0.72437567  0.60198486  1
  O  O264  1  0.24612674  0.21438431  0.36332968  1
  O  O265  1  0.23567346  0.25317010  0.87876651  1
  O  O266  1  0.25109338  0.73281048  0.40389745  1
  O  O267  1  0.22853667  0.75046114  0.87210595  1
  O  O268  1  0.77165865  0.22599574  0.37662911  1
  O  O269  1  0.72867033  0.22849603  0.89617405  1
  O  O270  1  0.73649577  0.73908095  0.36569597  1
  O  O271  1  0.74475256  0.79885599  0.90449668  1
  O  O272  1  0.00941777  0.11764457  0.00363139  1
  O  O273  1  0.00369728  0.11866965  0.53373951  1
  O  O274  1  -0.01050185  0.63020433  0.01167173  1
  O  O275  1  -0.01826200  0.60763957  0.49976997  1
  O  O276  1  0.51082334  0.12892627  -0.01199829  1
  O  O277  1  0.52577869  0.09676179  0.50346636  1
  O  O278  1  0.48376933  0.63086248  0.00894866  1
  O  O279  1  0.51573604  0.62146707  0.48986888  1
  O  O280  1  0.50622644  0.37596209  0.49532363  1
  O  O281  1  0.41301736  0.40379847  1.02688647  1
  O  O282  1  0.52179891  0.87596087  0.47583225  1
  O  O283  1  0.48213789  0.83264636  0.97005057  1
  O  O284  1  0.99756012  0.37042369  0.47877200  1
  O  O285  1  1.03873363  0.38321035  0.96637046  1
  O  O286  1  0.97250765  0.85709792  0.51019303  1
  O  O287  1  1.00442291  0.89251270  0.98304054  1
  O  O288  1  0.48161860  0.47285609  0.33914603  1
  O  O289  1  0.50938148  0.42838322  0.84728536  1
  O  O290  1  0.49015776  0.97940649  0.35921006  1
  O  O291  1  0.44451074  1.02862160  0.83922640  1
  O  O292  1  0.99801111  0.48972813  0.37918902  1
  O  O293  1  1.02009996  0.49088179  0.85039466  1
  O  O294  1  0.98625502  0.98911039  0.37545469  1
  O  O295  1  0.99765624  0.99929222  0.88279692  1
  O  O296  1  0.01128726  0.00744147  0.10741576  1
  O  O297  1  -0.02140978  0.00251378  0.64532486  1
  O  O298  1  0.00794325  0.52136067  0.13286615  1
  O  O299  1  0.00123134  0.48403422  0.60345684  1
  O  O300  1  0.48349434  0.01660234  0.16013037  1
  O  O301  1  0.56085969  -0.03493472  0.61075105  1
  O  O302  1  0.49235309  0.51614142  0.12550510  1
  O  O303  1  0.52014199  0.50916374  0.63643506  1
  O  O304  1  0.24407296  0.39264787  0.25623291  1
  O  O305  1  0.23621805  0.37507868  0.73559742  1
  O  O306  1  0.26761185  0.88811121  0.26218843  1
  O  O307  1  0.23509523  0.87207209  0.74853086  1
  O  O308  1  0.74859739  0.37051032  0.25257769  1
  O  O309  1  0.85014373  0.46738407  0.73039928  1
  O  O310  1  0.73320218  0.86130089  0.23021890  1
  O  O311  1  0.73591066  0.91323090  0.73319731  1
  O  O312  1  0.26230226  0.11052612  0.24910524  1
  O  O313  1  0.30539671  0.08535333  0.76405203  1
  O  O314  1  0.25363408  0.63179218  0.24589533  1
  O  O315  1  0.24574812  0.64251313  0.71938992  1
  O  O316  1  0.77786544  0.13041106  0.25462348  1
  O  O317  1  0.74785257  0.11877983  0.77782996  1
  O  O318  1  0.76109170  0.62916799  0.25241866  1
  O  O319  1  0.73243602  0.63825113  0.76686509  1
  O  O320  1  0.35580877  0.09213877  0.38416287  1
  O  O321  1  0.41907587  0.22960320  0.84656469  1
  O  O322  1  0.37136537  0.62252600  0.35229910  1
  O  O323  1  0.34573997  0.62609685  0.85615835  1
  O  O324  1  0.89038813  0.11506569  0.36432155  1
  O  O325  1  0.84978560  0.13183073  0.90393292  1
  O  O326  1  0.86482740  0.62012433  0.36512197  1
  O  O327  1  0.85692850  0.66694688  0.85787659  1
  O  O328  1  0.10694289  0.39819260  0.11466608  1
  O  O329  1  0.11753366  0.37092815  0.62579770  1
  O  O330  1  0.12425180  0.88920654  0.09385511  1
  O  O331  1  0.11399474  0.88991254  0.63905937  1
  O  O332  1  0.61627976  0.39119952  0.13137610  1
  O  O333  1  0.62377008  0.38670060  0.62754485  1
  O  O334  1  0.60067711  0.89213455  0.13437343  1
  O  O335  1  0.60014117  0.82737696  0.73337484  1
  O  O336  1  0.12447902  0.23857138  0.24454003  1
  O  O337  1  0.12536508  0.25363565  0.74418717  1
  O  O338  1  0.10666083  0.74712717  0.25528195  1
  O  O339  1  0.12274372  0.76308369  0.75387471  1
  O  O340  1  0.62535594  0.27017643  0.21531335  1
  O  O341  1  0.64338878  0.26591789  0.76456701  1
  O  O342  1  0.61316860  0.74936416  0.24628902  1
  O  O343  1  0.63399931  0.77207314  0.77147934  1
  O  O344  1  0.36073663  0.26975882  0.20994481  1
  O  O345  1  0.32581071  0.23775984  0.71551740  1
  O  O346  1  0.37687396  0.74070154  0.24171424  1
  O  O347  1  0.37768652  0.73028790  0.74464919  1
  O  O348  1  0.89861684  0.23597487  0.24485725  1
  O  O349  1  0.88030238  0.24806065  0.76150665  1
  O  O350  1  0.87970785  0.74053189  0.23748236  1
  O  O351  1  0.96656687  0.72580043  0.71102776  1
  O  O352  1  0.39214550  0.49418921  0.48593602  1
  O  O353  1  0.34869366  0.52364061  0.96761898  1
  O  O354  1  0.42499070  0.98568413  0.52448436  1
  O  O355  1  0.39152537  0.97367989  0.99886164  1
  O  O356  1  0.88234949  0.48765621  0.47953709  1
  O  O357  1  0.87276395  0.47789591  1.02451236  1
  O  O358  1  0.86445441  0.97977070  0.48724416  1
  O  O359  1  0.88985869  1.00652572  1.00683463  1
  O  O360  1  0.11716566  0.01223041  -0.00536155  1
  O  O361  1  0.12273455  0.00116688  0.52314051  1
  O  O362  1  0.12224187  0.52553524  0.01384468  1
  O  O363  1  0.10076651  0.49731081  0.49903712  1
  O  O364  1  0.59075297  0.00581670  0.03192260  1
  O  O365  1  0.62104331  -0.00071448  0.45958199  1
  O  O366  1  0.60755177  0.48872110  0.01266319  1
  O  O367  1  0.62158376  0.50610926  0.47453888  1
  O  O368  1  0.37498356  0.39338698  0.09043896  1
  O  O369  1  0.38136024  0.40521762  0.61022672  1
  O  O370  1  0.38844816  0.85468773  0.11565951  1
  O  O371  1  0.38593164  0.90798786  0.67987999  1
  O  O372  1  0.88870567  0.36017311  0.14827967  1
  O  O373  1  0.86628422  0.35910143  0.60231238  1
  O  O374  1  0.87164351  0.87122748  0.13925044  1
  O  O375  1  0.85833812  0.87693176  0.61265066  1
  O  O376  1  0.08144114  0.12708218  0.40827361  1
  O  O377  1  0.12112509  0.12872629  0.87684372  1
  O  O378  1  0.10810547  0.65480723  0.39708241  1
  O  O379  1  0.11382461  0.63852376  0.88369977  1
  O  O380  1  0.64399652  0.13410239  0.35483265  1
  O  O381  1  0.63576376  0.11461608  0.90102829  1
  O  O382  1  0.62700554  0.62569830  0.36581357  1
  O  O383  1  0.65290248  0.60345181  0.89385045  1
