# generated using pymatgen
data_VZnO4
_symmetry_space_group_name_H-M   'P 1'
_cell_length_a   17.07021229
_cell_length_b   17.02385909
_cell_length_c   17.05416409
_cell_angle_alpha   89.45312909
_cell_angle_beta   89.71485642
_cell_angle_gamma   90.87449716
_symmetry_Int_Tables_number   1
_chemical_formula_structural   VZnO4
_chemical_formula_sum   'V64 Zn64 O256'
_cell_volume   4955.08724764
_cell_formula_units_Z   64
loop_
 _symmetry_equiv_pos_site_id
 _symmetry_equiv_pos_as_xyz
  1  'x, y, z'
loop_
 _atom_site_type_symbol
 _atom_site_label
 _atom_site_symmetry_multiplicity
 _atom_site_fract_x
 _atom_site_fract_y
 _atom_site_fract_z
 _atom_site_occupancy
  V  V0  1  0.46582126  0.74092347  0.74397874  1
  V  V1  1  0.89828157  0.12999246  0.27205716  1
  V  V2  1  0.75895759  0.30614706  -0.00555474  1
  V  V3  1  0.37273294  0.50585139  0.37344555  1
  V  V4  1  0.75356046  0.50291766  0.73307270  1
  V  V5  1  0.61597215  0.01029703  0.62153080  1
  V  V6  1  0.61333674  0.50990722  0.60870347  1
  V  V7  1  0.51430640  0.86308084  0.38955194  1
  V  V8  1  0.38588041  0.37661102  0.01575456  1
  V  V9  1  0.55953866  0.05726337  0.04167399  1
  V  V10  1  0.26385251  0.88583261  0.12098666  1
  V  V11  1  0.13701123  0.71340352  0.89091291  1
  V  V12  1  0.23693015  0.37708133  0.13137062  1
  V  V13  1  0.48259350  0.24046503  0.75403487  1
  V  V14  1  0.88330630  0.63015751  0.21320204  1
  V  V15  1  0.74336990  0.01889067  0.73731178  1
  V  V16  1  0.02339341  0.26562061  0.25165162  1
  V  V17  1  0.76066789  0.62815736  0.85726001  1
  V  V18  1  0.12503118  0.73471222  0.37461082  1
  V  V19  1  0.40150224  0.14169304  0.24729689  1
  V  V20  1  0.10301839  0.39487414  0.76765973  1
  V  V21  1  0.37742000  -0.01752551  0.35511945  1
  V  V22  1  0.86383346  -0.01607316  0.38466124  1
  V  V23  1  0.25361420  0.23597602  -0.00205269  1
  V  V24  1  0.75533687  0.75024989  -0.00180122  1
  V  V25  1  0.88850505  0.63543507  0.71720954  1
  V  V26  1  0.64173489  0.86846742  0.21173971  1
  V  V27  1  0.63160703  0.61275030  0.00191595  1
  V  V28  1  -0.02110298  0.86390984  0.84366429  1
  V  V29  1  0.01227389  0.00648782  0.49835224  1
  V  V30  1  0.74983226  0.63250896  0.38200895  1
  V  V31  1  0.72303207  0.11437098  0.38853092  1
  V  V32  1  0.11149041  0.90159146  0.73880513  1
  V  V33  1  0.15009575  0.28590222  0.41072194  1
  V  V34  1  0.24048146  0.74092288  0.50338308  1
  V  V35  1  0.87628751  0.26840360  0.64164680  1
  V  V36  1  0.10037975  0.24451650  0.88653118  1
  V  V37  1  0.62493556  0.74499266  0.86054381  1
  V  V38  1  0.48147837  0.12090567  0.62773522  1
  V  V39  1  0.73209514  0.32811970  0.17648181  1
  V  V40  1  0.25549049  0.11763727  0.37628413  1
  V  V41  1  0.62446034  0.37806977  0.73684239  1
  V  V42  1  0.26500155  0.60583270  0.90653977  1
  V  V43  1  0.49883427  0.62033136  0.12258196  1
  V  V44  1  0.31341881  0.05034908  0.85004182  1
  V  V45  1  0.00171790  0.76007882  0.22985333  1
  V  V46  1  0.25939336  0.36207502  0.65888283  1
  V  V47  1  0.47957717  0.62527485  0.61481982  1
  V  V48  1  0.35824918  0.87786955  0.50398502  1
  V  V49  1  0.74095430  0.26989032  0.49845523  1
  V  V50  1  0.48288458  0.86870160  0.87509061  1
  V  V51  1  0.38612803  0.49839516  0.85500283  1
  V  V52  1  0.75115945  -0.00070118  0.23290598  1
  V  V53  1  0.86943380  0.87639730  -0.00283103  1
  V  V54  1  0.87815569  0.00812154  0.85820343  1
  V  V55  1  0.74350253  0.12161832  0.88296891  1
  V  V56  1  0.88048312  0.23749637  0.10479902  1
  V  V57  1  0.88606160  0.49610010  0.38348423  1
  V  V58  1  0.50429036  0.75527229  0.23392874  1
  V  V59  1  0.23341679  0.88261715  0.62627183  1
  V  V60  1  0.63560069  0.24942121  0.86895459  1
  V  V61  1  0.01283567  0.88479510  0.36977572  1
  V  V62  1  0.50473512  0.37623912  0.87724906  1
  V  V63  1  0.63704609  0.86951519  0.74069702  1
  Zn  Zn64  1  0.22455878  0.21783616  0.20793847  1
  Zn  Zn65  1  0.21398372  0.20760753  0.74293538  1
  Zn  Zn66  1  0.19150481  0.70747692  0.19739733  1
  Zn  Zn67  1  0.24492777  0.73252890  0.74072773  1
  Zn  Zn68  1  0.71334758  0.14828113  0.15857508  1
  Zn  Zn69  1  0.68944552  0.19625101  0.67033205  1
  Zn  Zn70  1  0.69287049  0.68722695  0.18428916  1
  Zn  Zn71  1  0.68213337  0.68513103  0.67098317  1
  Zn  Zn72  1  0.32283063  0.30585093  0.31349924  1
  Zn  Zn73  1  0.31407911  0.30970496  0.83130334  1
  Zn  Zn74  1  0.31243991  0.79316507  0.30451065  1
  Zn  Zn75  1  0.30668128  0.79320821  0.93623424  1
  Zn  Zn76  1  0.83365589  0.29169947  0.35471980  1
  Zn  Zn77  1  0.80632964  0.32083704  0.80945422  1
  Zn  Zn78  1  0.81469124  0.81008115  0.29950638  1
  Zn  Zn79  1  0.81228400  0.80643332  0.78821602  1
  Zn  Zn80  1  0.18228296  0.47636743  0.45771059  1
  Zn  Zn81  1  0.20888024  0.41214724  0.92437794  1
  Zn  Zn82  1  0.18875107  0.94704329  0.43110698  1
  Zn  Zn83  1  0.16518459  0.91169105  0.93486664  1
  Zn  Zn84  1  0.68826014  0.45815940  0.42389936  1
  Zn  Zn85  1  0.69160650  0.44439035  0.91703938  1
  Zn  Zn86  1  0.68736119  0.93592850  0.44949771  1
  Zn  Zn87  1  0.68300386  0.93435333  0.92891725  1
  Zn  Zn88  1  0.36945304  0.06491665  0.05947679  1
  Zn  Zn89  1  0.31041277  0.05676416  0.56031399  1
  Zn  Zn90  1  0.32568261  0.54474239  0.07003607  1
  Zn  Zn91  1  0.26855507  0.59416885  0.62213482  1
  Zn  Zn92  1  0.83200032  0.06174808  0.04721347  1
  Zn  Zn93  1  0.81522821  0.07053299  0.56519225  1
  Zn  Zn94  1  0.76298494  0.51268376  0.24521276  1
  Zn  Zn95  1  0.81017778  0.55413246  0.55001384  1
  Zn  Zn96  1  0.44811295  0.44512121  0.18687425  1
  Zn  Zn97  1  0.44098506  0.43318834  0.68410620  1
  Zn  Zn98  1  0.45658873  0.93725774  0.17655887  1
  Zn  Zn99  1  0.44700089  0.95625815  0.73201793  1
  Zn  Zn100  1  0.90859602  0.40828763  0.22374097  1
  Zn  Zn101  1  0.94115054  0.44353979  0.67833227  1
  Zn  Zn102  1  0.93136883  0.93791464  0.19064408  1
  Zn  Zn103  1  0.93201698  0.96184604  0.68098556  1
  Zn  Zn104  1  0.04699608  0.12592736  0.36958362  1
  Zn  Zn105  1  0.15027797  0.06365419  0.83539285  1
  Zn  Zn106  1  0.05124672  0.57080949  0.30312497  1
  Zn  Zn107  1  0.09916722  0.60086763  0.72938324  1
  Zn  Zn108  1  0.56251261  0.03974079  0.30103900  1
  Zn  Zn109  1  0.53821942  0.07301555  0.84297558  1
  Zn  Zn110  1  0.55523925  0.58278171  0.32031304  1
  Zn  Zn111  1  0.56168566  0.56477539  0.79952057  1
  Zn  Zn112  1  0.41172590  0.15444070  0.45503066  1
  Zn  Zn113  1  0.44343509  0.19023455  0.95258430  1
  Zn  Zn114  1  0.43115526  0.70139963  0.43850125  1
  Zn  Zn115  1  0.44716956  0.68056611  0.93970425  1
  Zn  Zn116  1  0.93133625  0.19115994  0.51063671  1
  Zn  Zn117  1  0.92326287  0.19152470  0.93614151  1
  Zn  Zn118  1  0.93488724  0.69041246  0.40415921  1
  Zn  Zn119  1  0.93906085  0.69114701  0.92360881  1
  Zn  Zn120  1  0.08782255  0.27313982  0.09157987  1
  Zn  Zn121  1  0.08256693  0.29432717  0.60477100  1
  Zn  Zn122  1  0.04498019  0.80596663  0.02679287  1
  Zn  Zn123  1  0.06169508  0.82085346  0.54727096  1
  Zn  Zn124  1  0.57770876  0.23505217  0.08242518  1
  Zn  Zn125  1  0.56115520  0.29720289  0.57117051  1
  Zn  Zn126  1  0.56702681  0.80413060  0.04695477  1
  Zn  Zn127  1  0.52411053  0.83449955  0.58844195  1
  O  O128  1  0.10553658  0.07479008  0.10309769  1
  O  O129  1  0.07350191  0.13652944  0.66307021  1
  O  O130  1  0.15214730  0.60049315  0.16645767  1
  O  O131  1  0.20062986  0.63729065  0.69680525  1
  O  O132  1  0.61979689  0.12039029  0.10078599  1
  O  O133  1  0.61572132  0.11296743  0.63147509  1
  O  O134  1  0.63996948  0.62408981  0.10252661  1
  O  O135  1  0.60857108  0.61431528  0.62026289  1
  O  O136  1  0.36813857  0.40138081  0.36333249  1
  O  O137  1  0.38810582  0.38784938  0.87253914  1
  O  O138  1  0.36214101  0.87651509  0.37249713  1
  O  O139  1  0.38410913  0.85606195  0.87543245  1
  O  O140  1  0.87174349  0.40060875  0.33791808  1
  O  O141  1  0.77820809  0.36957178  0.91038799  1
  O  O142  1  0.87585515  0.88290583  0.36963417  1
  O  O143  1  0.87142137  0.88939766  0.84625083  1
  O  O144  1  0.26775792  0.00757851  0.37024822  1
  O  O145  1  0.22439582  -0.00656538  0.88634706  1
  O  O146  1  0.26865612  0.51140496  0.37711977  1
  O  O147  1  0.27411566  0.50061997  0.88064129  1
  O  O148  1  0.75574720  -0.01122244  0.37072509  1
  O  O149  1  0.74427851  0.01039762  0.85565267  1
  O  O150  1  0.76598783  0.51365070  0.36130377  1
  O  O151  1  0.74278851  0.52310186  0.84792180  1
  O  O152  1  0.26909818  0.47406108  0.13780471  1
  O  O153  1  0.24232429  0.47679526  0.61876975  1
  O  O154  1  0.28221618  0.98833498  0.12531117  1
  O  O155  1  0.24556057  0.98196307  0.61790437  1
  O  O156  1  0.71716600  0.42541089  0.19983124  1
  O  O157  1  0.72925992  0.51062860  0.62932655  1
  O  O158  1  0.76594780  1.01971519  0.13514753  1
  O  O159  1  0.73657389  1.00854110  0.63254009  1
  O  O160  1  0.01706021  0.36311657  0.24620642  1
  O  O161  1  0.00358129  0.38921535  0.75626577  1
  O  O162  1  -0.00852936  0.86773969  0.25954279  1
  O  O163  1  0.00086614  0.88768938  0.73366869  1
  O  O164  1  0.52419868  0.38724548  0.25560362  1
  O  O165  1  0.50669674  0.35882554  0.75447855  1
  O  O166  1  0.52943298  0.86935008  0.23682124  1
  O  O167  1  0.49788280  0.84916694  0.74891449  1
  O  O168  1  0.49804544  0.11112501  0.24497075  1
  O  O169  1  0.50349756  0.13757393  0.75292397  1
  O  O170  1  0.51424029  0.64540286  0.23631285  1
  O  O171  1  0.49643598  0.63907326  0.74112056  1
  O  O172  1  0.99606946  0.10857345  0.26746009  1
  O  O173  1  1.01543720  0.12448203  0.70469974  1
  O  O174  1  0.99205858  0.64781370  0.24293443  1
  O  O175  1  0.98696885  0.62207884  0.73321407  1
  O  O176  1  0.36084660  0.27114531  -0.01975032  1
  O  O177  1  0.41545362  0.27817964  0.47450675  1
  O  O178  1  0.37843996  0.74088685  -0.00011511  1
  O  O179  1  0.34704302  0.76463461  0.48174463  1
  O  O180  1  0.86362364  0.28243808  0.00227913  1
  O  O181  1  0.84750823  0.25633020  0.46723016  1
  O  O182  1  0.86198081  0.75875674  -0.01915397  1
  O  O183  1  0.89486002  0.82678664  0.58412783  1
  O  O184  1  0.12965410  0.26387955  0.50550475  1
  O  O185  1  0.13801573  0.25087354  0.99495358  1
  O  O186  1  0.12964796  0.75472076  0.48438475  1
  O  O187  1  0.05008014  0.71544735  0.95425464  1
  O  O188  1  0.64421946  0.24146622  0.52382559  1
  O  O189  1  0.65372243  0.26639511  0.97404121  1
  O  O190  1  0.70279102  0.79325692  0.54231760  1
  O  O191  1  0.64056204  0.74399153  0.97712351  1
  O  O192  1  0.48283848  0.18733052  0.05731980  1
  O  O193  1  0.49713148  0.23527198  0.64573765  1
  O  O194  1  0.51700188  0.74103170  0.12817702  1
  O  O195  1  0.49038559  0.73842871  0.63726727  1
  O  O196  1  0.98031990  0.25355779  0.13741249  1
  O  O197  1  0.97618228  0.26182127  0.59816362  1
  O  O198  1  1.01899978  0.77234135  0.13335543  1
  O  O199  1  0.99533288  0.71700363  0.57228990  1
  O  O200  1  0.06712522  0.24711571  0.35184189  1
  O  O201  1  0.00239924  0.26315734  0.90268876  1
  O  O202  1  0.01128192  0.76810799  0.37558320  1
  O  O203  1  -0.03324541  0.76825459  0.83438650  1
  O  O204  1  0.55776444  0.24023260  0.36652802  1
  O  O205  1  0.51774211  0.25371775  0.86214432  1
  O  O206  1  0.49659777  0.76263931  0.35871178  1
  O  O207  1  0.50545134  0.74874042  0.85647205  1
  O  O208  1  0.29601252  0.13279468  0.47595431  1
  O  O209  1  0.26511063  0.14067027  1.00749639  1
  O  O210  1  0.24540633  0.64229302  0.51525235  1
  O  O211  1  0.26611760  0.61579571  1.00481906  1
  O  O212  1  0.74104086  0.09627164  0.48518812  1
  O  O213  1  0.74473604  0.11051874  0.97985965  1
  O  O214  1  0.74684189  0.61891677  0.48144872  1
  O  O215  1  0.74394967  0.63860445  0.96874418  1
  O  O216  1  0.27005170  0.37919539  0.01557711  1
  O  O217  1  0.24013165  0.43011287  0.55142187  1
  O  O218  1  0.27418811  0.88525514  0.01795389  1
  O  O219  1  0.24697640  0.87649949  0.50234111  1
  O  O220  1  0.73906516  0.37870348  0.05515002  1
  O  O221  1  0.73177497  0.36563363  0.47532120  1
  O  O222  1  0.75847651  0.85942795  -0.02192698  1
  O  O223  1  0.74747878  0.84688218  0.50436277  1
  O  O224  1  0.13158785  0.54551477  0.21577608  1
  O  O225  1  0.12186625  0.49315777  0.76562649  1
  O  O226  1  0.06672165  1.02760442  0.14608624  1
  O  O227  1  0.12402847  0.99825680  0.73955665  1
  O  O228  1  0.57627756  0.43535570  0.29075497  1
  O  O229  1  0.62800424  0.49486660  0.73612766  1
  O  O230  1  0.64125863  0.97641622  0.24188073  1
  O  O231  1  0.63661340  0.98735360  0.74156016  1
  O  O232  1  0.38594834  -0.01278915  0.25558434  1
  O  O233  1  0.35360870  -0.00425669  0.77808457  1
  O  O234  1  0.37712083  0.50432130  0.26690263  1
  O  O235  1  0.38036037  0.50265308  0.75761295  1
  O  O236  1  0.86328868  0.00447763  0.25768592  1
  O  O237  1  0.85248535  0.00484190  0.74757622  1
  O  O238  1  0.88493609  0.52227879  0.23144065  1
  O  O239  1  0.85640983  0.51099075  0.73216621  1
  O  O240  1  0.15290263  0.38502589  0.39954371  1
  O  O241  1  0.11911611  0.37401234  0.87420407  1
  O  O242  1  0.11245175  0.88984919  0.36372208  1
  O  O243  1  0.08921937  0.88374984  0.84494656  1
  O  O244  1  0.60727566  0.40309014  0.35551699  1
  O  O245  1  0.61887480  0.37295270  0.85706463  1
  O  O246  1  0.61224865  0.86786049  0.39440122  1
  O  O247  1  0.62384737  0.86147995  0.85331168  1
  O  O248  1  0.36788045  0.12760234  0.15316001  1
  O  O249  1  0.38346488  0.10642433  0.63590858  1
  O  O250  1  0.40048893  0.61908421  0.11666332  1
  O  O251  1  0.38184271  0.61113963  0.62573075  1
  O  O252  1  0.85681361  0.15616071  0.18038525  1
  O  O253  1  0.87562511  0.15246667  0.60817901  1
  O  O254  1  0.88799974  0.63732270  0.11885382  1
  O  O255  1  0.87145343  0.61601407  0.62114639  1
  O  O256  1  0.24932853  0.26162822  0.10321019  1
  O  O257  1  0.24233074  0.26072287  0.64750067  1
  O  O258  1  0.23526194  0.78369259  0.11550791  1
  O  O259  1  0.23911873  0.77064440  0.60400268  1
  O  O260  1  0.76373890  0.23347528  0.09608673  1
  O  O261  1  0.76770630  0.25601606  0.60666117  1
  O  O262  1  0.75011735  0.74563711  0.09503470  1
  O  O263  1  0.74507490  0.75024988  0.59385035  1
  O  O264  1  0.24362912  0.24971416  0.38158931  1
  O  O265  1  0.23349411  0.25834845  0.89158838  1
  O  O266  1  0.22756059  0.75959918  0.38216606  1
  O  O267  1  0.19040430  0.79515904  0.93146820  1
  O  O268  1  0.72563485  0.21787287  0.39442180  1
  O  O269  1  0.75317492  0.22869524  0.86738102  1
  O  O270  1  0.77136038  0.73176852  0.36907940  1
  O  O271  1  0.74119585  0.74014776  0.85758493  1
  O  O272  1  -0.09488794  0.14836226  0.04090306  1
  O  O273  1  -0.00232709  0.11038239  0.47098035  1
  O  O274  1  -0.06386748  0.56795430  -0.02393408  1
  O  O275  1  -0.02101826  0.66654105  0.51936381  1
  O  O276  1  0.52206509  0.09545119  -0.04616060  1
  O  O277  1  0.49244093  0.13149748  0.52827742  1
  O  O278  1  0.52457825  0.63025245  0.00958245  1
  O  O279  1  0.48990471  0.64395465  0.51577207  1
  O  O280  1  0.47918705  0.31855282  0.48219772  1
  O  O281  1  0.49328764  0.36084891  0.97824179  1
  O  O282  1  0.47651007  0.85500100  0.48965936  1
  O  O283  1  0.51085379  0.86261695  0.97085467  1
  O  O284  1  1.04792073  0.48580895  0.55110829  1
  O  O285  1  0.98152177  0.41319823  1.03462843  1
  O  O286  1  1.00135354  0.88937867  0.47928338  1
  O  O287  1  0.96910767  0.86751225  0.95699489  1
  O  O288  1  0.47729781  0.51018117  0.36905115  1
  O  O289  1  0.49721246  0.48860770  0.86228133  1
  O  O290  1  0.49026048  0.96517318  0.36503837  1
  O  O291  1  0.50099273  0.96667954  0.84174957  1
  O  O292  1  0.98684818  0.50854297  0.37005987  1
  O  O293  1  1.08052354  0.56841426  1.03015541  1
  O  O294  1  0.98344642  0.98917126  0.37549060  1
  O  O295  1  0.97462495  1.00271315  0.85323799  1
  O  O296  1  -0.00458283  0.00244548  0.11627567  1
  O  O297  1  -0.01236209  0.00310343  0.59501546  1
  O  O298  1  -0.03958986  0.45571598  0.08849353  1
  O  O299  1  0.01972588  0.51645087  0.61824575  1
  O  O300  1  0.47911117  0.00975889  0.09237600  1
  O  O301  1  0.50680215  0.01068044  0.64640192  1
  O  O302  1  0.51740338  0.52323854  0.14089445  1
  O  O303  1  0.50434419  0.51247343  0.62711029  1
  O  O304  1  0.25382473  0.33801448  0.22854905  1
  O  O305  1  0.25124715  0.37623810  0.76007632  1
  O  O306  1  0.25676459  0.87356780  0.22424672  1
  O  O307  1  0.21779736  0.85933606  0.73213074  1
  O  O308  1  0.75699227  0.28457524  0.26261461  1
  O  O309  1  0.73934718  0.39707304  0.74799759  1
  O  O310  1  0.74978775  0.88387245  0.23754448  1
  O  O311  1  0.73762840  0.88009708  0.73864198  1
  O  O312  1  0.27645107  0.14227303  0.27479241  1
  O  O313  1  0.24925277  0.11530703  0.79310956  1
  O  O314  1  0.28203576  0.69489223  0.25466159  1
  O  O315  1  0.26804578  0.70033739  0.85820457  1
  O  O316  1  0.73290823  0.09932582  0.26501982  1
  O  O317  1  0.74205312  0.11864766  0.74611852  1
  O  O318  1  0.77349795  0.62947969  0.23710393  1
  O  O319  1  0.74877319  0.62167810  0.74340056  1
  O  O320  1  0.39058628  0.09768940  0.35869164  1
  O  O321  1  0.38311819  0.12681954  0.87640290  1
  O  O322  1  0.37370328  0.60943655  0.37944090  1
  O  O323  1  0.38149104  0.60009349  0.88655690  1
  O  O324  1  0.85406461  0.10597582  0.36463367  1
  O  O325  1  0.85990258  0.11328657  0.87186889  1
  O  O326  1  0.86885575  0.61106198  0.36958454  1
  O  O327  1  0.86138409  0.63512768  0.85071217  1
  O  O328  1  0.13842576  0.37850365  0.11847448  1
  O  O329  1  0.13441083  0.37050546  0.66469507  1
  O  O330  1  0.16464363  0.91407977  0.11615630  1
  O  O331  1  0.12083365  0.87630156  0.62751360  1
  O  O332  1  0.63804118  0.29042132  0.15557103  1
  O  O333  1  0.60436840  0.38811669  0.63214421  1
  O  O334  1  0.63793981  0.86922451  0.11427694  1
  O  O335  1  0.60856450  0.88643399  0.63951524  1
  O  O336  1  0.10923366  0.23076227  0.20384928  1
  O  O337  1  0.11843747  0.25939550  0.78148056  1
  O  O338  1  0.10920373  0.75259501  0.26409599  1
  O  O339  1  0.11659375  0.72948677  0.79618930  1
  O  O340  1  0.57546749  0.24894773  0.29787779  1
  O  O341  1  0.63840649  0.26498217  0.75271582  1
  O  O342  1  0.63300613  0.76701689  0.24076050  1
  O  O343  1  0.63049995  0.75978123  0.74422518  1
  O  O344  1  0.40374157  0.24051274  0.27069443  1
  O  O345  1  0.38604421  0.24548884  0.76675192  1
  O  O346  1  0.40859648  0.77166181  0.23908661  1
  O  O347  1  0.36880603  0.74332758  0.74283169  1
  O  O348  1  0.92264921  0.23536093  0.29356770  1
  O  O349  1  0.87263947  0.26237449  0.74214359  1
  O  O350  1  0.89251941  0.74564005  0.24235504  1
  O  O351  1  0.86529140  0.73346134  0.72271883  1
  O  O352  1  0.37906688  0.48909756  0.47428873  1
  O  O353  1  0.38977882  0.47779338  0.99746533  1
  O  O354  1  0.37297872  0.97930992  0.48379693  1
  O  O355  1  0.35726469  1.02331629  0.95416519  1
  O  O356  1  0.87290828  0.48686622  0.48219754  1
  O  O357  1  0.92980879  0.51086716  0.93134896  1
  O  O358  1  0.87236755  0.99803208  0.48422676  1
  O  O359  1  0.85929528  0.98160547  0.96757930  1
  O  O360  1  0.09378293  -0.09125669  0.02169792  1
  O  O361  1  0.11134852  0.00191533  0.49426216  1
  O  O362  1  0.11526376  0.50604098  0.02660107  1
  O  O363  1  0.10207988  0.53485534  0.51625440  1
  O  O364  1  0.62225682  -0.01130002  0.00526530  1
  O  O365  1  0.62016434  -0.01219246  0.52539399  1
  O  O366  1  0.63840002  0.51562522  -0.01495969  1
  O  O367  1  0.62227044  0.49380945  0.51173695  1
  O  O368  1  0.39989230  0.37090562  0.11503407  1
  O  O369  1  0.35922380  0.37003027  0.64233523  1
  O  O370  1  0.36596425  0.87149464  0.12843797  1
  O  O371  1  0.35620915  0.87531913  0.60563463  1
  O  O372  1  0.85410234  0.33147781  0.15534661  1
  O  O373  1  0.87322542  0.36950506  0.62608210  1
  O  O374  1  0.88215036  0.88665103  0.09394224  1
  O  O375  1  0.85775282  0.87653227  0.62209009  1
  O  O376  1  0.15746265  0.11055562  0.38213596  1
  O  O377  1  0.09532646  0.14298295  0.88493444  1
  O  O378  1  0.11913648  0.63584918  0.37312299  1
  O  O379  1  0.15813313  0.60856882  0.89469207  1
  O  O380  1  0.62653149  0.08892471  0.38036576  1
  O  O381  1  0.63824328  0.13747796  0.86142907  1
  O  O382  1  0.65254977  0.61639903  0.35145700  1
  O  O383  1  0.62573096  0.63515283  0.86989875  1
