# generated using pymatgen
data_VZnO4
_symmetry_space_group_name_H-M   'P 1'
_cell_length_a   16.87126374
_cell_length_b   16.95083644
_cell_length_c   16.83420088
_cell_angle_alpha   90.12559778
_cell_angle_beta   90.14772930
_cell_angle_gamma   89.91542465
_symmetry_Int_Tables_number   1
_chemical_formula_structural   VZnO4
_chemical_formula_sum   'V64 Zn64 O256'
_cell_volume   4814.24620030
_cell_formula_units_Z   64
loop_
 _symmetry_equiv_pos_site_id
 _symmetry_equiv_pos_as_xyz
  1  'x, y, z'
loop_
 _atom_site_type_symbol
 _atom_site_label
 _atom_site_symmetry_multiplicity
 _atom_site_fract_x
 _atom_site_fract_y
 _atom_site_fract_z
 _atom_site_occupancy
  V  V0  1  0.36968127  0.36626224  0.01321932  1
  V  V1  1  0.92972533  0.19878356  0.13888034  1
  V  V2  1  -0.00698291  -0.00733880  -0.02292056  1
  V  V3  1  0.37812112  0.49889506  0.87405987  1
  V  V4  1  0.47948924  0.88329534  0.37389536  1
  V  V5  1  0.11920679  0.12009215  -0.02201769  1
  V  V6  1  0.48522723  0.25856090  0.25698298  1
  V  V7  1  0.87327034  0.09841743  0.73963612  1
  V  V8  1  0.87250003  0.35672832  0.49388041  1
  V  V9  1  0.27873075  0.26110706  0.48798087  1
  V  V10  1  0.10909917  0.35526727  0.75242801  1
  V  V11  1  0.84032820  0.94181645  0.48056226  1
  V  V12  1  0.87795697  0.65196326  0.25897709  1
  V  V13  1  0.62706726  0.36878260  0.74288088  1
  V  V14  1  0.49166126  0.62400758  0.61760844  1
  V  V15  1  0.75022937  0.86117619  0.14747293  1
  V  V16  1  0.50623843  0.73598005  0.25443250  1
  V  V17  1  0.64146486  0.63408887  -0.00373254  1
  V  V18  1  0.36101753  0.62580702  0.25648698  1
  V  V19  1  0.49847298  -0.01143135  0.03129963  1
  V  V20  1  0.11513910  0.50646639  0.61928438  1
  V  V21  1  0.01161675  0.01235945  0.49556862  1
  V  V22  1  0.12210605  -0.00421442  0.12332364  1
  V  V23  1  0.23590591  0.62396713  0.88035023  1
  V  V24  1  0.12811424  0.37417820  0.23550178  1
  V  V25  1  0.64049747  0.62365850  0.49504294  1
  V  V26  1  0.25570608  0.22906061  -0.00401472  1
  V  V27  1  0.50282358  0.50986049  0.00482310  1
  V  V28  1  0.24475837  0.87438172  0.13572549  1
  V  V29  1  0.86365752  0.87486197  -0.01975881  1
  V  V30  1  0.24036769  0.49109120  0.74506516  1
  V  V31  1  0.63397324  0.15590065  0.50482626  1
  V  V32  1  0.75625833  0.36962412  0.11354009  1
  V  V33  1  0.37400453  0.86549508  0.53147355  1
  V  V34  1  0.63083848  0.49200157  0.62737250  1
  V  V35  1  0.76694680  0.50437387  0.26452415  1
  V  V36  1  0.52833897  0.75612684  0.75449598  1
  V  V37  1  0.24812613  0.12141521  0.37537666  1
  V  V38  1  0.64817848  0.25985223  0.88598135  1
  V  V39  1  -0.00176909  0.61874547  0.10991772  1
  V  V40  1  0.50015828  0.36256719  0.87262554  1
  V  V41  1  0.38505810  -0.03153914  0.88461983  1
  V  V42  1  0.75589579  0.61434994  0.84202312  1
  V  V43  1  0.03318863  0.87019779  0.38095089  1
  V  V44  1  0.62752964  0.50754887  0.13390185  1
  V  V45  1  0.24937048  0.72576426  0.49059694  1
  V  V46  1  0.24384817  0.50178042  0.21271482  1
  V  V47  1  -0.01735765  0.63491908  0.63465241  1
  V  V48  1  0.22354818  0.75904909  -0.01417796  1
  V  V49  1  0.25363855  0.01380863  0.76382953  1
  V  V50  1  0.00103801  0.35884385  0.89511630  1
  V  V51  1  0.62256331  0.89822466  0.26709454  1
  V  V52  1  0.62263252  0.37049534  0.26444552  1
  V  V53  1  0.37609101  0.63251800  0.74805040  1
  V  V54  1  0.88679237  0.49950267  0.88904908  1
  V  V55  1  0.75719207  0.11012515  0.87954254  1
  V  V56  1  0.47821890  0.03986168  0.56515670  1
  V  V57  1  0.37108024  0.10663400  0.24338888  1
  V  V58  1  0.01579956  0.77126734  0.23886752  1
  V  V59  1  0.48416165  0.48135629  0.48999489  1
  V  V60  1  0.12842233  -0.01530671  0.62498187  1
  V  V61  1  0.00996073  0.35426512  0.36567184  1
  V  V62  1  -0.00796754  0.50509626  0.47677613  1
  V  V63  1  0.38206163  0.74730076  0.11125231  1
  Zn  Zn64  1  0.18356319  0.18134512  0.17176474  1
  Zn  Zn65  1  0.04834074  0.17338152  0.68073191  1
  Zn  Zn66  1  0.18340303  0.68941032  0.17489461  1
  Zn  Zn67  1  0.18910921  0.68451729  0.68057121  1
  Zn  Zn68  1  0.64870943  0.20356438  0.16197392  1
  Zn  Zn69  1  0.67310568  0.16718873  0.70543455  1
  Zn  Zn70  1  0.69405052  0.68086227  0.19011913  1
  Zn  Zn71  1  0.68355201  0.68964621  0.66144103  1
  Zn  Zn72  1  0.27703795  0.28400710  0.27410139  1
  Zn  Zn73  1  0.30748091  0.31226420  0.81421143  1
  Zn  Zn74  1  0.30084088  0.80413910  0.31049330  1
  Zn  Zn75  1  0.31900935  0.80994394  0.81728657  1
  Zn  Zn76  1  0.83994740  0.32918040  0.27680416  1
  Zn  Zn77  1  0.81524710  0.36075397  0.81524635  1
  Zn  Zn78  1  0.84805591  0.86366395  0.29122919  1
  Zn  Zn79  1  0.75620817  0.81024711  0.82320673  1
  Zn  Zn80  1  0.17561864  0.41991145  0.44763504  1
  Zn  Zn81  1  0.18134480  0.43168741  0.93791971  1
  Zn  Zn82  1  0.20463160  0.93066813  0.44050075  1
  Zn  Zn83  1  0.18978678  0.95004225  0.91816711  1
  Zn  Zn84  1  0.68853037  0.43893413  0.44509970  1
  Zn  Zn85  1  0.68853378  0.44628961  0.93477194  1
  Zn  Zn86  1  0.63398296  0.97868426  0.44515280  1
  Zn  Zn87  1  0.69938938  0.97518259  0.99735171  1
  Zn  Zn88  1  0.31685209  0.05338875  0.05827974  1
  Zn  Zn89  1  0.29994628  0.05752928  0.56787914  1
  Zn  Zn90  1  0.31515283  0.57087918  0.05591824  1
  Zn  Zn91  1  0.30776963  0.55478845  0.56172292  1
  Zn  Zn92  1  0.83104530  0.09191871  0.05390512  1
  Zn  Zn93  1  0.84184611  0.14337286  0.53074768  1
  Zn  Zn94  1  0.82010343  0.56503752  0.07457649  1
  Zn  Zn95  1  0.81935262  0.54800802  0.55994601  1
  Zn  Zn96  1  0.43824455  0.44342562  0.19308093  1
  Zn  Zn97  1  0.45407971  0.45615084  0.69914243  1
  Zn  Zn98  1  0.43205783  0.92457626  0.18883836  1
  Zn  Zn99  1  0.44257493  0.93418764  0.70398454  1
  Zn  Zn100  1  0.94623394  0.43796697  0.17692531  1
  Zn  Zn101  1  0.92894074  0.44426749  0.69177917  1
  Zn  Zn102  1  0.93116169  0.98608219  0.17997534  1
  Zn  Zn103  1  0.92090768  0.92524856  0.66069361  1
  Zn  Zn104  1  0.11624116  0.03794253  0.33047264  1
  Zn  Zn105  1  0.06453817  0.04984698  0.79830006  1
  Zn  Zn106  1  0.07128428  0.57478954  0.29045150  1
  Zn  Zn107  1  0.05090098  0.56632801  0.81350431  1
  Zn  Zn108  1  0.54569233  0.07608843  0.32377995  1
  Zn  Zn109  1  0.55379732  0.09023254  0.91014228  1
  Zn  Zn110  1  0.55619048  0.56555868  0.31992310  1
  Zn  Zn111  1  0.56679355  0.56460749  0.81517504  1
  Zn  Zn112  1  0.43413561  0.18094857  0.43412438  1
  Zn  Zn113  1  0.45082472  0.18134847  1.07631850  1
  Zn  Zn114  1  0.42599035  0.69070072  0.43325580  1
  Zn  Zn115  1  0.44533639  0.69183870  0.93074925  1
  Zn  Zn116  1  0.99851464  0.21341665  0.48234237  1
  Zn  Zn117  1  0.92900111  0.18309619  0.93660788  1
  Zn  Zn118  1  1.00777960  0.67022854  0.41647911  1
  Zn  Zn119  1  0.90412990  0.69154109  0.93226649  1
  Zn  Zn120  1  0.07666539  0.29507773  0.06662142  1
  Zn  Zn121  1  0.02168759  0.34390344  0.59213672  1
  Zn  Zn122  1  0.05133433  0.81877013  0.05312425  1
  Zn  Zn123  1  0.06432485  0.81359201  0.57061359  1
  Zn  Zn124  1  0.56371265  0.32428464  0.06595110  1
  Zn  Zn125  1  0.54356287  0.30523040  0.56327181  1
  Zn  Zn126  1  0.57143165  0.81308459  0.07396625  1
  Zn  Zn127  1  0.55160614  0.78862720  0.54234945  1
  O  O128  1  0.13905871  0.09910596  0.10128196  1
  O  O129  1  0.10189913  0.06822427  0.68499512  1
  O  O130  1  0.09839006  0.64240122  0.11734241  1
  O  O131  1  0.11584542  0.60985063  0.62843487  1
  O  O132  1  0.65180351  0.09700522  0.10668249  1
  O  O133  1  0.62276930  0.14256127  0.60949252  1
  O  O134  1  0.62900794  0.61220832  0.11633042  1
  O  O135  1  0.61080282  0.60473143  0.62062272  1
  O  O136  1  0.33058889  0.44373853  0.37436405  1
  O  O137  1  0.38625719  0.38123978  0.87889200  1
  O  O138  1  0.37990300  0.87205385  0.35987893  1
  O  O139  1  0.39184248  0.86718408  0.88016112  1
  O  O140  1  0.89670285  0.36098923  0.37491377  1
  O  O141  1  0.89346340  0.38208085  0.89773169  1
  O  O142  1  0.87277093  0.88952072  0.39757074  1
  O  O143  1  0.83153654  0.87742899  0.88523895  1
  O  O144  1  0.23370341  0.01679484  0.37026489  1
  O  O145  1  0.28553765  0.00996186  0.88224155  1
  O  O146  1  0.27039428  0.48611612  0.37958619  1
  O  O147  1  0.25901146  0.50995016  0.86659987  1
  O  O148  1  0.76282264  0.05029506  0.32228211  1
  O  O149  1  0.74187823  0.01300360  0.89347669  1
  O  O150  1  0.74541263  0.49913374  0.36162300  1
  O  O151  1  0.76039384  0.50967160  0.87574664  1
  O  O152  1  0.24242813  0.50308372  0.11356581  1
  O  O153  1  0.23658206  0.50210106  0.63803653  1
  O  O154  1  0.24472633  0.97775480  0.11068837  1
  O  O155  1  0.23643569  0.99632614  0.64679378  1
  O  O156  1  0.73914158  0.49874143  0.13896975  1
  O  O157  1  0.72968814  0.49311852  0.61748876  1
  O  O158  1  0.71518408  1.05111570  0.10341083  1
  O  O159  1  0.70255207  0.93309650  0.65631121  1
  O  O160  1  0.01201070  0.37699771  0.25646047  1
  O  O161  1  0.00638327  0.37276709  0.75787717  1
  O  O162  1  -0.00526345  0.87559771  0.27014947  1
  O  O163  1  -0.02173545  0.85247919  0.74653436  1
  O  O164  1  0.51191039  0.37189186  0.24304273  1
  O  O165  1  0.50276950  0.37944730  0.76665219  1
  O  O166  1  0.50928063  0.86372086  0.25694580  1
  O  O167  1  0.50999358  0.85317050  0.74676810  1
  O  O168  1  0.48046527  0.14011821  0.25185306  1
  O  O169  1  0.42647327  0.13753021  0.74980994  1
  O  O170  1  0.48265444  0.63137721  0.25092665  1
  O  O171  1  0.48788818  0.61400832  0.74061525  1
  O  O172  1  0.93549179  0.10705881  0.30340765  1
  O  O173  1  0.97592231  0.12442909  0.75782368  1
  O  O174  1  0.99507904  0.65216533  0.23549528  1
  O  O175  1  1.00028239  0.63016415  0.73568941  1
  O  O176  1  0.37069853  0.25912735  0.01010232  1
  O  O177  1  0.37829875  0.25741616  0.50195568  1
  O  O178  1  0.38359757  0.74458317  0.00940542  1
  O  O179  1  0.36087361  0.75373872  0.50314509  1
  O  O180  1  0.89556337  0.21966522  0.04377709  1
  O  O181  1  0.88352710  0.25102319  0.49446399  1
  O  O182  1  0.86580592  0.77792428  0.00114423  1
  O  O183  1  0.83635627  0.73758700  0.49348317  1
  O  O184  1  0.17863468  0.22714199  0.55840476  1
  O  O185  1  0.13354668  0.22434869  0.99230243  1
  O  O186  1  0.14811931  0.75454893  0.51691226  1
  O  O187  1  0.12480177  0.75407351  0.98706047  1
  O  O188  1  0.61389826  0.25363023  0.48986772  1
  O  O189  1  0.62779641  0.26833241  0.98386495  1
  O  O190  1  0.64207157  0.72393251  0.53556090  1
  O  O191  1  0.61884708  0.73107463  1.00900127  1
  O  O192  1  0.53072995  0.23935922  0.13723370  1
  O  O193  1  0.47134667  0.25931517  0.64766905  1
  O  O194  1  0.48536435  0.75811093  0.14008632  1
  O  O195  1  0.50732745  0.72714439  0.63949366  1
  O  O196  1  1.02986682  0.21894997  0.14084708  1
  O  O197  1  1.02332358  0.23398954  0.59123519  1
  O  O198  1  0.98961037  0.77605414  0.13942892  1
  O  O199  1  0.99535848  0.73252742  0.61150787  1
  O  O200  1  0.02257101  0.25692366  0.37786728  1
  O  O201  1  -0.00993006  0.26050883  0.87963227  1
  O  O202  1  0.00345764  0.76803648  0.36333759  1
  O  O203  1  -0.02642698  0.76884740  0.84988399  1
  O  O204  1  0.49024494  0.25352477  0.35651780  1
  O  O205  1  0.51077014  0.26529488  0.87741950  1
  O  O206  1  0.49062587  0.75399088  0.35716188  1
  O  O207  1  0.51233976  0.73031945  0.85165034  1
  O  O208  1  0.26471621  0.13146528  0.48129234  1
  O  O209  1  0.24951769  0.12537396  0.99332932  1
  O  O210  1  0.25569118  0.62512263  0.49246872  1
  O  O211  1  0.24928158  0.63449909  0.98556369  1
  O  O212  1  0.73554043  0.14676857  0.49714841  1
  O  O213  1  0.76456786  0.14262688  0.97718360  1
  O  O214  1  0.73833920  0.60329382  0.49906343  1
  O  O215  1  0.74046991  0.62450522  1.01014519  1
  O  O216  1  0.27093289  0.38227256  -0.00786575  1
  O  O217  1  0.25205078  0.35858992  0.50096734  1
  O  O218  1  0.24009461  0.85814572  -0.02819277  1
  O  O219  1  0.27418532  0.87760218  0.50940056  1
  O  O220  1  0.74608574  0.38994485  0.01526295  1
  O  O221  1  0.77392646  0.37394787  0.48910600  1
  O  O222  1  0.76836986  0.89662228  0.04207269  1
  O  O223  1  0.74257086  0.96200486  0.47499271  1
  O  O224  1  0.14054597  0.49848104  0.24296263  1
  O  O225  1  0.13592780  0.50586847  0.74880732  1
  O  O226  1  0.11895336  1.00321495  0.22271935  1
  O  O227  1  0.16146655  0.97436692  0.80383483  1
  O  O228  1  0.62057275  0.50478114  0.24126965  1
  O  O229  1  0.60924820  0.49069611  0.73414674  1
  O  O230  1  0.61495796  0.99584004  0.25941842  1
  O  O231  1  0.64260540  0.93693628  0.78723631  1
  O  O232  1  0.36961611  0.00775469  0.24329419  1
  O  O233  1  0.35158786  -0.03367030  0.76444028  1
  O  O234  1  0.35940176  0.51630574  0.23234119  1
  O  O235  1  0.36252827  0.49851924  0.75565518  1
  O  O236  1  0.91932128  0.02840564  0.29459108  1
  O  O237  1  0.87356943  -0.00190870  0.73599591  1
  O  O238  1  0.86575035  0.49046533  0.25571394  1
  O  O239  1  0.86214955  0.46444199  0.77718192  1
  O  O240  1  0.11511887  0.38578411  0.35902342  1
  O  O241  1  0.11345770  0.37437987  0.86209439  1
  O  O242  1  0.13261064  0.86893288  0.37321851  1
  O  O243  1  0.15672697  0.81252878  0.78504685  1
  O  O244  1  0.62463971  0.38880226  0.36188880  1
  O  O245  1  0.61607534  0.37694781  0.86667966  1
  O  O246  1  0.60568647  0.88353630  0.37132918  1
  O  O247  1  0.65480042  0.88187130  0.83519030  1
  O  O248  1  0.36768890  0.12513132  0.13556431  1
  O  O249  1  0.39654146  0.10888866  0.59374202  1
  O  O250  1  0.36853288  0.64284317  0.12820616  1
  O  O251  1  0.38214130  0.61490127  0.63743780  1
  O  O252  1  0.90056299  0.09580033  0.14526164  1
  O  O253  1  0.86502936  0.12755177  0.64208506  1
  O  O254  1  0.88498380  0.62402053  0.14722712  1
  O  O255  1  0.88265391  0.61468497  0.62586242  1
  O  O256  1  0.23617154  0.25493786  0.09517653  1
  O  O257  1  0.24093765  0.23489456  0.60366381  1
  O  O258  1  0.24975181  0.75941010  0.09953320  1
  O  O259  1  0.24115060  0.74686652  0.60408182  1
  O  O260  1  0.73481973  0.27141141  0.12365255  1
  O  O261  1  0.79445054  0.27059073  0.66629731  1
  O  O262  1  0.75841874  0.76318360  0.13963335  1
  O  O263  1  0.77132426  0.77606774  0.64880023  1
  O  O264  1  0.26444225  0.24767210  0.38411338  1
  O  O265  1  0.25613708  0.25675041  0.89550540  1
  O  O266  1  0.24684694  0.75081523  0.39107739  1
  O  O267  1  0.25650318  0.73218058  0.88073474  1
  O  O268  1  0.71568087  0.15510043  0.25932411  1
  O  O269  1  0.74621191  0.27802830  0.87163650  1
  O  O270  1  0.78446500  0.75338398  0.44529011  1
  O  O271  1  0.76682606  0.71288743  0.87476516  1
  O  O272  1  0.01122481  0.10805983  -0.01112641  1
  O  O273  1  0.03664992  0.10711466  0.48878053  1
  O  O274  1  -0.02655673  0.64629671  0.01399474  1
  O  O275  1  -0.00594815  0.60547067  0.50971909  1
  O  O276  1  0.48808437  0.10344569  0.00430535  1
  O  O277  1  0.51026950  0.12581275  0.50194209  1
  O  O278  1  0.50981753  0.61152353  -0.00835507  1
  O  O279  1  0.49493744  0.62858531  0.51269906  1
  O  O280  1  0.49798485  0.38325989  0.49477983  1
  O  O281  1  0.49195441  0.38590716  0.99010578  1
  O  O282  1  0.48094560  0.85023962  0.48194583  1
  O  O283  1  0.50428983  0.88608990  1.02075080  1
  O  O284  1  1.00308712  0.38493151  0.47682842  1
  O  O285  1  1.02295972  0.36617990  0.99324807  1
  O  O286  1  1.01272436  0.87731039  0.48456930  1
  O  O287  1  0.97831286  0.88235628  0.98715931  1
  O  O288  1  0.49236989  0.50633031  0.39110424  1
  O  O289  1  0.49452500  0.49512190  0.88372484  1
  O  O290  1  0.48548612  0.98267974  0.37024460  1
  O  O291  1  0.47266347  1.01568988  0.86071520  1
  O  O292  1  1.00576287  0.50678216  0.37782766  1
  O  O293  1  0.99195626  0.49427755  0.87732417  1
  O  O294  1  1.03140832  0.98668067  0.38839192  1
  O  O295  1  0.99882891  0.99276761  0.87756644  1
  O  O296  1  0.01830902  -0.01764865  0.10280044  1
  O  O297  1  0.00393559  -0.01204388  0.59872795  1
  O  O298  1  -0.00000931  0.51777568  0.12054409  1
  O  O299  1  0.00626065  0.50794335  0.62717438  1
  O  O300  1  0.49911605  -0.00085083  0.13161999  1
  O  O301  1  0.50155967  0.02124082  0.66440666  1
  O  O302  1  0.51082837  0.49812233  0.11220424  1
  O  O303  1  0.50251529  0.50691776  0.61149597  1
  O  O304  1  0.24521515  0.39766011  0.24134351  1
  O  O305  1  0.23433977  0.38814122  0.75933004  1
  O  O306  1  0.23981091  0.86784402  0.23432235  1
  O  O307  1  0.22726377  0.82983227  0.74688252  1
  O  O308  1  0.73860174  0.38825249  0.24567327  1
  O  O309  1  0.72382988  0.38499232  0.74730939  1
  O  O310  1  0.72608275  0.86972918  0.26315183  1
  O  O311  1  0.80245387  0.80950636  0.71077886  1
  O  O312  1  0.26546097  0.14421319  0.25253248  1
  O  O313  1  0.25746158  0.10909870  0.75893188  1
  O  O314  1  0.25131524  0.61576926  0.23706385  1
  O  O315  1  0.26177435  0.61799493  0.75656854  1
  O  O316  1  0.75195953  0.08473183  0.25590788  1
  O  O317  1  0.75972044  0.12360484  0.76284393  1
  O  O318  1  0.76764468  0.61565558  0.25137785  1
  O  O319  1  0.74045874  0.62031230  0.74365312  1
  O  O320  1  0.36574234  0.12533022  0.35532601  1
  O  O321  1  0.40342387  0.16182816  0.81383534  1
  O  O322  1  0.36595433  0.62573535  0.35596077  1
  O  O323  1  0.37566811  0.61316758  0.86314380  1
  O  O324  1  0.89496183  0.14428516  0.35554416  1
  O  O325  1  0.86392163  0.12448446  0.86031654  1
  O  O326  1  0.89984925  0.62828857  0.35384284  1
  O  O327  1  0.87063029  0.60635051  0.85920818  1
  O  O328  1  0.11150700  0.38027433  0.13694100  1
  O  O329  1  0.11318387  0.39450029  0.64583113  1
  O  O330  1  0.13855523  0.88009088  0.10783477  1
  O  O331  1  0.10786041  0.88983712  0.65053128  1
  O  O332  1  0.63253870  0.39336295  0.13397423  1
  O  O333  1  0.60785024  0.38030374  0.63367884  1
  O  O334  1  0.64178642  0.87679546  0.14555737  1
  O  O335  1  0.68129266  0.87787371  0.61416723  1
  O  O336  1  0.15725005  0.27496801  0.24407088  1
  O  O337  1  0.11676099  0.25800689  0.73948062  1
  O  O338  1  0.11495573  0.76086344  0.23876161  1
  O  O339  1  0.12045673  0.74982019  0.75681773  1
  O  O340  1  0.61948130  0.26894293  0.25964043  1
  O  O341  1  0.62516579  0.26434826  0.75865225  1
  O  O342  1  0.60668528  0.73333862  0.24514030  1
  O  O343  1  0.63029844  0.74937550  0.74503112  1
  O  O344  1  0.38664002  0.27036895  0.23585998  1
  O  O345  1  0.35364685  0.27152352  0.70948324  1
  O  O346  1  0.37054495  0.73646396  0.24007015  1
  O  O347  1  0.38085753  0.73172291  0.75224805  1
  O  O348  1  0.88312661  0.24345402  0.21845009  1
  O  O349  1  0.84683084  0.27656040  0.71859384  1
  O  O350  1  0.87404903  0.75271199  0.26039136  1
  O  O351  1  0.94309373  0.78984112  0.78065333  1
  O  O352  1  0.38492710  0.49224836  0.51150071  1
  O  O353  1  0.38708550  0.50019628  0.99211700  1
  O  O354  1  0.39513356  0.97491323  0.52535368  1
  O  O355  1  0.38905461  0.98685987  0.99431375  1
  O  O356  1  0.88911048  0.48559721  0.48987004  1
  O  O357  1  0.87228103  0.50880200  0.98915425  1
  O  O358  1  0.89873077  1.03345344  0.48713454  1
  O  O359  1  0.88808672  0.99725676  1.00172919  1
  O  O360  1  0.11491963  -0.00024238  -0.00906969  1
  O  O361  1  0.13303194  -0.00925821  0.51984663  1
  O  O362  1  0.12456603  0.51222187  -0.01051145  1
  O  O363  1  0.11213552  0.49138646  0.51398439  1
  O  O364  1  0.59416277  0.00117560  -0.01979631  1
  O  O365  1  0.55691942  -0.01907403  0.52887787  1
  O  O366  1  0.61648616  0.50618540  0.00821312  1
  O  O367  1  0.61122203  0.50416742  0.50919470  1
  O  O368  1  0.38163328  0.38511725  0.11014477  1
  O  O369  1  0.40933506  0.30693236  0.66510112  1
  O  O370  1  0.35698917  0.85689213  0.12905210  1
  O  O371  1  0.38805061  0.85666302  0.62945318  1
  O  O372  1  0.85700262  0.38024351  0.13491248  1
  O  O373  1  0.90370806  0.37466126  0.59674520  1
  O  O374  1  0.84340627  0.90856641  0.18030509  1
  O  O375  1  0.85884915  0.89445610  0.56898381  1
  O  O376  1  0.14913825  0.14466807  0.35852082  1
  O  O377  1  0.12618505  0.11580887  0.87933897  1
  O  O378  1  0.10845547  0.63639414  0.37570945  1
  O  O379  1  0.13828416  0.62178489  0.86819493  1
  O  O380  1  0.61825134  0.09088616  0.41141013  1
  O  O381  1  0.64343673  0.15063071  0.86867279  1
  O  O382  1  0.61625390  0.62872411  0.39743731  1
  O  O383  1  0.64361731  0.61300022  0.88600031  1
