# generated using pymatgen
data_VZnO4
_symmetry_space_group_name_H-M   'P 1'
_cell_length_a   16.96893201
_cell_length_b   16.92838323
_cell_length_c   17.01252530
_cell_angle_alpha   89.62346046
_cell_angle_beta   90.35621042
_cell_angle_gamma   90.05340686
_symmetry_Int_Tables_number   1
_chemical_formula_structural   VZnO4
_chemical_formula_sum   'V64 Zn64 O256'
_cell_volume   4886.75799166
_cell_formula_units_Z   64
loop_
 _symmetry_equiv_pos_site_id
 _symmetry_equiv_pos_as_xyz
  1  'x, y, z'
loop_
 _atom_site_type_symbol
 _atom_site_label
 _atom_site_symmetry_multiplicity
 _atom_site_fract_x
 _atom_site_fract_y
 _atom_site_fract_z
 _atom_site_occupancy
  V  V0  1  0.12309462  0.49276887  0.14665638  1
  V  V1  1  0.62174920  0.37054274  0.74603815  1
  V  V2  1  0.14801888  0.87256223  0.24889079  1
  V  V3  1  0.62781318  0.74649658  0.86863478  1
  V  V4  1  0.61997251  0.62318361  0.50911405  1
  V  V5  1  0.12114227  0.60313073  -0.00893191  1
  V  V6  1  0.85338249  0.50894031  0.84842802  1
  V  V7  1  0.13735386  0.26140004  0.37709386  1
  V  V8  1  0.49450058  0.75316108  0.74455603  1
  V  V9  1  0.22706931  0.24011420  -0.00503902  1
  V  V10  1  0.62564403  0.25298033  0.87887861  1
  V  V11  1  0.10104350  -0.00119004  0.09636627  1
  V  V12  1  0.75520175  0.24269216  0.50366396  1
  V  V13  1  0.24451528  0.89371784  0.62271743  1
  V  V14  1  0.63177118  -0.00162902  0.64581825  1
  V  V15  1  0.13806209  0.88035256  0.75780892  1
  V  V16  1  0.62668198  0.87427219  0.24454457  1
  V  V17  1  0.62619458  0.75249736  0.38826275  1
  V  V18  1  0.92206863  0.76278264  0.08278407  1
  V  V19  1  0.01316629  0.26476505  0.25134827  1
  V  V20  1  0.34906589  0.57801166  0.34277740  1
  V  V21  1  0.50539537  0.14091114  0.12857622  1
  V  V22  1  0.38901730  0.35762777  0.47931358  1
  V  V23  1  0.26646933  -0.00427288  0.24160032  1
  V  V24  1  0.48287918  0.51178709  0.00439875  1
  V  V25  1  0.49092914  0.13545169  0.63113901  1
  V  V26  1  0.76058050  0.10311045  0.38814793  1
  V  V27  1  0.16594311  0.75761219  0.88092242  1
  V  V28  1  0.49226818  -0.00690133  0.01211910  1
  V  V29  1  -0.01602874  0.87331991  0.39302288  1
  V  V30  1  0.50618457  0.87293770  0.39430828  1
  V  V31  1  0.62963519  0.11827036  0.00758110  1
  V  V32  1  0.52012699  0.38692930  0.35866285  1
  V  V33  1  0.62692798  0.49494117  0.62638115  1
  V  V34  1  0.25411338  0.60595150  0.85684016  1
  V  V35  1  0.00412225  0.13555827  0.62012945  1
  V  V36  1  -0.03953717  0.73959004  0.28825409  1
  V  V37  1  0.76769676  0.37160459  0.63268327  1
  V  V38  1  0.86405836  0.01273008  0.86060989  1
  V  V39  1  0.49459479  0.88135562  0.86642742  1
  V  V40  1  0.51194756  0.01394413  0.50640861  1
  V  V41  1  0.00052775  0.60178814  0.61828852  1
  V  V42  1  0.89848192  0.09870831  0.26097315  1
  V  V43  1  0.87214508  0.24514837  0.13680641  1
  V  V44  1  -0.01999694  0.04831336  -0.01248681  1
  V  V45  1  0.71183909  0.74950580  0.03371631  1
  V  V46  1  0.36451619  0.01095438  0.86326698  1
  V  V47  1  0.25504977  0.13475005  0.38130959  1
  V  V48  1  0.27441228  0.36335647  0.12506923  1
  V  V49  1  0.38174267  0.48722468  0.84930583  1
  V  V50  1  0.76452419  0.75316274  0.52194533  1
  V  V51  1  0.87053428  0.39394956  0.00539204  1
  V  V52  1  0.73855905  0.11933925  0.85236383  1
  V  V53  1  0.02438388  0.49384390  0.47436009  1
  V  V54  1  0.48996042  0.61877257  0.63006410  1
  V  V55  1  -0.02961930  0.84830060  0.84906930  1
  V  V56  1  0.87142181  0.38391058  0.46403287  1
  V  V57  1  0.75645447  -0.01086856  0.23058122  1
  V  V58  1  0.48530080  0.25025882  0.75689354  1
  V  V59  1  0.38753598  0.13620638  0.24626446  1
  V  V60  1  0.35618866  0.75207388  0.62017432  1
  V  V61  1  0.37900253  -0.00202846  0.38477117  1
  V  V62  1  0.63061791  0.23937087  0.36393114  1
  V  V63  1  0.75620179  0.61358009  0.38222559  1
  Zn  Zn64  1  0.19149903  0.18076776  0.17713217  1
  Zn  Zn65  1  0.16663357  0.19624829  0.71014632  1
  Zn  Zn66  1  0.09481199  0.69183309  0.15904730  1
  Zn  Zn67  1  0.16275497  0.69387846  0.69330523  1
  Zn  Zn68  1  0.68238746  0.30990517  0.17994365  1
  Zn  Zn69  1  0.67429071  0.18851444  0.67676215  1
  Zn  Zn70  1  0.78467487  0.67556945  0.19616315  1
  Zn  Zn71  1  0.67015103  0.69695140  0.68935563  1
  Zn  Zn72  1  0.32266451  0.32004206  0.30543116  1
  Zn  Zn73  1  0.33249258  0.28724011  0.86890068  1
  Zn  Zn74  1  0.32771156  0.79754504  0.32030794  1
  Zn  Zn75  1  0.32141204  0.82064637  0.80769702  1
  Zn  Zn76  1  0.82059876  0.28529038  0.30853701  1
  Zn  Zn77  1  0.81048700  0.32265784  0.82064826  1
  Zn  Zn78  1  0.80277074  0.81642841  0.33735155  1
  Zn  Zn79  1  0.81301673  0.81782622  0.92137286  1
  Zn  Zn80  1  0.20457316  0.45141567  0.38822851  1
  Zn  Zn81  1  0.19394198  0.42506781  0.93300204  1
  Zn  Zn82  1  0.14784736  0.90051369  0.45090624  1
  Zn  Zn83  1  0.17824885  0.96291819  0.94069844  1
  Zn  Zn84  1  0.68339568  0.42923028  0.44794942  1
  Zn  Zn85  1  0.69420905  0.43740375  0.94029842  1
  Zn  Zn86  1  0.68903423  0.93133612  0.47291910  1
  Zn  Zn87  1  0.67915888  0.93370331  0.93909106  1
  Zn  Zn88  1  0.31958211  0.06956255  0.05928177  1
  Zn  Zn89  1  0.31458784  0.06611609  0.56161805  1
  Zn  Zn90  1  0.29034160  0.53330868  0.03720522  1
  Zn  Zn91  1  0.33441129  0.50284905  0.52009772  1
  Zn  Zn92  1  0.81935445  0.07123090  0.06609992  1
  Zn  Zn93  1  0.82083744  0.04953750  0.57352307  1
  Zn  Zn94  1  0.83141250  0.58881001  0.05080985  1
  Zn  Zn95  1  0.81241281  0.55769854  0.56719207  1
  Zn  Zn96  1  0.44080020  0.44836195  0.19699845  1
  Zn  Zn97  1  0.43538511  0.42828226  0.67586970  1
  Zn  Zn98  1  0.45525127  0.94519624  0.20519024  1
  Zn  Zn99  1  0.42958681  0.93973252  0.68303060  1
  Zn  Zn100  1  0.96620206  0.42318145  0.15862753  1
  Zn  Zn101  1  0.95062976  0.45628197  0.68961626  1
  Zn  Zn102  1  0.95312746  0.92435033  0.18475331  1
  Zn  Zn103  1  0.93720806  0.94628019  0.68415084  1
  Zn  Zn104  1  0.08465150  0.04365423  0.34287009  1
  Zn  Zn105  1  0.06607246  0.07376054  0.81510347  1
  Zn  Zn106  1  0.02825918  0.54805084  0.27575108  1
  Zn  Zn107  1  0.04070159  0.59144089  0.82279404  1
  Zn  Zn108  1  0.57572472  0.06048025  0.31297448  1
  Zn  Zn109  1  0.55446801  0.06534369  0.81152521  1
  Zn  Zn110  1  0.61553682  0.55173236  0.31736427  1
  Zn  Zn111  1  0.56812653  0.56117587  0.81019426  1
  Zn  Zn112  1  0.44217069  0.18826171  0.43564582  1
  Zn  Zn113  1  0.43506386  0.17937915  0.94440361  1
  Zn  Zn114  1  0.42789383  0.68208160  0.44428067  1
  Zn  Zn115  1  0.44453595  0.66719836  0.91481205  1
  Zn  Zn116  1  0.93893773  0.19720170  0.42546775  1
  Zn  Zn117  1  0.91265309  0.22679445  0.93573335  1
  Zn  Zn118  1  0.93070320  0.66234197  0.45650858  1
  Zn  Zn119  1  0.94111253  0.67051106  0.92233310  1
  Zn  Zn120  1  0.04525842  0.30626012  0.05296783  1
  Zn  Zn121  1  0.05183544  0.31687462  0.53902265  1
  Zn  Zn122  1  0.08700915  0.83437165  0.02627915  1
  Zn  Zn123  1  0.06809858  0.79504856  0.57462440  1
  Zn  Zn124  1  0.55844446  0.31954242  0.05752854  1
  Zn  Zn125  1  0.56632764  0.30753960  0.55383351  1
  Zn  Zn126  1  0.55015883  0.81144067  0.05827358  1
  Zn  Zn127  1  0.56616059  0.81780284  0.56791560  1
  O  O128  1  0.13905229  0.08391526  0.13061348  1
  O  O129  1  0.10919693  0.14997802  0.61433128  1
  O  O130  1  0.13590462  0.60056044  0.10316864  1
  O  O131  1  0.19181046  0.49317845  0.65655659  1
  O  O132  1  0.61331793  0.12611965  0.11118899  1
  O  O133  1  0.60218471  0.11222176  0.63086927  1
  O  O134  1  0.57099468  0.62119348  0.17028983  1
  O  O135  1  0.61958483  0.61380737  0.62426385  1
  O  O136  1  0.40883063  0.36500643  0.36861302  1
  O  O137  1  0.37953307  0.38934801  0.86616922  1
  O  O138  1  0.39533068  0.88856808  0.37160995  1
  O  O139  1  0.38895857  0.87952316  0.87997217  1
  O  O140  1  0.85216659  0.38145386  0.36597396  1
  O  O141  1  0.86942667  0.40926544  0.88137631  1
  O  O142  1  0.88433061  0.86659857  0.40133476  1
  O  O143  1  0.87507486  0.89502276  0.86609275  1
  O  O144  1  0.27701956  0.01343106  0.36972717  1
  O  O145  1  0.26726225  0.00249622  0.88859168  1
  O  O146  1  0.25291214  0.54898595  0.35261346  1
  O  O147  1  0.25985910  0.49984942  0.86424754  1
  O  O148  1  0.75692777  0.00774224  0.41601915  1
  O  O149  1  0.75087143  0.00689883  0.87588628  1
  O  O150  1  0.71492714  0.51552408  0.37945362  1
  O  O151  1  0.75677347  0.51666417  0.88584423  1
  O  O152  1  0.22845936  0.47266959  0.11263752  1
  O  O153  1  0.24759367  0.45396447  0.63166231  1
  O  O154  1  0.27837426  0.99756436  0.14288747  1
  O  O155  1  0.25103581  0.99317206  0.62124202  1
  O  O156  1  0.75778188  0.56418462  0.13998717  1
  O  O157  1  0.74152903  0.47894555  0.62218125  1
  O  O158  1  0.75348951  0.99854788  0.13302786  1
  O  O159  1  0.72900019  1.01873238  0.62735346  1
  O  O160  1  -0.00220598  0.36253352  0.25722397  1
  O  O161  1  0.01418901  0.39684788  0.77251021  1
  O  O162  1  -0.02092607  0.84104855  0.27406999  1
  O  O163  1  0.00463602  0.88352535  0.75557150  1
  O  O164  1  0.51231300  0.37805676  0.25827038  1
  O  O165  1  0.50908949  0.35842119  0.73653528  1
  O  O166  1  0.52526421  0.89204088  0.28122674  1
  O  O167  1  0.49397368  0.86897685  0.75919849  1
  O  O168  1  0.50192338  0.11550144  0.23733680  1
  O  O169  1  0.49667989  0.13952703  0.74192394  1
  O  O170  1  0.52079103  0.66296342  0.20701934  1
  O  O171  1  0.50911424  0.64228371  0.73697330  1
  O  O172  1  0.99677846  0.08719557  0.26725659  1
  O  O173  1  1.00893774  0.14203100  0.72506880  1
  O  O174  1  1.02093209  0.66641848  0.24683667  1
  O  O175  1  1.02514696  0.57359056  0.71567166  1
  O  O176  1  0.35880821  0.25235951  -0.02415405  1
  O  O177  1  0.37408080  0.25969871  0.49327401  1
  O  O178  1  0.39844054  0.74107212  0.01669498  1
  O  O179  1  0.37105631  0.74626165  0.52200671  1
  O  O180  1  0.84295400  0.22741509  0.04451071  1
  O  O181  1  0.86807815  0.27083956  0.48434719  1
  O  O182  1  0.89643676  0.76129227  -0.01813280  1
  O  O183  1  0.86274367  0.73320943  0.51167396  1
  O  O184  1  0.13018439  0.26464949  0.47689833  1
  O  O185  1  0.12680831  0.24164458  1.01393252  1
  O  O186  1  0.19249703  0.59758904  0.57296421  1
  O  O187  1  0.14333222  0.74515594  0.97992326  1
  O  O188  1  0.65015292  0.24773248  0.49242223  1
  O  O189  1  0.61129528  0.23463942  0.98242436  1
  O  O190  1  0.63215133  0.74244880  0.50611834  1
  O  O191  1  0.61443429  0.74482825  0.99122299  1
  O  O192  1  0.50232947  0.23915710  0.11920202  1
  O  O193  1  0.50271956  0.24112215  0.63147090  1
  O  O194  1  0.44829053  0.74009291  0.07264434  1
  O  O195  1  0.49591738  0.75376378  0.63548709  1
  O  O196  1  0.98344468  0.25119228  0.14221394  1
  O  O197  1  0.99621348  0.24151559  0.61379909  1
  O  O198  1  1.02538431  0.76694396  0.09708634  1
  O  O199  1  1.06654186  0.69362622  0.62337286  1
  O  O200  1  0.02668465  0.23966463  0.36179229  1
  O  O201  1  0.06675934  0.25701816  0.84064675  1
  O  O202  1  -0.01736460  0.73911862  0.38677655  1
  O  O203  1  -0.03789018  0.74879218  0.83879827  1
  O  O204  1  0.53057734  0.22843596  0.37635077  1
  O  O205  1  0.51232769  0.24079833  0.86114534  1
  O  O206  1  0.50624634  0.76862435  0.39659356  1
  O  O207  1  0.49700731  0.75647043  0.86091880  1
  O  O208  1  0.26414694  0.12817526  0.47971337  1
  O  O209  1  0.25063903  0.13975323  1.00781763  1
  O  O210  1  0.25369171  0.59415507  0.53138511  1
  O  O211  1  0.23432769  0.61109432  0.97244886  1
  O  O212  1  0.77898063  0.13645081  0.50028391  1
  O  O213  1  0.72944742  0.11527662  1.00322145  1
  O  O214  1  0.73694366  0.62488398  0.50026461  1
  O  O215  1  0.76492828  0.67027459  1.00024276  1
  O  O216  1  0.24158349  0.35931717  0.01227552  1
  O  O217  1  0.29607642  0.40912810  0.45542320  1
  O  O218  1  0.16060461  0.92037501  0.05049797  1
  O  O219  1  0.22432303  0.86878902  0.52782520  1
  O  O220  1  0.77308622  0.36996938  -0.00766673  1
  O  O221  1  0.76199714  0.36442809  0.51017906  1
  O  O222  1  0.73898997  0.85032831  0.00345940  1
  O  O223  1  0.75795328  0.85393427  0.51254213  1
  O  O224  1  0.13811012  0.49872010  0.24458236  1
  O  O225  1  0.08034630  0.43441674  0.79840893  1
  O  O226  1  0.16585257  0.99792982  0.26419551  1
  O  O227  1  0.12080519  0.97586839  0.78035610  1
  O  O228  1  0.59109919  0.54978523  0.20441342  1
  O  O229  1  0.61884706  0.48276595  0.74074877  1
  O  O230  1  0.64544009  0.98660238  0.25518198  1
  O  O231  1  0.61748739  0.99837357  0.74558464  1
  O  O232  1  0.38184811  0.00745649  0.26521820  1
  O  O233  1  0.37121883  -0.00857016  0.76407392  1
  O  O234  1  0.39429212  0.52582825  0.26950024  1
  O  O235  1  0.37650363  0.49163143  0.74804434  1
  O  O236  1  0.87261787  -0.00847367  0.24156301  1
  O  O237  1  0.87477547  0.00913060  0.76234026  1
  O  O238  1  0.77937345  0.49325320  0.18779373  1
  O  O239  1  0.86062524  0.49653067  0.74955032  1
  O  O240  1  0.14846861  0.35826820  0.35277288  1
  O  O241  1  0.12927028  0.38599477  0.83727910  1
  O  O242  1  0.11173606  0.86293723  0.34250913  1
  O  O243  1  0.17175185  0.86319905  0.87440074  1
  O  O244  1  0.62582404  0.35346869  0.37869556  1
  O  O245  1  0.63757560  0.35792304  0.86378878  1
  O  O246  1  0.61891740  0.87063412  0.39781489  1
  O  O247  1  0.60108502  0.86389039  0.88378081  1
  O  O248  1  0.39385829  0.12191084  0.13762564  1
  O  O249  1  0.39124948  0.11932190  0.62549311  1
  O  O250  1  0.34270431  0.62208626  0.12919280  1
  O  O251  1  0.39059343  0.63508329  0.62821715  1
  O  O252  1  0.86975648  0.12970235  0.15718532  1
  O  O253  1  0.90058365  0.12511390  0.63147767  1
  O  O254  1  0.88177506  0.67556345  0.12238361  1
  O  O255  1  0.90106378  0.61585975  0.61872200  1
  O  O256  1  0.25299279  0.25648058  0.11484971  1
  O  O257  1  0.26689040  0.22205747  0.65347198  1
  O  O258  1  0.30066493  0.67601571  0.15448103  1
  O  O259  1  0.25739416  0.74144826  0.63649881  1
  O  O260  1  0.78895816  0.27491755  0.19720253  1
  O  O261  1  0.74971495  0.25665915  0.61320621  1
  O  O262  1  0.71148652  0.74029860  0.13280074  1
  O  O263  1  0.74733760  0.73519192  0.61993132  1
  O  O264  1  0.25370190  0.24175890  0.36354563  1
  O  O265  1  0.22514224  0.26103705  0.89118124  1
  O  O266  1  0.24007643  0.78171089  0.40002759  1
  O  O267  1  0.26424155  0.73399921  0.86893525  1
  O  O268  1  0.75050429  0.23340449  0.38624705  1
  O  O269  1  0.73071410  0.23232042  0.87149077  1
  O  O270  1  0.74105475  0.73749758  0.40087915  1
  O  O271  1  0.72628576  0.76516760  0.86516725  1
  O  O272  1  -0.02894213  0.14611281  -0.00165880  1
  O  O273  1  -0.00941250  0.13433471  0.51592519  1
  O  O274  1  0.02614502  0.63777418  -0.00625383  1
  O  O275  1  0.01472074  0.60175100  0.50410620  1
  O  O276  1  0.50336751  0.11630103  0.01439131  1
  O  O277  1  0.49710150  0.11922756  0.51280697  1
  O  O278  1  0.50312375  0.61126857  -0.00638122  1
  O  O279  1  0.51058441  0.63937340  0.52363791  1
  O  O280  1  0.50034070  0.36173103  0.47680192  1
  O  O281  1  0.52848390  0.40433998  0.97811987  1
  O  O282  1  0.50065220  0.89384445  0.49730397  1
  O  O283  1  0.49784822  0.88976688  0.99348674  1
  O  O284  1  0.98159630  0.38563146  0.48158334  1
  O  O285  1  0.95528543  0.33005202  0.98151058  1
  O  O286  1  1.03860955  0.85513700  0.48520831  1
  O  O287  1  1.02567910  0.86983593  0.93045061  1
  O  O288  1  0.53562616  0.48490147  0.37016508  1
  O  O289  1  0.48234577  0.51449070  0.86786094  1
  O  O290  1  0.50094715  1.00345367  0.39040562  1
  O  O291  1  0.49353178  0.98947202  0.87695781  1
  O  O292  1  1.00027832  0.51396866  0.37768080  1
  O  O293  1  0.94443581  0.56172089  0.87982943  1
  O  O294  1  0.99734900  0.97039499  0.37578990  1
  O  O295  1  0.97716664  1.03411555  0.87749565  1
  O  O296  1  -0.00732184  0.00312451  0.09114377  1
  O  O297  1  0.02146090  0.03226351  0.62207113  1
  O  O298  1  0.01079130  0.52524863  0.16510310  1
  O  O299  1  0.00768651  0.49302507  0.59477853  1
  O  O300  1  0.49695371  -0.00205571  0.11401096  1
  O  O301  1  0.49994923  0.00504246  0.61665747  1
  O  O302  1  0.47726585  0.50229759  0.10336443  1
  O  O303  1  0.50675134  0.51564675  0.63366354  1
  O  O304  1  0.25632127  0.36577429  0.22609334  1
  O  O305  1  0.26778488  0.28390123  0.61192944  1
  O  O306  1  0.25847698  0.88438164  0.25978970  1
  O  O307  1  0.24331022  0.87419555  0.74014685  1
  O  O308  1  0.72096884  0.45753240  0.21625408  1
  O  O309  1  0.73912152  0.35843907  0.73616973  1
  O  O310  1  0.74404376  0.88293562  0.26036853  1
  O  O311  1  0.77153210  0.87024114  0.70996269  1
  O  O312  1  0.27532193  0.11644570  0.25077044  1
  O  O313  1  0.15920469  0.13024076  0.79360664  1
  O  O314  1  0.20206062  0.70968610  0.38770757  1
  O  O315  1  0.22442903  0.62135754  0.76077929  1
  O  O316  1  0.76738225  0.08662005  0.27628169  1
  O  O317  1  0.73724090  0.12599733  0.75505665  1
  O  O318  1  0.72812412  0.63411450  0.28613594  1
  O  O319  1  0.73754459  0.61574277  0.74659883  1
  O  O320  1  0.38035807  0.11920325  0.36390567  1
  O  O321  1  0.38830616  0.10923551  0.86723948  1
  O  O322  1  0.36371540  0.68413841  0.33860443  1
  O  O323  1  0.35812344  0.61512210  0.85985276  1
  O  O324  1  0.87294638  0.11793897  0.36955717  1
  O  O325  1  0.84329683  0.12057652  0.87691352  1
  O  O326  1  0.85483028  0.60665667  0.38560775  1
  O  O327  1  0.84055015  0.63654920  0.82695779  1
  O  O328  1  0.08435766  0.40114780  0.11274957  1
  O  O329  1  0.11700553  0.35049006  0.63451712  1
  O  O330  1  0.07681368  0.92312705  0.17828389  1
  O  O331  1  0.13099755  0.86782121  0.64935553  1
  O  O332  1  0.64225966  0.37262108  0.10400420  1
  O  O333  1  0.62738563  0.37752835  0.62859936  1
  O  O334  1  0.60198798  0.86063469  0.14921744  1
  O  O335  1  0.62342866  0.89872763  0.61952716  1
  O  O336  1  0.11256484  0.23903617  0.23782830  1
  O  O337  1  0.12951795  0.30892628  0.69718115  1
  O  O338  1  0.15067150  0.78020646  0.20953035  1
  O  O339  1  0.11953482  0.76651910  0.78072401  1
  O  O340  1  0.64228016  0.24662498  0.26560522  1
  O  O341  1  0.61561031  0.25475873  0.75669527  1
  O  O342  1  0.63282173  0.77400252  0.28311115  1
  O  O343  1  0.60806459  0.76103958  0.75828269  1
  O  O344  1  0.38697295  0.23343122  0.25498798  1
  O  O345  1  0.38757277  0.26057437  0.76568594  1
  O  O346  1  0.39075571  0.78892480  0.21200300  1
  O  O347  1  0.38801780  0.75297037  0.73831431  1
  O  O348  1  0.91044894  0.22009741  0.26470791  1
  O  O349  1  0.89406731  0.25274575  0.82889062  1
  O  O350  1  0.85902288  0.73322078  0.27244380  1
  O  O351  1  0.79697341  0.66353427  0.76789015  1
  O  O352  1  0.39071383  0.56360662  0.43877621  1
  O  O353  1  0.37991606  0.50194378  0.97745365  1
  O  O354  1  0.38725052  1.00621640  0.48777259  1
  O  O355  1  0.39103209  1.00793763  0.99058047  1
  O  O356  1  0.86268604  0.48119950  0.49481076  1
  O  O357  1  0.88275298  0.49464502  1.01850438  1
  O  O358  1  0.89532872  0.96594952  0.58253635  1
  O  O359  1  0.87941550  1.01055548  0.98643590  1
  O  O360  1  0.08871600  0.02990359  -0.01459472  1
  O  O361  1  0.13338237  0.01046511  0.44199187  1
  O  O362  1  0.11368595  0.50408924  -0.02695469  1
  O  O363  1  0.12122355  0.47374842  0.47364054  1
  O  O364  1  0.60719550  0.01221811  -0.00854259  1
  O  O365  1  0.61247814  0.01031041  0.50687449  1
  O  O366  1  0.58804080  0.46584686  -0.01647749  1
  O  O367  1  0.62315224  0.50668602  0.51836420  1
  O  O368  1  0.37271205  0.37954571  0.12485275  1
  O  O369  1  0.38994001  0.41280047  0.57339406  1
  O  O370  1  0.39338248  0.84893027  0.16466391  1
  O  O371  1  0.35386907  0.86480987  0.62940903  1
  O  O372  1  0.88156000  0.36470045  0.11300427  1
  O  O373  1  0.86601502  0.37620638  0.63905747  1
  O  O374  1  0.88787702  0.84550410  0.12610726  1
  O  O375  1  0.83835205  0.84884897  0.69172811  1
  O  O376  1  0.15237062  0.13979546  0.36063084  1
  O  O377  1  0.04339499  0.19599846  0.87288863  1
  O  O378  1  0.14166772  0.69640866  0.42942828  1
  O  O379  1  0.13086130  0.63663280  0.87573188  1
  O  O380  1  0.65232449  0.12459729  0.37441921  1
  O  O381  1  0.62812980  0.12713324  0.88068776  1
  O  O382  1  0.61240677  0.64022227  0.39647816  1
  O  O383  1  0.61908254  0.64580411  0.86754942  1
