# generated using pymatgen
data_VZnO4
_symmetry_space_group_name_H-M   'P 1'
_cell_length_a   17.06578912
_cell_length_b   16.93828576
_cell_length_c   16.92311783
_cell_angle_alpha   89.80347861
_cell_angle_beta   89.37669461
_cell_angle_gamma   90.02045863
_symmetry_Int_Tables_number   1
_chemical_formula_structural   VZnO4
_chemical_formula_sum   'V64 Zn64 O256'
_cell_volume   4891.56603434
_cell_formula_units_Z   64
loop_
 _symmetry_equiv_pos_site_id
 _symmetry_equiv_pos_as_xyz
  1  'x, y, z'
loop_
 _atom_site_type_symbol
 _atom_site_label
 _atom_site_symmetry_multiplicity
 _atom_site_fract_x
 _atom_site_fract_y
 _atom_site_fract_z
 _atom_site_occupancy
  V  V0  1  0.86822562  0.26391252  0.10380668  1
  V  V1  1  0.40551866  -0.01835340  0.87862530  1
  V  V2  1  0.74877948  0.38929528  0.62526395  1
  V  V3  1  0.11977011  0.62312660  0.00883149  1
  V  V4  1  0.88405140  0.87636280  0.00015829  1
  V  V5  1  0.26591608  0.48894746  0.76199600  1
  V  V6  1  0.61858068  0.51037722  0.60351415  1
  V  V7  1  0.62442087  0.37050229  0.24288367  1
  V  V8  1  0.10698440  0.73901531  0.39079027  1
  V  V9  1  0.26717614  0.51063585  0.23738446  1
  V  V10  1  0.00099892  0.87266435  0.86220839  1
  V  V11  1  0.24081714  0.25783017  0.00620791  1
  V  V12  1  0.11396570  0.12051481  -0.00855737  1
  V  V13  1  0.75413691  0.12724973  0.87995006  1
  V  V14  1  0.88910254  0.73526664  0.62855471  1
  V  V15  1  0.75312361  0.00014617  0.74051878  1
  V  V16  1  0.12153595  0.24847640  0.35825739  1
  V  V17  1  -0.01382684  0.37793053  0.36571013  1
  V  V18  1  0.60748008  0.24154216  0.36531810  1
  V  V19  1  0.60094069  0.24039479  0.87286275  1
  V  V20  1  0.11712415  0.26457797  0.85893708  1
  V  V21  1  0.75928976  0.48807489  0.23105910  1
  V  V22  1  0.38137542  0.72387179  0.10063180  1
  V  V23  1  0.24326948  0.77075397  0.00562371  1
  V  V24  1  0.75851160  0.73901715  -0.00233132  1
  V  V25  1  -0.03812561  0.49141686  0.49427620  1
  V  V26  1  0.74871424  0.61001881  0.38143182  1
  V  V27  1  -0.00298887  0.88166274  0.37145815  1
  V  V28  1  0.13999755  0.88472318  0.74034677  1
  V  V29  1  0.38975446  0.35792480  0.01934966  1
  V  V30  1  0.39525061  0.47382972  0.88877757  1
  V  V31  1  -0.01200668  0.11601625  0.12084595  1
  V  V32  1  0.62222922  -0.00123916  0.12797955  1
  V  V33  1  0.60387323  0.37901541  0.75439171  1
  V  V34  1  0.63591116  0.86159147  0.26054396  1
  V  V35  1  0.00474341  0.74414689  0.23431233  1
  V  V36  1  0.49782266  0.75151474  0.75614434  1
  V  V37  1  -0.00057961  0.11298593  0.62370676  1
  V  V38  1  0.76861167  0.12581563  0.37575539  1
  V  V39  1  0.24796815  0.25692695  0.49355174  1
  V  V40  1  -0.01218646  0.25262056  0.23952957  1
  V  V41  1  0.63787857  0.87627353  0.72716532  1
  V  V42  1  0.23062178  0.76104282  0.51727925  1
  V  V43  1  0.13282466  -0.00549487  0.12710119  1
  V  V44  1  0.77512547  0.00277376  0.25284246  1
  V  V45  1  0.12135062  0.48437390  0.12866504  1
  V  V46  1  0.63932109  0.77047548  0.88051085  1
  V  V47  1  0.88046794  0.62578341  0.24217841  1
  V  V48  1  0.28611120  0.63461146  0.88140270  1
  V  V49  1  0.76106359  0.87329581  0.12380013  1
  V  V50  1  0.87787489  0.88120259  0.50129252  1
  V  V51  1  0.25076940  0.10683299  0.35927657  1
  V  V52  1  0.23914949  0.12377024  0.85143560  1
  V  V53  1  0.74510914  0.74651709  0.49903752  1
  V  V54  1  0.60899443  0.11406982  0.49606557  1
  V  V55  1  0.88154324  0.00328196  0.87038649  1
  V  V56  1  0.11632277  0.11437518  0.49346025  1
  V  V57  1  -0.00733584  0.48438422  -0.01247879  1
  V  V58  1  0.24072871  0.61028780  0.40313996  1
  V  V59  1  0.61980002  0.12214786  0.00862926  1
  V  V60  1  0.12065628  0.74233294  0.86479036  1
  V  V61  1  0.48194745  0.63432055  0.62246614  1
  V  V62  1  -0.00795632  0.27511630  0.74360423  1
  V  V63  1  0.86681432  0.24735291  0.61281077  1
  Zn  Zn64  1  0.17689714  0.17241621  0.18265673  1
  Zn  Zn65  1  0.17680962  0.19699138  0.67288865  1
  Zn  Zn66  1  0.19023624  0.68785596  0.19063417  1
  Zn  Zn67  1  0.09865043  0.69239251  0.66657480  1
  Zn  Zn68  1  0.69813944  0.18460563  0.19206046  1
  Zn  Zn69  1  0.66997468  0.16878760  0.68800590  1
  Zn  Zn70  1  0.70921814  0.68504258  0.19209729  1
  Zn  Zn71  1  0.69280973  0.68866155  0.68626906  1
  Zn  Zn72  1  0.27870889  0.31686560  0.19451486  1
  Zn  Zn73  1  0.31601814  0.30454863  0.81688383  1
  Zn  Zn74  1  0.35949516  0.69180012  0.28897475  1
  Zn  Zn75  1  0.30981411  0.82525462  0.82200572  1
  Zn  Zn76  1  0.81124027  0.30433000  0.30397219  1
  Zn  Zn77  1  0.78150071  0.27774770  0.76648651  1
  Zn  Zn78  1  0.81769684  0.80481704  0.31531945  1
  Zn  Zn79  1  0.81660017  0.81426376  0.80764326  1
  Zn  Zn80  1  0.21295438  0.40252551  0.36944284  1
  Zn  Zn81  1  0.18831370  0.44640069  0.92581843  1
  Zn  Zn82  1  0.17661063  0.93038371  0.43110053  1
  Zn  Zn83  1  0.17918378  0.94335788  0.92249386  1
  Zn  Zn84  1  0.69548329  0.42328739  0.43234505  1
  Zn  Zn85  1  0.56472448  0.41938540  0.95262734  1
  Zn  Zn86  1  0.70129889  0.93501978  0.44314608  1
  Zn  Zn87  1  0.69788205  0.94269095  0.94271304  1
  Zn  Zn88  1  0.29126415  0.04763246  0.02489160  1
  Zn  Zn89  1  0.39675519  0.12840557  0.48690520  1
  Zn  Zn90  1  0.30599381  0.55047705  0.04940759  1
  Zn  Zn91  1  0.27102607  0.62023350  0.61369730  1
  Zn  Zn92  1  0.81260396  0.05881456  0.05761187  1
  Zn  Zn93  1  0.81398079  0.07070942  0.55515244  1
  Zn  Zn94  1  0.82119954  0.55864789  0.06167221  1
  Zn  Zn95  1  0.80876324  0.56579540  0.56515951  1
  Zn  Zn96  1  0.41952679  0.39036467  0.22969315  1
  Zn  Zn97  1  0.45592167  0.45881404  0.70403616  1
  Zn  Zn98  1  0.47634500  0.85009551  0.33391241  1
  Zn  Zn99  1  0.44009236  0.92602448  0.71312868  1
  Zn  Zn100  1  0.94009356  0.44077162  0.17615627  1
  Zn  Zn101  1  0.96872004  0.56219944  0.66397929  1
  Zn  Zn102  1  0.95107438  0.93002654  0.18580298  1
  Zn  Zn103  1  0.93341008  0.93203569  0.68415123  1
  Zn  Zn104  1  0.05655611  0.06528584  0.30087087  1
  Zn  Zn105  1  0.06001397  0.06699439  0.79902314  1
  Zn  Zn106  1  0.06058221  0.56248223  0.31344665  1
  Zn  Zn107  1  0.07933413  0.54929569  0.80918005  1
  Zn  Zn108  1  0.59213711  0.01999409  0.34575767  1
  Zn  Zn109  1  0.57288624  0.05050712  0.81801762  1
  Zn  Zn110  1  0.58204284  0.55776649  0.30939974  1
  Zn  Zn111  1  0.55547992  0.57076805  0.81866780  1
  Zn  Zn112  1  0.38950783  0.24017553  0.35824237  1
  Zn  Zn113  1  0.42371992  0.16375812  0.94941143  1
  Zn  Zn114  1  0.41361426  0.70799075  0.45622291  1
  Zn  Zn115  1  0.44879888  0.73753804  0.94409826  1
  Zn  Zn116  1  0.93742430  0.18937834  0.43706887  1
  Zn  Zn117  1  0.93711130  0.19431259  0.92846933  1
  Zn  Zn118  1  0.92452129  0.67765355  0.43519059  1
  Zn  Zn119  1  0.94242846  0.68743869  0.94205753  1
  Zn  Zn120  1  0.06057271  0.31300204  0.05768138  1
  Zn  Zn121  1  0.04696676  0.30400887  0.54294788  1
  Zn  Zn122  1  0.06300699  0.81433518  0.05544515  1
  Zn  Zn123  1  0.04786233  0.82554809  0.56486719  1
  Zn  Zn124  1  0.68789457  0.31001907  0.05395615  1
  Zn  Zn125  1  0.60513261  0.31645614  0.54428818  1
  Zn  Zn126  1  0.58054124  0.78648692  0.08958579  1
  Zn  Zn127  1  0.56267088  0.80926022  0.56458332  1
  O  O128  1  0.11054189  0.11785760  0.10632991  1
  O  O129  1  0.11131051  0.13118256  0.60354312  1
  O  O130  1  0.13086620  0.62725244  0.10870533  1
  O  O131  1  0.06059304  0.59755908  0.71207637  1
  O  O132  1  0.64105875  0.11388842  0.11622781  1
  O  O133  1  0.62948462  0.12240340  0.59488595  1
  O  O134  1  0.61270212  0.67345868  0.12809845  1
  O  O135  1  0.62688248  0.61027388  0.63128322  1
  O  O136  1  0.44467757  0.48645352  0.37918573  1
  O  O137  1  0.38675328  0.37212298  0.88762094  1
  O  O138  1  0.43054142  0.89424112  0.53660990  1
  O  O139  1  0.37474524  0.88600522  0.89614042  1
  O  O140  1  0.88800171  0.36387208  0.36392383  1
  O  O141  1  0.73789832  0.43032248  0.93278731  1
  O  O142  1  0.88924676  0.86475160  0.38542836  1
  O  O143  1  0.88293317  0.88170512  0.87825846  1
  O  O144  1  0.23672285  0.00785997  0.37166505  1
  O  O145  1  0.24777729  0.02427207  0.87774453  1
  O  O146  1  0.23326164  0.51579950  0.35253120  1
  O  O147  1  0.29210052  0.51617107  0.89239611  1
  O  O148  1  0.75673292  0.00248693  0.35717115  1
  O  O149  1  0.76328546  0.00490870  0.86844596  1
  O  O150  1  0.75083449  0.50587921  0.37653823  1
  O  O151  1  0.72467962  0.49220197  0.89437484  1
  O  O152  1  0.23731197  0.50819174  0.13206334  1
  O  O153  1  0.25563215  0.52009625  0.66752905  1
  O  O154  1  0.23287017  1.00918326  0.10997921  1
  O  O155  1  0.30008189  1.07119772  0.62226478  1
  O  O156  1  0.75147620  0.49743451  0.13194769  1
  O  O157  1  0.73523148  0.49488506  0.62410964  1
  O  O158  1  0.75600835  0.98926438  0.13166266  1
  O  O159  1  0.76339017  1.01217037  0.64283212  1
  O  O160  1  -0.00413031  0.35881394  0.24644914  1
  O  O161  1  -0.00165678  0.37025175  0.74684741  1
  O  O162  1  -0.01027665  0.85214357  0.26059647  1
  O  O163  1  0.00097154  0.87328041  0.76029852  1
  O  O164  1  0.52697165  0.38951204  0.25584468  1
  O  O165  1  0.50604201  0.36203930  0.73681090  1
  O  O166  1  0.53950323  0.84741503  0.23522074  1
  O  O167  1  0.52907361  0.86330373  0.74841615  1
  O  O168  1  0.46018766  0.07210701  0.26429406  1
  O  O169  1  0.53152628  0.12361210  0.73591272  1
  O  O170  1  0.53202807  0.64044886  0.23456364  1
  O  O171  1  0.50388839  0.64381165  0.74866901  1
  O  O172  1  0.99607942  0.13283234  0.22624030  1
  O  O173  1  1.00966199  0.13771238  0.72540386  1
  O  O174  1  0.98799937  0.63024713  0.25140134  1
  O  O175  1  0.90638164  0.61126965  0.80585349  1
  O  O176  1  0.35308802  0.25153767  -0.00626096  1
  O  O177  1  0.35079437  0.23659778  0.47529065  1
  O  O178  1  0.34850065  0.76353322  -0.00224545  1
  O  O179  1  0.32791218  0.74413707  0.52752868  1
  O  O180  1  0.88023664  0.25554610  0.00407826  1
  O  O181  1  0.87393590  0.25373008  0.51333957  1
  O  O182  1  0.86674179  0.76413101  -0.01206503  1
  O  O183  1  0.87511942  0.75093384  0.51125415  1
  O  O184  1  0.12145552  0.24495891  0.47774763  1
  O  O185  1  0.12683743  0.24380883  0.98822910  1
  O  O186  1  0.10156874  0.74389591  0.49242539  1
  O  O187  1  0.13184586  0.74248304  0.99285861  1
  O  O188  1  0.62425101  0.22863719  0.47443297  1
  O  O189  1  0.63449647  0.23368233  0.98286666  1
  O  O190  1  0.64667561  0.75787137  0.50579946  1
  O  O191  1  0.64431804  0.75376879  0.98733822  1
  O  O192  1  0.48556483  0.20438239  0.17029948  1
  O  O193  1  0.48847075  0.28564577  0.58752751  1
  O  O194  1  0.47823852  0.75093883  0.05835228  1
  O  O195  1  0.51122547  0.74341681  0.64661490  1
  O  O196  1  0.99228585  0.24397645  0.12544575  1
  O  O197  1  0.98670906  0.25754731  0.62855751  1
  O  O198  1  1.00588317  0.75279810  0.13525781  1
  O  O199  1  0.99469942  0.73895547  0.62557730  1
  O  O200  1  -0.00326292  0.24963853  0.35446998  1
  O  O201  1  0.00792476  0.24511810  0.85459916  1
  O  O202  1  0.00331639  0.74315967  0.36879687  1
  O  O203  1  0.01461305  0.75654509  0.87891094  1
  O  O204  1  0.50899778  0.24217334  0.36131266  1
  O  O205  1  0.50553397  0.22099823  0.88054211  1
  O  O206  1  0.47755622  0.84555190  0.49131167  1
  O  O207  1  0.53125416  0.74412899  0.86690951  1
  O  O208  1  0.22364917  0.13900630  0.47316216  1
  O  O209  1  0.22997780  0.14135406  0.98673192  1
  O  O210  1  0.23577320  0.58877689  0.49957810  1
  O  O211  1  0.23874274  0.62945114  0.98613738  1
  O  O212  1  0.74175506  0.11084541  0.47720891  1
  O  O213  1  0.74577297  0.11746654  0.98466716  1
  O  O214  1  0.75343371  0.62939930  0.48844284  1
  O  O215  1  0.76358229  0.64080882  1.00211597  1
  O  O216  1  0.24609537  0.35867147  -0.01171332  1
  O  O217  1  0.24419273  0.35530627  0.46729889  1
  O  O218  1  0.23045397  0.86868495  -0.00410916  1
  O  O219  1  0.21779235  0.86022583  0.51300918  1
  O  O220  1  0.67552981  0.41341313  -0.00256059  1
  O  O221  1  0.71832653  0.35933970  0.52968090  1
  O  O222  1  0.76595345  0.87200341  0.00661204  1
  O  O223  1  0.76862522  0.85897458  0.49307024  1
  O  O224  1  0.11783157  0.51118234  0.22714593  1
  O  O225  1  0.17420859  0.48727116  0.81181110  1
  O  O226  1  0.12165598  1.00682949  0.22627396  1
  O  O227  1  0.12327007  0.98304295  0.75766832  1
  O  O228  1  0.64755555  0.48323928  0.25470164  1
  O  O229  1  0.60688242  0.47950710  0.76710935  1
  O  O230  1  0.64728990  0.98621676  0.23829998  1
  O  O231  1  0.64060548  0.98379570  0.75063920  1
  O  O232  1  0.43245575  0.00666122  0.28507782  1
  O  O233  1  0.38544020  -0.00352220  0.77768928  1
  O  O234  1  0.36514850  0.49675249  0.23366484  1
  O  O235  1  0.38382651  0.49798215  0.78199449  1
  O  O236  1  0.87307612  -0.00512527  0.24201447  1
  O  O237  1  0.86448830  -0.00956749  0.76178854  1
  O  O238  1  0.86768999  0.50395095  0.24218759  1
  O  O239  1  0.88949989  0.54575596  0.76893195  1
  O  O240  1  0.10574594  0.35276869  0.36110155  1
  O  O241  1  0.12151472  0.35952197  0.87988349  1
  O  O242  1  0.10724491  0.85257580  0.37544532  1
  O  O243  1  0.11751550  0.86570558  0.86651550  1
  O  O244  1  0.63653449  0.34889893  0.36793608  1
  O  O245  1  0.60409220  0.35083491  0.86470944  1
  O  O246  1  0.62835582  0.88738091  0.36019884  1
  O  O247  1  0.63398706  0.87056049  0.87784549  1
  O  O248  1  0.42429371  0.17734742  0.14446691  1
  O  O249  1  0.43676772  0.12740065  0.64498703  1
  O  O250  1  0.37985572  0.62465829  0.09712087  1
  O  O251  1  0.38484935  0.62846604  0.63761316  1
  O  O252  1  0.88735750  0.13152351  0.10628888  1
  O  O253  1  0.89045573  0.13652634  0.61412799  1
  O  O254  1  0.86896190  0.62535518  0.14162505  1
  O  O255  1  0.88194134  0.62793631  0.62551914  1
  O  O256  1  0.23414263  0.24952852  0.11192955  1
  O  O257  1  0.23684556  0.25332765  0.59391379  1
  O  O258  1  0.25602614  0.74573611  0.10765746  1
  O  O259  1  0.19732936  0.70973494  0.60853862  1
  O  O260  1  0.76351600  0.24774904  0.11661175  1
  O  O261  1  0.76712254  0.23252138  0.64327107  1
  O  O262  1  0.75080325  0.76077628  0.10749488  1
  O  O263  1  0.76598318  0.73213216  0.60850607  1
  O  O264  1  0.22293042  0.24029383  0.36145392  1
  O  O265  1  0.22871434  0.24272743  0.87413571  1
  O  O266  1  0.22401557  0.73091239  0.40968375  1
  O  O267  1  0.24261383  0.74615197  0.88527079  1
  O  O268  1  0.75213489  0.22693858  0.36201070  1
  O  O269  1  0.75777461  0.22812306  0.86696366  1
  O  O270  1  0.76377624  0.73752169  0.39261012  1
  O  O271  1  0.74804957  0.75808859  0.88452826  1
  O  O272  1  0.00976024  0.13521439  0.00202625  1
  O  O273  1  0.00732836  0.13218879  0.50636596  1
  O  O274  1  0.01774813  0.62351096  -0.00108184  1
  O  O275  1  -0.01390372  0.58983960  0.47672659  1
  O  O276  1  0.52212844  0.12530817  0.00817351  1
  O  O277  1  0.50890668  0.11776980  0.49077913  1
  O  O278  1  0.52322035  0.48328763  0.11533221  1
  O  O279  1  0.48958210  0.65706113  0.52450160  1
  O  O280  1  0.50500880  0.37904207  0.49695037  1
  O  O281  1  0.48797528  0.35110658  1.01140435  1
  O  O282  1  0.47269303  0.91964328  0.60097107  1
  O  O283  1  0.43487076  0.91274703  1.05595855  1
  O  O284  1  0.99846706  0.38026783  0.47390350  1
  O  O285  1  1.00184947  0.38397672  0.99227166  1
  O  O286  1  0.99083104  0.87788662  0.48293048  1
  O  O287  1  0.98789044  0.87009379  0.98499323  1
  O  O288  1  0.49744986  0.54802189  0.39048139  1
  O  O289  1  0.49774528  0.50166900  0.89512758  1
  O  O290  1  0.48227795  0.96730627  0.34649253  1
  O  O291  1  0.50553813  0.98552299  0.88143335  1
  O  O292  1  0.99879805  0.48046058  0.36508978  1
  O  O293  1  1.01341560  0.50595505  0.89001803  1
  O  O294  1  1.00432259  0.97888887  0.35598550  1
  O  O295  1  0.98571681  0.99580038  0.86454841  1
  O  O296  1  0.00189792  0.01346936  0.11988964  1
  O  O297  1  -0.00749288  0.01416840  0.62776061  1
  O  O298  1  0.01637046  0.49591715  0.10665272  1
  O  O299  1  -0.01233155  0.47870081  0.59138251  1
  O  O300  1  0.52787921  -0.00101193  0.13641851  1
  O  O301  1  0.48785310  0.08382180  0.67633586  1
  O  O302  1  0.55109849  0.62598215  0.15953943  1
  O  O303  1  0.50704743  0.52213917  0.62579522  1
  O  O304  1  0.23850227  0.40740586  0.25433057  1
  O  O305  1  0.28040471  0.38805357  0.75166752  1
  O  O306  1  0.42240030  0.75918291  0.35710655  1
  O  O307  1  0.23981774  0.87259560  0.74843370  1
  O  O308  1  0.75171401  0.38379669  0.24920945  1
  O  O309  1  0.71959900  0.36494386  0.72914305  1
  O  O310  1  0.76218471  0.88298569  0.24000547  1
  O  O311  1  0.74586762  0.88679154  0.75003533  1
  O  O312  1  0.24110149  0.12340380  0.25959340  1
  O  O313  1  0.22326550  0.12960085  0.75425665  1
  O  O314  1  0.26457550  0.62437791  0.24995360  1
  O  O315  1  0.26781408  0.62008409  0.78462380  1
  O  O316  1  0.75767540  0.10813873  0.25392826  1
  O  O317  1  0.73751480  0.10664962  0.76637365  1
  O  O318  1  0.76005027  0.60595310  0.25401907  1
  O  O319  1  0.70855464  0.62328989  0.79072442  1
  O  O320  1  0.35190719  0.12454812  0.37232893  1
  O  O321  1  0.34980864  0.15051897  0.84536228  1
  O  O322  1  0.34110237  0.63046880  0.38998918  1
  O  O323  1  0.38409269  0.64740811  0.89484781  1
  O  O324  1  0.86782196  0.12172200  0.38030692  1
  O  O325  1  0.86867097  0.11085323  0.87936462  1
  O  O326  1  0.85996634  0.62190574  0.35597114  1
  O  O327  1  0.86875197  0.62227685  0.87621543  1
  O  O328  1  0.12744501  0.38460830  0.12166208  1
  O  O329  1  0.12544667  0.38898395  0.61679521  1
  O  O330  1  0.11253212  0.89699487  0.11153075  1
  O  O331  1  0.11338849  0.86864253  0.64448580  1
  O  O332  1  0.63254993  0.35858787  0.14346423  1
  O  O333  1  0.61629845  0.39862117  0.63434234  1
  O  O334  1  0.64378333  0.88010664  0.12631857  1
  O  O335  1  0.63753070  0.87300763  0.62879047  1
  O  O336  1  0.10492034  0.23724033  0.25035413  1
  O  O337  1  0.11455825  0.25987118  0.75201340  1
  O  O338  1  0.10774437  0.73854133  0.25608584  1
  O  O339  1  0.12777492  0.75780556  0.76443681  1
  O  O340  1  0.63346007  0.25515067  0.25590719  1
  O  O341  1  0.62730260  0.24303667  0.76887738  1
  O  O342  1  0.67229771  0.76807878  0.26113786  1
  O  O343  1  0.64031267  0.76751020  0.75934168  1
  O  O344  1  0.36077225  0.30303263  0.27205275  1
  O  O345  1  0.36699999  0.20648745  0.78685868  1
  O  O346  1  0.38540985  0.75412576  0.19575637  1
  O  O347  1  0.40201159  0.77503046  0.76654941  1
  O  O348  1  0.88481133  0.24528393  0.22999132  1
  O  O349  1  0.88887686  0.25441960  0.74043791  1
  O  O350  1  0.88528522  0.73557030  0.24919952  1
  O  O351  1  0.86654956  0.75448554  0.72640253  1
  O  O352  1  0.39257085  0.47794869  0.43229041  1
  O  O353  1  0.37693484  0.46810319  1.00184955  1
  O  O354  1  0.35117632  1.02071029  0.51028518  1
  O  O355  1  0.38096390  1.05222827  0.95946622  1
  O  O356  1  0.86243177  0.48856340  0.49708896  1
  O  O357  1  0.89432269  0.50309450  0.99940088  1
  O  O358  1  0.86677466  0.97969306  0.50552351  1
  O  O359  1  0.87190847  0.98543349  0.98265207  1
  O  O360  1  0.12153133  0.01748169  -0.00535513  1
  O  O361  1  0.12060761  0.01552461  0.48987444  1
  O  O362  1  0.12902273  0.51121946  0.00624930  1
  O  O363  1  0.15853713  0.43975470  0.57593788  1
  O  O364  1  0.63505991  0.00818004  0.01442908  1
  O  O365  1  0.61934989  0.01047075  0.46676286  1
  O  O366  1  0.54246255  0.51168131  0.05043921  1
  O  O367  1  0.62370884  0.50025584  0.50596412  1
  O  O368  1  0.37055102  0.36074685  0.11932091  1
  O  O369  1  0.45548080  0.34496150  0.54816018  1
  O  O370  1  0.37308818  0.92052937  0.09306217  1
  O  O371  1  0.30744421  1.01110318  0.57756714  1
  O  O372  1  0.87829301  0.36207336  0.11868904  1
  O  O373  1  0.84644024  0.36422280  0.62696685  1
  O  O374  1  0.87801574  0.88009523  0.10640381  1
  O  O375  1  0.89101640  0.85929696  0.60738850  1
  O  O376  1  0.11037287  0.13150738  0.37619429  1
  O  O377  1  0.12239523  0.13279583  0.87799302  1
  O  O378  1  0.12857808  0.63282089  0.37263415  1
  O  O379  1  0.12468906  0.64020535  0.88143711  1
  O  O380  1  0.63051247  0.13060831  0.36709073  1
  O  O381  1  0.63546935  0.12299780  0.88690126  1
  O  O382  1  0.65190120  0.62976613  0.36376839  1
  O  O383  1  0.65343384  0.63601558  0.84625947  1
