# generated using pymatgen
data_VZnO4
_symmetry_space_group_name_H-M   'P 1'
_cell_length_a   16.99517797
_cell_length_b   16.92814516
_cell_length_c   16.94671148
_cell_angle_alpha   89.81291434
_cell_angle_beta   89.89058079
_cell_angle_gamma   90.73766191
_symmetry_Int_Tables_number   1
_chemical_formula_structural   VZnO4
_chemical_formula_sum   'V64 Zn64 O256'
_cell_volume   4875.07599199
_cell_formula_units_Z   64
loop_
 _symmetry_equiv_pos_site_id
 _symmetry_equiv_pos_as_xyz
  1  'x, y, z'
loop_
 _atom_site_type_symbol
 _atom_site_label
 _atom_site_symmetry_multiplicity
 _atom_site_fract_x
 _atom_site_fract_y
 _atom_site_fract_z
 _atom_site_occupancy
  V  V0  1  0.11552417  0.51136262  0.13862386  1
  V  V1  1  0.24448567  0.63086294  0.87068244  1
  V  V2  1  0.87908402  0.87628889  0.01167627  1
  V  V3  1  -0.00283379  0.12195574  0.62955879  1
  V  V4  1  0.75173907  0.73920553  0.47906006  1
  V  V5  1  0.36327645  0.37529917  0.49786944  1
  V  V6  1  0.26239843  0.84527450  0.61570571  1
  V  V7  1  0.14155033  -0.00678913  0.12335150  1
  V  V8  1  0.24646269  0.50007845  0.25654752  1
  V  V9  1  0.76249179  0.11854752  0.39641161  1
  V  V10  1  0.37265012  0.14526332  0.26533015  1
  V  V11  1  0.90841531  0.37531907  0.01012200  1
  V  V12  1  0.87316331  -0.01352053  0.36036945  1
  V  V13  1  0.49436859  0.15103546  0.12984609  1
  V  V14  1  0.66179695  0.23430667  0.88126271  1
  V  V15  1  0.38858857  0.63970070  0.75381655  1
  V  V16  1  -0.00816879  0.87151154  0.87269246  1
  V  V17  1  0.14383331  0.00146384  0.62957065  1
  V  V18  1  0.63917277  0.60877296  -0.00194528  1
  V  V19  1  0.26176666  0.75307828  0.01950373  1
  V  V20  1  0.69999755  0.35616625  0.75979658  1
  V  V21  1  0.36070143  0.02134694  0.86346085  1
  V  V22  1  0.02991932  0.24596471  0.25169786  1
  V  V23  1  -0.00732917  0.71637239  0.24286931  1
  V  V24  1  0.49672613  0.01180731  0.00813343  1
  V  V25  1  0.01000882  0.36696643  0.37248306  1
  V  V26  1  0.24207862  0.63868137  0.39474923  1
  V  V27  1  0.10431863  0.87375629  0.26392051  1
  V  V28  1  0.87176218  0.50741768  0.37754929  1
  V  V29  1  -0.01038095  0.65121606  0.61065498  1
  V  V30  1  0.36235816  0.64729980  0.24597201  1
  V  V31  1  0.74783405  -0.00748951  0.75433379  1
  V  V32  1  0.86662099  0.24922810  0.62036399  1
  V  V33  1  0.76421689  0.86353052  0.62106460  1
  V  V34  1  0.73567761  0.88645326  0.12023890  1
  V  V35  1  0.25283947  -0.00900613  0.27611291  1
  V  V36  1  0.37801726  0.38751230  0.01277192  1
  V  V37  1  0.83195848  0.59353596  0.20614497  1
  V  V38  1  0.12286153  0.11523808  0.48109462  1
  V  V39  1  0.48642494  0.64249478  0.10824400  1
  V  V40  1  0.62783372  0.14459958  0.49705698  1
  V  V41  1  0.60531330  0.86388806  0.74106937  1
  V  V42  1  -0.01460459  -0.01769402  0.50038674  1
  V  V43  1  0.13240676  0.85995257  0.74412523  1
  V  V44  1  0.50361037  0.89138616  0.37124963  1
  V  V45  1  0.13891168  0.12830789  -0.00752941  1
  V  V46  1  0.24511936  0.36421235  0.13667197  1
  V  V47  1  0.87607792  0.11396340  0.76381582  1
  V  V48  1  0.86628980  0.36250007  0.48928300  1
  V  V49  1  0.02228188  0.51648289  -0.01841783  1
  V  V50  1  0.00827665  0.12005095  0.12670093  1
  V  V51  1  0.23124830  0.24676804  0.49959974  1
  V  V52  1  0.37759034  0.90911082  0.49690297  1
  V  V53  1  0.89430657  0.60384635  0.78212023  1
  V  V54  1  0.38880195  0.51535727  0.38448561  1
  V  V55  1  0.86312079  0.24264972  0.11993886  1
  V  V56  1  0.51537611  0.76054320  0.25419537  1
  V  V57  1  0.50465629  0.15978952  0.62704584  1
  V  V58  1  0.65475813  0.49436292  0.64134047  1
  V  V59  1  0.45927254  0.36785563  0.84921257  1
  V  V60  1  0.48510054  0.88395496  0.87534581  1
  V  V61  1  0.61016534  0.00160276  0.61729155  1
  V  V62  1  0.61175047  0.75590846  0.89767035  1
  V  V63  1  0.09850186  0.50071056  0.58592854  1
  Zn  Zn64  1  0.19447350  0.17100865  0.19985181  1
  Zn  Zn65  1  0.18311883  0.19550782  0.66528656  1
  Zn  Zn66  1  0.17475758  0.69619964  0.19842267  1
  Zn  Zn67  1  0.19154812  0.64371261  0.67445124  1
  Zn  Zn68  1  0.67771440  0.16281649  0.05352681  1
  Zn  Zn69  1  0.69363132  0.17455297  0.69064246  1
  Zn  Zn70  1  0.67548228  0.69015087  0.17380962  1
  Zn  Zn71  1  0.63875357  0.70816398  0.62902672  1
  Zn  Zn72  1  0.30732352  0.32328143  0.32945773  1
  Zn  Zn73  1  0.25891656  0.24231079  1.01519268  1
  Zn  Zn74  1  0.29860427  0.82674215  0.31322385  1
  Zn  Zn75  1  0.30997230  0.80858722  0.80350048  1
  Zn  Zn76  1  0.82699247  0.28667131  0.31375353  1
  Zn  Zn77  1  0.84672500  0.29268350  0.84802771  1
  Zn  Zn78  1  0.83182582  0.78123493  0.30721411  1
  Zn  Zn79  1  0.81170310  0.78428770  0.86533046  1
  Zn  Zn80  1  0.19283024  0.43240082  0.43894419  1
  Zn  Zn81  1  0.21839350  0.46421480  0.96974375  1
  Zn  Zn82  1  0.17472084  0.90794437  0.44775017  1
  Zn  Zn83  1  0.17015136  0.94775590  0.92470386  1
  Zn  Zn84  1  0.74309574  0.49053240  0.49976472  1
  Zn  Zn85  1  0.62388107  0.44618652  0.91046557  1
  Zn  Zn86  1  0.69396610  0.94121863  0.43906689  1
  Zn  Zn87  1  0.70565321  0.99059594  0.96299837  1
  Zn  Zn88  1  0.32464642  0.05605706  0.06681771  1
  Zn  Zn89  1  0.31903831  0.07901571  0.56383812  1
  Zn  Zn90  1  0.30281120  0.57456473  0.06836066  1
  Zn  Zn91  1  0.28985194  0.53636098  0.56584079  1
  Zn  Zn92  1  0.82934023  0.04998840  0.07074061  1
  Zn  Zn93  1  0.81089402  0.04952378  0.56799248  1
  Zn  Zn94  1  0.84103133  0.57342211  -0.00899732  1
  Zn  Zn95  1  0.78378254  0.62309603  0.61851880  1
  Zn  Zn96  1  0.42413508  0.46181396  0.17430739  1
  Zn  Zn97  1  0.45643443  0.43535772  0.66877560  1
  Zn  Zn98  1  0.42449558  0.92820357  0.18258936  1
  Zn  Zn99  1  0.42806594  0.94920909  0.68585964  1
  Zn  Zn100  1  0.93314271  0.42702249  0.19718973  1
  Zn  Zn101  1  0.88802590  0.47667479  0.64360523  1
  Zn  Zn102  1  0.92568521  0.94293223  0.18287149  1
  Zn  Zn103  1  0.94409635  0.93219370  0.69279392  1
  Zn  Zn104  1  0.04937857  0.04759685  0.30587385  1
  Zn  Zn105  1  0.06571028  0.05079462  0.81368962  1
  Zn  Zn106  1  0.06684100  0.55258504  0.34672680  1
  Zn  Zn107  1  0.06871567  0.69672784  0.80584394  1
  Zn  Zn108  1  0.54839315  0.09030131  0.32661114  1
  Zn  Zn109  1  0.55355694  0.06820717  0.80504452  1
  Zn  Zn110  1  0.54673321  0.56265571  0.27959815  1
  Zn  Zn111  1  0.54985492  0.54833158  0.79068849  1
  Zn  Zn112  1  0.42035415  0.17585433  0.46772811  1
  Zn  Zn113  1  0.42576436  0.19600323  0.93913105  1
  Zn  Zn114  1  0.39426844  0.73472697  0.41080448  1
  Zn  Zn115  1  0.40477181  0.71308338  0.92799667  1
  Zn  Zn116  1  0.94518875  0.18205365  0.43801595  1
  Zn  Zn117  1  0.95170346  0.17992413  0.94479631  1
  Zn  Zn118  1  0.93075776  0.71000379  0.43091683  1
  Zn  Zn119  1  0.94724491  0.70095950  0.94809181  1
  Zn  Zn120  1  0.07883078  0.31137140  0.06540455  1
  Zn  Zn121  1  0.05467406  0.30909914  0.55969130  1
  Zn  Zn122  1  0.05460146  0.81165032  0.07130509  1
  Zn  Zn123  1  0.06584448  0.80187232  0.56076795  1
  Zn  Zn124  1  0.53762566  0.29486014  0.01700816  1
  Zn  Zn125  1  0.61796818  0.33277721  0.56520278  1
  Zn  Zn126  1  0.54997318  0.83247186  0.06796362  1
  Zn  Zn127  1  0.58104169  0.83433067  0.51922032  1
  O  O128  1  0.12490572  0.11363592  0.12473893  1
  O  O129  1  0.11529169  0.11320588  0.62411098  1
  O  O130  1  0.12470272  0.61040593  0.13908240  1
  O  O131  1  0.09151580  0.62460900  0.62423771  1
  O  O132  1  0.59369352  0.13128262  0.12666899  1
  O  O133  1  0.62176967  0.12366401  0.61454363  1
  O  O134  1  0.60325050  0.64738606  0.09276936  1
  O  O135  1  0.66335413  0.59900868  0.64695198  1
  O  O136  1  0.37623499  0.39930329  0.39242319  1
  O  O137  1  0.37118134  0.38536353  0.89715687  1
  O  O138  1  0.37957810  0.86583623  0.39430069  1
  O  O139  1  0.38504872  0.88355252  0.86015026  1
  O  O140  1  0.87775744  0.36352229  0.37819028  1
  O  O141  1  0.84106205  0.37022772  0.93579447  1
  O  O142  1  0.85556170  0.88871902  0.35559630  1
  O  O143  1  0.89356683  0.88041002  0.85619018  1
  O  O144  1  0.23778660  -0.01383551  0.37435051  1
  O  O145  1  0.26367236  -0.00010809  0.88293356  1
  O  O146  1  0.25824492  0.51295951  0.36782718  1
  O  O147  1  0.24036822  0.52854981  0.88383917  1
  O  O148  1  0.76102837  0.00905173  0.37452181  1
  O  O149  1  0.73871497  -0.01979541  0.85198334  1
  O  O150  1  0.77068957  0.50206531  0.38945419  1
  O  O151  1  0.66300475  0.52191826  0.81898230  1
  O  O152  1  0.24250879  0.50323090  0.14515545  1
  O  O153  1  0.19561424  0.52981103  0.63152403  1
  O  O154  1  0.24239549  0.99966005  0.13667079  1
  O  O155  1  0.24212503  1.01956577  0.62253399  1
  O  O156  1  0.69902767  0.43470265  0.13647318  1
  O  O157  1  0.77181824  0.49886823  0.61354417  1
  O  O158  1  0.77868224  0.97546711  0.14867569  1
  O  O159  1  0.73840297  0.98562051  0.62938891  1
  O  O160  1  -0.00029199  0.35189220  0.25724855  1
  O  O161  1  0.01658796  0.28182926  0.80262951  1
  O  O162  1  0.00729365  0.88840221  0.24084316  1
  O  O163  1  0.02329425  0.87658899  0.75616434  1
  O  O164  1  0.52855239  0.40832473  0.22345941  1
  O  O165  1  0.44022285  0.35650851  0.75145267  1
  O  O166  1  0.49369013  0.86913345  0.25848927  1
  O  O167  1  0.50366541  0.89256101  0.75330638  1
  O  O168  1  0.48662537  0.13663409  0.24488886  1
  O  O169  1  0.50390484  0.13993762  0.72523487  1
  O  O170  1  0.48335583  0.64938888  0.24450910  1
  O  O171  1  0.49032523  0.63074391  0.74913490  1
  O  O172  1  1.00918187  0.13526181  0.23985622  1
  O  O173  1  0.99114721  0.10030023  0.73644495  1
  O  O174  1  1.01936323  0.62382782  0.26418660  1
  O  O175  1  0.99188737  0.62932786  0.76104743  1
  O  O176  1  0.36621484  0.27388526  0.00083992  1
  O  O177  1  0.35113348  0.26843558  0.49390628  1
  O  O178  1  0.35929772  0.78105916  0.02029680  1
  O  O179  1  0.41036364  0.70036132  0.53047489  1
  O  O180  1  0.90768698  0.25863173  0.01873678  1
  O  O181  1  0.88144400  0.24510369  0.51176846  1
  O  O182  1  0.85859904  0.77294540  -0.03081471  1
  O  O183  1  0.85045961  0.76311955  0.49197220  1
  O  O184  1  0.12204653  0.22668549  0.49755197  1
  O  O185  1  0.14000554  0.23533200  1.00191807  1
  O  O186  1  0.14556334  0.80147290  0.48640672  1
  O  O187  1  0.14684704  0.78647688  0.99323817  1
  O  O188  1  0.64471211  0.24314601  0.49900129  1
  O  O189  1  0.63532017  0.24945950  0.98650480  1
  O  O190  1  0.63803090  0.74112165  0.51956802  1
  O  O191  1  0.62346641  0.77660078  0.99347882  1
  O  O192  1  0.49312625  0.25011450  0.11738886  1
  O  O193  1  0.53071801  0.25657646  0.61457243  1
  O  O194  1  0.49827739  0.75574116  0.14118382  1
  O  O195  1  0.46517216  0.72458168  0.57448231  1
  O  O196  1  1.01947158  0.24107683  0.14111854  1
  O  O197  1  1.00448832  0.22570245  0.62552581  1
  O  O198  1  0.99909666  0.74106871  0.14272120  1
  O  O199  1  0.99569356  0.75177892  0.63172475  1
  O  O200  1  -0.00466556  0.24736412  0.35720810  1
  O  O201  1  -0.03849252  0.27716708  0.87435832  1
  O  O202  1  -0.04783437  0.76233060  0.33089478  1
  O  O203  1  0.01131616  0.76742853  0.87354315  1
  O  O204  1  0.50870200  0.28896830  0.39861477  1
  O  O205  1  0.50042248  0.28109112  0.89395029  1
  O  O206  1  0.49503449  0.76248369  0.36045035  1
  O  O207  1  0.49758311  0.77320015  0.88126294  1
  O  O208  1  0.23823641  0.13890403  0.49487595  1
  O  O209  1  0.24380405  0.12479816  1.01187040  1
  O  O210  1  0.25680562  0.62004830  0.49111047  1
  O  O211  1  0.25770465  0.64515055  0.99374818  1
  O  O212  1  0.74596933  0.12140573  0.50013052  1
  O  O213  1  0.74465194  0.08659721  1.00950024  1
  O  O214  1  0.75530868  0.63802344  0.50514562  1
  O  O215  1  0.73756326  0.62028650  0.99205174  1
  O  O216  1  0.24802633  0.36946204  0.02491880  1
  O  O217  1  0.27655765  0.41911347  0.52822408  1
  O  O218  1  0.20369411  0.84873618  -0.00466328  1
  O  O219  1  0.27109485  0.88506353  0.51004808  1
  O  O220  1  0.67950081  0.37706796  0.09703661  1
  O  O221  1  0.76790893  0.36167133  0.49553906  1
  O  O222  1  0.75861038  0.88916685  0.01467500  1
  O  O223  1  0.73790234  0.86620148  0.51632052  1
  O  O224  1  0.14219878  0.50466626  0.25657468  1
  O  O225  1  0.05264440  0.34632928  0.79726609  1
  O  O226  1  0.13263301  0.99696216  0.24299700  1
  O  O227  1  0.12798273  0.99225317  0.73129735  1
  O  O228  1  0.58554171  0.45687359  0.23944404  1
  O  O229  1  0.69557914  0.47516104  0.75826933  1
  O  O230  1  0.65250062  1.04106586  0.24290611  1
  O  O231  1  0.63323404  1.00728912  0.73376812  1
  O  O232  1  0.35234574  -0.02336999  0.26115649  1
  O  O233  1  0.37040945  0.00828202  0.76136195  1
  O  O234  1  0.36400289  0.51933719  0.25793040  1
  O  O235  1  0.37701666  0.51903512  0.70726459  1
  O  O236  1  0.88798079  0.01316664  0.26532887  1
  O  O237  1  0.86144272  0.00229275  0.74185725  1
  O  O238  1  0.86787313  0.50389283  0.25890630  1
  O  O239  1  0.87842104  0.50742026  0.75856811  1
  O  O240  1  0.10711276  0.38140007  0.37496366  1
  O  O241  1  0.24448055  0.39006711  0.78707034  1
  O  O242  1  0.10146794  0.88979016  0.36159201  1
  O  O243  1  0.15897966  0.86660616  0.83970602  1
  O  O244  1  0.67317228  0.37041594  0.33911201  1
  O  O245  1  0.66306148  0.35387641  0.86352117  1
  O  O246  1  0.60273963  0.88059432  0.39584189  1
  O  O247  1  0.60450592  0.86593775  0.85049478  1
  O  O248  1  0.38335922  0.11855448  0.15014599  1
  O  O249  1  0.40478350  0.14860813  0.58908056  1
  O  O250  1  0.37254851  0.63492032  0.14126627  1
  O  O251  1  0.36605540  0.58074670  0.65092269  1
  O  O252  1  0.89965098  0.13431245  0.11371878  1
  O  O253  1  0.89055615  0.12280230  0.61756826  1
  O  O254  1  0.84947295  0.58071520  0.10978795  1
  O  O255  1  0.89222084  0.62077349  0.64922460  1
  O  O256  1  0.24303862  0.26286456  0.14164729  1
  O  O257  1  0.22980644  0.27452796  0.59743700  1
  O  O258  1  0.23929845  0.74387231  0.11776386  1
  O  O259  1  0.25555961  0.74848575  0.61007867  1
  O  O260  1  0.76710270  0.22835825  0.10677757  1
  O  O261  1  0.76899174  0.23768063  0.62351546  1
  O  O262  1  0.75559048  0.77359882  0.14406419  1
  O  O263  1  0.75026735  0.76141932  0.63093014  1
  O  O264  1  0.23085605  0.31312023  0.41791886  1
  O  O265  1  0.22095980  0.25040304  0.82165562  1
  O  O266  1  0.27293337  0.73999234  0.38890572  1
  O  O267  1  0.28646704  0.74151021  0.89210629  1
  O  O268  1  0.75516608  0.20795398  0.34994505  1
  O  O269  1  0.75998942  0.21996800  0.88628027  1
  O  O270  1  0.74493442  0.74624367  0.37825766  1
  O  O271  1  0.70408185  0.75353443  0.85860865  1
  O  O272  1  0.02459810  0.13113802  0.01735637  1
  O  O273  1  0.01222417  0.11149341  0.50822031  1
  O  O274  1  0.00558921  0.61655161  -0.00305218  1
  O  O275  1  -0.01339726  0.65280801  0.50972380  1
  O  O276  1  0.47960941  0.12410344  0.01956648  1
  O  O277  1  0.52453445  0.13872436  0.50004405  1
  O  O278  1  0.46251541  0.65080234  0.01333678  1
  O  O279  1  0.60224716  0.61076585  0.43435020  1
  O  O280  1  0.54302249  0.34737250  0.42716952  1
  O  O281  1  0.47873957  0.39224485  1.02229145  1
  O  O282  1  0.48273149  0.88088605  0.48898576  1
  O  O283  1  0.49779543  0.89296011  0.98145615  1
  O  O284  1  0.98993564  0.34984748  0.47557529  1
  O  O285  1  1.01309739  0.38117991  1.00202000  1
  O  O286  1  1.00146464  0.88595992  0.50711131  1
  O  O287  1  0.98728079  0.86063596  0.98784934  1
  O  O288  1  0.48629399  0.51473049  0.36447574  1
  O  O289  1  0.51802536  0.45456916  0.85793978  1
  O  O290  1  0.49806941  0.98965120  0.35708532  1
  O  O291  1  0.48717886  0.99917688  0.87302712  1
  O  O292  1  0.98451070  0.47266321  0.36077104  1
  O  O293  1  1.03724931  0.50452296  0.88823408  1
  O  O294  1  0.98332181  1.00053256  0.39035007  1
  O  O295  1  1.04412919  0.96260419  0.88451545  1
  O  O296  1  0.00756154  0.01763786  0.13341378  1
  O  O297  1  0.00670873  0.00323581  0.61335460  1
  O  O298  1  0.01784963  0.49025883  0.14739364  1
  O  O299  1  -0.00304723  0.51227576  0.61049403  1
  O  O300  1  0.49189216  -0.00911319  0.10822474  1
  O  O301  1  0.50961951  0.01766855  0.62556810  1
  O  O302  1  0.49369665  0.54234515  0.13057336  1
  O  O303  1  0.55813578  0.48774799  0.68382178  1
  O  O304  1  0.25938617  0.39381405  0.25007333  1
  O  O305  1  0.19408246  0.40564658  0.73842332  1
  O  O306  1  0.22267529  0.88306952  0.25471102  1
  O  O307  1  0.25297045  0.86618937  0.72014767  1
  O  O308  1  0.72521206  0.37170807  0.28783995  1
  O  O309  1  0.79849696  0.35049517  0.76080141  1
  O  O310  1  0.76277923  0.82397978  0.21389200  1
  O  O311  1  0.72282817  0.88196861  0.73033714  1
  O  O312  1  0.26651488  0.10568487  0.26015820  1
  O  O313  1  0.29143318  0.15490130  0.71483775  1
  O  O314  1  0.25535286  0.62663130  0.25785431  1
  O  O315  1  0.26078919  0.63730171  0.76323987  1
  O  O316  1  0.70967743  0.08684312  0.24045869  1
  O  O317  1  0.76499940  0.10435014  0.74694436  1
  O  O318  1  0.73185060  0.60321897  0.21877948  1
  O  O319  1  0.79259100  0.65443308  0.75930729  1
  O  O320  1  0.39310761  0.13098516  0.36568070  1
  O  O321  1  0.37311499  0.12287418  0.87249830  1
  O  O322  1  0.36756848  0.62542100  0.36259428  1
  O  O323  1  0.37494129  0.62317016  0.85686284  1
  O  O324  1  0.86640246  0.10881690  0.39364577  1
  O  O325  1  0.89423185  0.11848071  0.86142229  1
  O  O326  1  0.89337839  0.60269972  0.38709267  1
  O  O327  1  0.88390499  0.61386369  0.88716784  1
  O  O328  1  0.14299280  0.38657709  0.13729839  1
  O  O329  1  0.10547691  0.39929181  0.60314829  1
  O  O330  1  0.11667962  0.89276789  0.13015300  1
  O  O331  1  0.14805295  0.88744242  0.62352891  1
  O  O332  1  0.64251867  0.27487497  0.21351875  1
  O  O333  1  0.66779342  0.37350216  0.66102926  1
  O  O334  1  0.63614091  0.89143480  0.12277694  1
  O  O335  1  0.60603209  0.89262344  0.62666309  1
  O  O336  1  0.12825735  0.24409406  0.26249181  1
  O  O337  1  0.16435296  0.22403888  0.78045150  1
  O  O338  1  0.10285186  0.76416800  0.25573822  1
  O  O339  1  0.13066987  0.75959634  0.72700993  1
  O  O340  1  0.59615156  0.27211516  0.26888705  1
  O  O341  1  0.66080531  0.25500553  0.76326654  1
  O  O342  1  0.61318268  0.74847962  0.25225754  1
  O  O343  1  0.59961804  0.76663976  0.72121195  1
  O  O344  1  0.35455973  0.24375122  0.26512562  1
  O  O345  1  0.32490334  0.20857795  0.75340116  1
  O  O346  1  0.36649358  0.74819009  0.25342374  1
  O  O347  1  0.37845613  0.73871572  0.73711259  1
  O  O348  1  0.87668377  0.25004123  0.22143200  1
  O  O349  1  0.87924372  0.21620077  0.73236909  1
  O  O350  1  0.87471684  0.68506167  0.23374489  1
  O  O351  1  0.84428859  0.71752014  0.76950177  1
  O  O352  1  0.38410384  0.52362160  0.48423536  1
  O  O353  1  0.34798214  0.48694132  1.01000703  1
  O  O354  1  0.37773416  1.00760683  0.49281308  1
  O  O355  1  0.38699275  1.00611505  0.98185682  1
  O  O356  1  0.88520056  0.46785341  0.48661277  1
  O  O357  1  0.91489274  0.48631103  1.00248227  1
  O  O358  1  0.88342493  0.98968231  0.50061180  1
  O  O359  1  0.88379403  0.97700074  0.99645856  1
  O  O360  1  0.13545326  0.01060165  0.01781194  1
  O  O361  1  0.12236825  0.00651203  0.51001900  1
  O  O362  1  0.12297340  0.49962715  0.02756784  1
  O  O363  1  0.11430438  0.50641206  0.48474110  1
  O  O364  1  0.59514826  0.01412697  -0.01589427  1
  O  O365  1  0.63015241  0.00851208  0.51630951  1
  O  O366  1  0.62158600  0.50949814  0.00064787  1
  O  O367  1  0.63290568  0.45970480  0.54461963  1
  O  O368  1  0.35755046  0.38275495  0.12660775  1
  O  O369  1  0.43595161  0.39372493  0.56404353  1
  O  O370  1  0.34578871  0.89238357  0.10974168  1
  O  O371  1  0.37145324  0.88023785  0.60787988  1
  O  O372  1  0.87447695  0.36418024  0.11284903  1
  O  O373  1  0.88674710  0.35395217  0.61061864  1
  O  O374  1  0.88558856  0.86333456  0.11144070  1
  O  O375  1  0.86130661  0.87736803  0.63326546  1
  O  O376  1  0.11696801  0.10946465  0.38442262  1
  O  O377  1  0.12201757  0.11376557  0.89385900  1
  O  O378  1  0.14380728  0.63208828  0.37757993  1
  O  O379  1  0.14829060  0.65552895  0.87273586  1
  O  O380  1  0.63806120  0.11447024  0.39352365  1
  O  O381  1  0.61682465  0.14494879  0.86388339  1
  O  O382  1  0.63136175  0.60603814  0.36711070  1
  O  O383  1  0.59531756  0.64528561  0.90854597  1
