# generated using pymatgen
data_VZnO4
_symmetry_space_group_name_H-M   'P 1'
_cell_length_a   17.02936368
_cell_length_b   17.26141893
_cell_length_c   17.04309987
_cell_angle_alpha   89.17176482
_cell_angle_beta   90.49187850
_cell_angle_gamma   90.17835835
_symmetry_Int_Tables_number   1
_chemical_formula_structural   VZnO4
_chemical_formula_sum   'V64 Zn64 O256'
_cell_volume   5009.10552874
_cell_formula_units_Z   64
loop_
 _symmetry_equiv_pos_site_id
 _symmetry_equiv_pos_as_xyz
  1  'x, y, z'
loop_
 _atom_site_type_symbol
 _atom_site_label
 _atom_site_symmetry_multiplicity
 _atom_site_fract_x
 _atom_site_fract_y
 _atom_site_fract_z
 _atom_site_occupancy
  V  V0  1  0.50488556  0.12450166  0.12431223  1
  V  V1  1  -0.00026602  0.36336269  0.37705128  1
  V  V2  1  0.75853905  0.25623023  0.50982606  1
  V  V3  1  0.36253435  0.87869908  0.52164744  1
  V  V4  1  0.49390189  0.25950980  0.25268496  1
  V  V5  1  0.87795861  0.50408047  0.37953501  1
  V  V6  1  0.25592358  0.02474941  0.75518780  1
  V  V7  1  0.48104327  0.67070017  0.12129781  1
  V  V8  1  0.62107858  0.35660704  0.74175491  1
  V  V9  1  0.37218504  0.12032785  0.25566741  1
  V  V10  1  0.86256598  0.89003865  0.48987808  1
  V  V11  1  0.15453487  0.40616622  0.75389849  1
  V  V12  1  0.12411493  0.76222425  0.88627303  1
  V  V13  1  0.24139820  0.24939441  -0.00644000  1
  V  V14  1  0.52654034  0.64029311  0.64357042  1
  V  V15  1  0.76995357  0.89856710  0.11872669  1
  V  V16  1  0.60444685  0.88522298  0.25730466  1
  V  V17  1  0.10820973  0.36636285  0.23766612  1
  V  V18  1  0.88421328  0.13765124  0.24699102  1
  V  V19  1  0.02484317  0.24732924  0.75296881  1
  V  V20  1  0.12625806  0.12337925  -0.02177818  1
  V  V21  1  -0.00361413  -0.00260458  0.49517797  1
  V  V22  1  0.50387848  0.00716495  0.50005012  1
  V  V23  1  -0.00122900  0.73422306  0.73354118  1
  V  V24  1  0.50562526  0.50722503  0.03886829  1
  V  V25  1  0.11559841  0.72746079  0.37570449  1
  V  V26  1  0.48109836  0.37938548  0.89349971  1
  V  V27  1  0.75209875  0.00971313  0.25757094  1
  V  V28  1  0.00371544  0.39207031  0.87412547  1
  V  V29  1  0.63036633  0.02076798  0.62981451  1
  V  V30  1  0.48264976  0.23446622  0.76645485  1
  V  V31  1  -0.02453366  0.65976342  0.13010577  1
  V  V32  1  0.11841435  0.63300795  0.00537554  1
  V  V33  1  -0.00594558  0.00514778  0.00712336  1
  V  V34  1  0.30161590  0.42628229  0.17741185  1
  V  V35  1  0.36412915  0.25126717  0.12054644  1
  V  V36  1  0.75269513  0.51686624  0.23709909  1
  V  V37  1  0.74523342  0.14439299  0.88219024  1
  V  V38  1  0.47519127  0.13213172  0.62392678  1
  V  V39  1  0.75657371  0.88593315  0.63364611  1
  V  V40  1  0.61533566  0.88471313  0.75941153  1
  V  V41  1  0.12445663  -0.00833605  0.63239505  1
  V  V42  1  0.40017838  0.37115369  0.48092826  1
  V  V43  1  0.74481357  0.73412498  -0.04828469  1
  V  V44  1  0.64784904  0.36343540  0.23686637  1
  V  V45  1  0.11642282  0.13452515  0.51203057  1
  V  V46  1  0.25456749  0.25614433  0.50942707  1
  V  V47  1  0.75369101  0.12898827  0.38347738  1
  V  V48  1  0.11415200  0.87522086  0.25813205  1
  V  V49  1  0.24039610  0.13389417  0.37362521  1
  V  V50  1  0.13178473  0.01071155  0.13544840  1
  V  V51  1  0.89936764  0.24963153  0.10812745  1
  V  V52  1  0.25052494  0.86225892  0.12660601  1
  V  V53  1  0.51722422  0.52927097  0.43488502  1
  V  V54  1  0.61758688  0.24523292  0.38336947  1
  V  V55  1  0.86895348  0.01177366  0.86572443  1
  V  V56  1  -0.00342438  0.88411908  0.86755236  1
  V  V57  1  0.62101631  0.00923045  0.11712761  1
  V  V58  1  0.87260555  0.14628734  0.73921585  1
  V  V59  1  0.65309327  0.71851516  0.43194075  1
  V  V60  1  0.65639861  0.56600398  0.55652662  1
  V  V61  1  0.36929148  -0.00227071  0.37911932  1
  V  V62  1  0.08748688  0.49961662  0.12170891  1
  V  V63  1  0.42880053  -0.03411619  0.94055260  1
  Zn  Zn64  1  0.18268556  0.18583245  0.18893191  1
  Zn  Zn65  1  0.20012429  0.18370379  0.68618592  1
  Zn  Zn66  1  0.16175707  0.69207340  0.18685020  1
  Zn  Zn67  1  0.11376871  0.79389526  0.58131930  1
  Zn  Zn68  1  0.68631342  0.18778516  0.19463702  1
  Zn  Zn69  1  0.68322938  0.19017318  0.69841465  1
  Zn  Zn70  1  0.78424757  0.69754071  0.17531954  1
  Zn  Zn71  1  0.66901220  0.73004486  0.67547486  1
  Zn  Zn72  1  0.30317918  0.31346314  0.31619458  1
  Zn  Zn73  1  0.31096706  0.29839105  0.82214902  1
  Zn  Zn74  1  0.26560236  0.83903955  0.33758249  1
  Zn  Zn75  1  0.30496449  0.82011143  0.94416840  1
  Zn  Zn76  1  0.82045755  0.30666410  0.31933329  1
  Zn  Zn77  1  0.81625064  0.31927659  0.81734897  1
  Zn  Zn78  1  0.79587585  0.82099824  0.32402881  1
  Zn  Zn79  1  0.82408376  0.82426303  0.80121699  1
  Zn  Zn80  1  0.14920676  0.41776652  0.44449637  1
  Zn  Zn81  1  0.18790927  0.44396381  0.94765289  1
  Zn  Zn82  1  0.18536862  0.95106603  0.44366247  1
  Zn  Zn83  1  0.18383306  0.94487804  0.93983892  1
  Zn  Zn84  1  0.68742208  0.42925950  0.41197981  1
  Zn  Zn85  1  0.63835984  0.45182320  0.90147319  1
  Zn  Zn86  1  0.68114478  0.94011108  0.43630689  1
  Zn  Zn87  1  0.66827656  0.90989893  0.95624305  1
  Zn  Zn88  1  0.30492664  0.06236828  0.06640034  1
  Zn  Zn89  1  0.30245737  0.05958402  0.56104459  1
  Zn  Zn90  1  0.30982638  0.57599778  0.04944866  1
  Zn  Zn91  1  0.42179848  0.51796065  0.59017717  1
  Zn  Zn92  1  0.81328685  0.07441602  0.06196664  1
  Zn  Zn93  1  0.81595300  0.06795146  0.56490006  1
  Zn  Zn94  1  0.67009372  0.58388215  0.06146517  1
  Zn  Zn95  1  0.81034824  0.43274094  0.55000168  1
  Zn  Zn96  1  0.47621036  0.47721641  0.24266153  1
  Zn  Zn97  1  0.35114608  0.37801110  0.68228122  1
  Zn  Zn98  1  0.46309942  0.87168398  0.12279858  1
  Zn  Zn99  1  0.43527352  0.94767801  0.69427295  1
  Zn  Zn100  1  0.92016848  0.42543895  0.18450921  1
  Zn  Zn101  1  0.96837572  0.39366453  0.67506897  1
  Zn  Zn102  1  0.94237057  0.95832209  0.19970643  1
  Zn  Zn103  1  0.94155073  0.95461418  0.68578702  1
  Zn  Zn104  1  0.06355774  0.06172813  0.31474732  1
  Zn  Zn105  1  0.05551350  0.06452049  0.80647782  1
  Zn  Zn106  1  0.05078623  0.55379080  0.29932571  1
  Zn  Zn107  1  0.07082059  0.57123421  0.81341360  1
  Zn  Zn108  1  0.56110625  0.06481450  0.31390125  1
  Zn  Zn109  1  0.56669537  0.06502015  0.81475394  1
  Zn  Zn110  1  0.62345129  0.66993924  0.24040819  1
  Zn  Zn111  1  0.50589689  0.49561036  0.75399171  1
  Zn  Zn112  1  0.43399427  0.18879803  0.44037731  1
  Zn  Zn113  1  0.41659274  0.14811402  0.94613962  1
  Zn  Zn114  1  0.46127265  0.70763886  0.49515162  1
  Zn  Zn115  1  0.36520847  0.52412335  0.89512184  1
  Zn  Zn116  1  0.93638884  0.19088955  0.44033415  1
  Zn  Zn117  1  0.94638490  0.19196795  0.92676494  1
  Zn  Zn118  1  0.92800032  0.69264168  0.30633682  1
  Zn  Zn119  1  0.93773841  0.72085377  0.97244685  1
  Zn  Zn120  1  0.06556048  0.30960507  0.05322372  1
  Zn  Zn121  1  0.07972680  0.32131094  0.57361917  1
  Zn  Zn122  1  0.06070093  0.82866736  0.06469274  1
  Zn  Zn123  1  -0.01619092  0.77522883  0.47351479  1
  Zn  Zn124  1  0.58166523  0.34594977  0.03729114  1
  Zn  Zn125  1  0.56614804  0.30268915  0.56770412  1
  Zn  Zn126  1  0.63097918  0.77415316  0.09378671  1
  Zn  Zn127  1  0.56212731  0.83594334  0.56880189  1
  O  O128  1  0.12576617  0.11066102  0.12952793  1
  O  O129  1  0.12794783  0.12215112  0.61208813  1
  O  O130  1  0.09780566  0.61868743  0.12385670  1
  O  O131  1  0.17951109  0.60662566  0.61508161  1
  O  O132  1  0.61135259  0.12295984  0.13780885  1
  O  O133  1  0.61913535  0.11989160  0.62558604  1
  O  O134  1  0.67284413  0.67272114  0.13432827  1
  O  O135  1  0.64584009  0.62643170  0.64530096  1
  O  O136  1  0.36213755  0.37740709  0.38646635  1
  O  O137  1  0.39261519  0.33641960  0.89870424  1
  O  O138  1  0.36047967  0.89970900  0.37182120  1
  O  O139  1  0.37234250  0.89669446  0.89462820  1
  O  O140  1  0.89365200  0.37274045  0.37396530  1
  O  O141  1  0.90407983  0.38124391  0.84996398  1
  O  O142  1  0.85726915  0.89440802  0.39061764  1
  O  O143  1  0.88387397  0.90320602  0.86762469  1
  O  O144  1  0.26437116  0.02263504  0.38664678  1
  O  O145  1  0.23037394  -0.01344104  0.84627833  1
  O  O146  1  0.26969088  0.53106055  0.40906576  1
  O  O147  1  0.27075839  0.51649670  0.94891211  1
  O  O148  1  0.73916077  0.02194822  0.36690240  1
  O  O149  1  0.77186802  0.01439325  0.86909088  1
  O  O150  1  0.77212640  0.48190504  0.35950824  1
  O  O151  1  0.75357565  0.42787443  0.90079319  1
  O  O152  1  0.25811636  0.49268505  0.11705833  1
  O  O153  1  0.23736753  0.56751332  0.63082273  1
  O  O154  1  0.23397994  0.99412076  0.12252710  1
  O  O155  1  0.23477247  1.01170897  0.63920489  1
  O  O156  1  0.73492632  0.51607678  0.13802625  1
  O  O157  1  0.84482316  0.50488333  0.68836013  1
  O  O158  1  0.73891817  1.01710710  0.14114923  1
  O  O159  1  0.73275358  1.00993356  0.61867164  1
  O  O160  1  0.00447882  0.36923744  0.25032239  1
  O  O161  1  0.03795954  0.37147318  0.76450199  1
  O  O162  1  0.01504663  0.89409818  0.25516342  1
  O  O163  1  0.00276503  0.89133971  0.76764612  1
  O  O164  1  0.49772217  0.35628469  0.25225607  1
  O  O165  1  0.50815012  0.34246087  0.79139981  1
  O  O166  1  0.50800494  0.89041203  0.23030995  1
  O  O167  1  0.51589532  0.88624402  0.74054792  1
  O  O168  1  0.48444733  0.13284586  0.25037688  1
  O  O169  1  0.49509498  0.13013840  0.73270790  1
  O  O170  1  0.51282731  0.64148340  0.21314937  1
  O  O171  1  0.51115725  0.61009553  0.73696212  1
  O  O172  1  0.98083756  0.11882006  0.26310571  1
  O  O173  1  0.99354152  0.14544846  0.75150300  1
  O  O174  1  0.99360234  0.63173195  0.23233942  1
  O  O175  1  1.00003866  0.63549205  0.74913363  1
  O  O176  1  0.36069765  0.23190140  0.01820743  1
  O  O177  1  0.36047619  0.25955389  0.49074199  1
  O  O178  1  0.36881608  0.72257343  -0.04802315  1
  O  O179  1  0.38415633  0.78483799  0.49643191  1
  O  O180  1  0.88594356  0.23585994  0.00938744  1
  O  O181  1  0.85793404  0.24605869  0.50287408  1
  O  O182  1  0.83514692  0.75401860  -0.00548066  1
  O  O183  1  0.87894329  0.79292098  0.50771668  1
  O  O184  1  0.12989949  0.23568667  0.50731073  1
  O  O185  1  0.13143561  0.23020003  1.00288994  1
  O  O186  1  0.09786752  0.74867726  0.48197261  1
  O  O187  1  0.10443441  0.74809524  0.99515122  1
  O  O188  1  0.62848040  0.24786277  0.48440164  1
  O  O189  1  0.65445881  0.24670861  1.03338692  1
  O  O190  1  0.69494338  0.64361866  0.49818807  1
  O  O191  1  0.66577822  0.79594203  0.98362748  1
  O  O192  1  0.48069246  0.23897212  0.14376016  1
  O  O193  1  0.49381902  0.23165956  0.62232989  1
  O  O194  1  0.51275838  0.76900577  0.10274770  1
  O  O195  1  0.54313521  0.74037940  0.63557752  1
  O  O196  1  0.99871290  0.24594025  0.11974628  1
  O  O197  1  0.99959479  0.28516508  0.65030435  1
  O  O198  1  0.99203808  0.75787477  0.12535521  1
  O  O199  1  1.02474982  0.75180166  0.63747038  1
  O  O200  1  -0.00034588  0.26426313  0.37841979  1
  O  O201  1  0.00594193  0.26108805  0.85583192  1
  O  O202  1  0.00634960  0.75019822  0.36576867  1
  O  O203  1  -0.01606067  0.78259290  0.88832093  1
  O  O204  1  0.50960932  0.23595057  0.36392155  1
  O  O205  1  0.46649532  0.20120057  0.85959867  1
  O  O206  1  0.57196153  0.76183814  0.48078689  1
  O  O207  1  0.47746352  0.67447330  0.89661569  1
  O  O208  1  0.24127691  0.13618732  0.49191591  1
  O  O209  1  0.23009589  0.12923382  1.00842901  1
  O  O210  1  0.22556380  0.56462493  0.45723237  1
  O  O211  1  0.21504859  0.64355442  1.02493137  1
  O  O212  1  0.75328509  0.13137503  0.48635714  1
  O  O213  1  0.75195574  0.12018753  0.98081834  1
  O  O214  1  0.72655237  0.50437116  0.58484634  1
  O  O215  1  0.72060268  0.63838413  0.97092430  1
  O  O216  1  0.23090376  0.34624408  0.00373904  1
  O  O217  1  0.22663680  0.34937584  0.48880942  1
  O  O218  1  0.24067289  0.87927224  0.01582286  1
  O  O219  1  0.26259043  0.88814294  0.50030119  1
  O  O220  1  0.72597107  0.26930949  0.04873469  1
  O  O221  1  0.74458849  0.35890356  0.49401390  1
  O  O222  1  0.76117345  0.92169397  0.02115672  1
  O  O223  1  0.75897703  0.90649491  0.51202962  1
  O  O224  1  0.11599376  0.49348369  0.22366443  1
  O  O225  1  0.14686244  0.50498413  0.75576087  1
  O  O226  1  0.12182923  1.00056885  0.23871113  1
  O  O227  1  0.12618947  1.01283503  0.73420912  1
  O  O228  1  0.65547420  0.46285522  0.26043430  1
  O  O229  1  0.60901667  0.45279164  0.78715937  1
  O  O230  1  0.63340368  1.00731479  0.24637409  1
  O  O231  1  0.61979128  1.00507623  0.73110991  1
  O  O232  1  0.37482170  0.02059784  0.26887925  1
  O  O233  1  0.35211430  -0.00239533  0.74644918  1
  O  O234  1  0.36364105  0.47389799  0.23693569  1
  O  O235  1  0.41869001  0.46921405  0.68939733  1
  O  O236  1  0.85751746  0.02099088  0.25101935  1
  O  O237  1  0.89238222  0.02577556  0.76230197  1
  O  O238  1  0.85597981  0.49236291  0.24488659  1
  O  O239  1  0.89091165  0.52271229  0.74143477  1
  O  O240  1  0.11430069  0.38408999  0.34244051  1
  O  O241  1  0.13710989  0.38811491  0.86208853  1
  O  O242  1  0.14165377  0.89072413  0.35781888  1
  O  O243  1  0.10607686  0.86953920  0.89108811  1
  O  O244  1  0.63017826  0.34614543  0.35555362  1
  O  O245  1  0.58308946  0.34782096  0.92078829  1
  O  O246  1  0.61101500  0.90162034  0.35816406  1
  O  O247  1  0.62760219  0.91412518  0.85449031  1
  O  O248  1  0.37707321  0.12733712  0.14327196  1
  O  O249  1  0.37698997  0.12238151  0.62164108  1
  O  O250  1  0.38268604  0.65127174  0.11151241  1
  O  O251  1  0.43422930  0.63629539  0.59199917  1
  O  O252  1  0.87389110  0.13521950  0.13997717  1
  O  O253  1  0.87151311  0.12814033  0.64125296  1
  O  O254  1  0.87633994  0.64844511  0.12527093  1
  O  O255  1  0.97561596  0.54795392  0.60144835  1
  O  O256  1  0.26225317  0.23736589  0.12502186  1
  O  O257  1  0.25445525  0.24658579  0.60907016  1
  O  O258  1  0.22698392  0.76616326  0.12887725  1
  O  O259  1  0.23346408  0.76375576  0.64055544  1
  O  O260  1  0.75942844  0.23075078  0.11206806  1
  O  O261  1  0.73366007  0.24061175  0.60491035  1
  O  O262  1  0.74885736  0.80200146  0.12851501  1
  O  O263  1  0.74659008  0.78812471  0.61876322  1
  O  O264  1  0.24848929  0.23554155  0.38270206  1
  O  O265  1  0.25799512  0.23581436  0.89681887  1
  O  O266  1  0.21704988  0.74759047  0.37806883  1
  O  O267  1  0.22246720  0.76481525  0.88010618  1
  O  O268  1  0.74103387  0.24097500  0.38431915  1
  O  O269  1  0.76098877  0.24246999  0.88177279  1
  O  O270  1  0.72216385  0.78446059  0.40513430  1
  O  O271  1  0.75957053  0.74742907  0.85248646  1
  O  O272  1  0.01685077  0.11677286  -0.01033031  1
  O  O273  1  0.01353817  0.12399418  0.49548912  1
  O  O274  1  -0.00305286  0.63900474  0.02226920  1
  O  O275  1  0.00500605  0.59608179  0.55400687  1
  O  O276  1  0.49930294  0.14230853  0.02815037  1
  O  O277  1  0.48914928  0.11684573  0.51166495  1
  O  O278  1  0.53683452  0.61594078  0.05341918  1
  O  O279  1  0.49081887  0.62356217  0.43050599  1
  O  O280  1  0.49551599  0.34179172  0.48631544  1
  O  O281  1  0.48438476  0.40559672  1.00583311  1
  O  O282  1  0.48388602  0.90534225  0.51353754  1
  O  O283  1  0.43941966  0.73467036  0.91135838  1
  O  O284  1  1.03980611  0.37936690  0.47625747  1
  O  O285  1  1.01705100  0.36922796  0.97232402  1
  O  O286  1  0.98605059  0.89619422  0.50422894  1
  O  O287  1  0.99974463  0.90216582  0.99503422  1
  O  O288  1  0.51522871  0.49810051  0.34234288  1
  O  O289  1  0.46368587  0.47692743  0.86311450  1
  O  O290  1  0.48358291  1.01755382  0.39184392  1
  O  O291  1  0.49146996  1.01305203  0.87693258  1
  O  O292  1  0.98477982  0.48169096  0.35685366  1
  O  O293  1  1.01257166  0.49121639  0.86845661  1
  O  O294  1  1.01021629  1.00521028  0.39704596  1
  O  O295  1  0.99949779  0.99754769  0.88458326  1
  O  O296  1  0.01006543  0.00442347  0.11141155  1
  O  O297  1  0.01705386  0.00506313  0.61416315  1
  O  O298  1  -0.01124016  0.49962415  0.12239913  1
  O  O299  1  0.02387844  0.48755498  0.62403253  1
  O  O300  1  0.51105306  0.02087201  0.13268091  1
  O  O301  1  0.50382020  0.01841893  0.61725950  1
  O  O302  1  0.50363081  0.48736080  0.13567068  1
  O  O303  1  0.55056784  0.55145877  0.57838145  1
  O  O304  1  0.23670652  0.37450382  0.24014050  1
  O  O305  1  0.26048280  0.37768621  0.75706780  1
  O  O306  1  0.23034314  0.87944205  0.23555101  1
  O  O307  1  0.24903711  0.80474509  0.69759982  1
  O  O308  1  0.74349166  0.33682637  0.23808247  1
  O  O309  1  0.71926366  0.34471649  0.75658979  1
  O  O310  1  0.74884605  0.90754558  0.25131871  1
  O  O311  1  0.74884268  0.89196928  0.73628159  1
  O  O312  1  0.25969388  0.13453495  0.26437476  1
  O  O313  1  0.25927820  0.12376660  0.76083218  1
  O  O314  1  0.24128038  0.61693886  0.23744327  1
  O  O315  1  0.34163424  0.69067424  0.72365572  1
  O  O316  1  0.75674810  0.12605969  0.26066449  1
  O  O317  1  0.76745188  0.13992204  0.75969087  1
  O  O318  1  0.73892924  0.61161797  0.25987410  1
  O  O319  1  0.74847474  0.57786948  0.79089614  1
  O  O320  1  0.36595842  0.12593502  0.36869772  1
  O  O321  1  0.37054813  0.04758906  0.97618623  1
  O  O322  1  0.35739795  0.63033880  0.29984875  1
  O  O323  1  0.32591138  0.58610376  0.79976980  1
  O  O324  1  0.85861248  0.13821831  0.36657645  1
  O  O325  1  0.87265230  0.12532373  0.86533152  1
  O  O326  1  0.88602343  0.60148041  0.36795118  1
  O  O327  1  0.84311635  0.52571498  0.89658185  1
  O  O328  1  0.10777321  0.39194819  0.12517925  1
  O  O329  1  0.13830444  0.38238281  0.65418275  1
  O  O330  1  0.12401813  0.89073101  0.13707467  1
  O  O331  1  0.13046670  0.89430641  0.62319117  1
  O  O332  1  0.62067975  0.36401503  0.13996763  1
  O  O333  1  0.60446303  0.37517358  0.64379687  1
  O  O334  1  0.63453447  0.90630830  0.13831453  1
  O  O335  1  0.63479402  0.89836374  0.63107652  1
  O  O336  1  0.12494561  0.26978251  0.23116282  1
  O  O337  1  0.12390154  0.23801790  0.74791724  1
  O  O338  1  0.11561282  0.76878102  0.26193484  1
  O  O339  1  0.09364774  0.75373381  0.78612887  1
  O  O340  1  0.60666678  0.25010139  0.25060177  1
  O  O341  1  0.59605462  0.24882329  0.74641991  1
  O  O342  1  0.63071883  0.79078240  0.24483307  1
  O  O343  1  0.63528574  0.78724870  0.76247361  1
  O  O344  1  0.37923730  0.24303200  0.25080219  1
  O  O345  1  0.38834687  0.27017259  0.73636606  1
  O  O346  1  0.29858686  0.66371470  0.27036089  1
  O  O347  1  0.36217673  0.65616478  0.78625740  1
  O  O348  1  0.87555900  0.23818260  0.24430646  1
  O  O349  1  0.88297103  0.24638759  0.74832672  1
  O  O350  1  0.84245426  0.74703151  0.26130046  1
  O  O351  1  0.90379022  0.76588709  0.74525372  1
  O  O352  1  0.43533498  0.48277749  0.48172868  1
  O  O353  1  0.41511849  0.54170883  1.00279936  1
  O  O354  1  0.37629267  0.99829856  0.49299366  1
  O  O355  1  0.47508639  0.92057825  1.01822620  1
  O  O356  1  0.87721502  0.48981453  0.48021248  1
  O  O357  1  0.80205252  0.48290473  0.93946917  1
  O  O358  1  0.89133407  1.00871643  0.50439856  1
  O  O359  1  0.89251962  1.02161184  0.98839420  1
  O  O360  1  0.11852685  0.01419363  0.00771769  1
  O  O361  1  0.11984623  0.01408540  0.51107560  1
  O  O362  1  0.11697714  0.52046654  0.01748051  1
  O  O363  1  0.15694328  0.52616433  0.47787790  1
  O  O364  1  0.62615689  0.00567682  0.02001740  1
  O  O365  1  0.60730740  0.00244432  0.50729046  1
  O  O366  1  0.60787806  0.50149790  -0.00104573  1
  O  O367  1  0.62013834  0.50617122  0.46299541  1
  O  O368  1  0.36408411  0.35329772  0.12817342  1
  O  O369  1  0.35409087  0.39340887  0.56889896  1
  O  O370  1  0.34993069  0.86751024  0.13413490  1
  O  O371  1  0.37108975  0.88533756  0.61998841  1
  O  O372  1  0.87598421  0.34607986  0.12186540  1
  O  O373  1  0.85837106  0.41761387  0.65539741  1
  O  O374  1  0.86773998  0.90588894  0.13504154  1
  O  O375  1  0.85918158  0.90556551  0.62354297  1
  O  O376  1  0.13854378  0.12022236  0.38099594  1
  O  O377  1  0.12844775  0.11966463  0.88066946  1
  O  O378  1  0.11329210  0.63101494  0.35860854  1
  O  O379  1  0.11026463  0.64238195  0.89893809  1
  O  O380  1  0.63773611  0.14073090  0.36501635  1
  O  O381  1  0.64808699  0.12767845  0.85781471  1
  O  O382  1  0.62159208  0.66895169  0.35418875  1
  O  O383  1  0.68944290  0.59053942  0.82888396  1
