# generated using pymatgen
data_VZnO4
_symmetry_space_group_name_H-M   'P 1'
_cell_length_a   17.01370983
_cell_length_b   16.95349967
_cell_length_c   17.02377613
_cell_angle_alpha   89.95579716
_cell_angle_beta   90.04326723
_cell_angle_gamma   89.84546953
_symmetry_Int_Tables_number   1
_chemical_formula_structural   VZnO4
_chemical_formula_sum   'V64 Zn64 O256'
_cell_volume   4910.35001104
_cell_formula_units_Z   64
loop_
 _symmetry_equiv_pos_site_id
 _symmetry_equiv_pos_as_xyz
  1  'x, y, z'
loop_
 _atom_site_type_symbol
 _atom_site_label
 _atom_site_symmetry_multiplicity
 _atom_site_fract_x
 _atom_site_fract_y
 _atom_site_fract_z
 _atom_site_occupancy
  V  V0  1  0.76271501  0.49519642  0.75501984  1
  V  V1  1  0.67739099  0.60600728  0.05265264  1
  V  V2  1  0.37067544  0.03132156  0.87559968  1
  V  V3  1  0.12029885  0.10814686  -0.00876077  1
  V  V4  1  0.12050161  0.76190551  0.38147533  1
  V  V5  1  0.36673246  0.13425781  0.23931574  1
  V  V6  1  0.86289901  0.38332285  -0.00887470  1
  V  V7  1  0.74157481  0.22104304  -0.00359224  1
  V  V8  1  0.87126309  0.12480109  0.25869761  1
  V  V9  1  0.63401421  0.38603399  0.23419952  1
  V  V10  1  0.47700914  0.63495348  0.60760171  1
  V  V11  1  0.21599138  0.50550293  0.24563820  1
  V  V12  1  -0.01965053  0.11231188  0.10821729  1
  V  V13  1  0.53959111  0.88654992  0.38951297  1
  V  V14  1  0.24464123  0.24545046  0.00565595  1
  V  V15  1  0.50350386  0.25265395  0.23576516  1
  V  V16  1  0.23854132  0.25437988  0.50665827  1
  V  V17  1  0.24085439  0.62083330  0.37817852  1
  V  V18  1  0.22054971  0.36542610  0.13553321  1
  V  V19  1  0.49556261  0.36872998  0.36778194  1
  V  V20  1  0.87466433  0.63856514  0.26387240  1
  V  V21  1  0.01622801  0.00891088  0.47441262  1
  V  V22  1  0.86765082  0.24072221  0.60539806  1
  V  V23  1  0.88044939  0.63302627  0.72637104  1
  V  V24  1  0.51142583  0.11194666  0.12139408  1
  V  V25  1  0.50712776  0.02246105  0.51735017  1
  V  V26  1  0.37386843  0.49874269  0.35509697  1
  V  V27  1  0.51051261  0.75584822  0.25020157  1
  V  V28  1  0.61234748  0.23540422  0.87736528  1
  V  V29  1  0.12067934  -0.01124770  0.13950421  1
  V  V30  1  0.36699727  0.37387261  0.50171311  1
  V  V31  1  0.24786871  0.89890242  0.63737906  1
  V  V32  1  0.87839471  0.00486390  0.88252905  1
  V  V33  1  0.76426183  0.62860294  0.88034253  1
  V  V34  1  0.78640366  0.86761969  0.09665148  1
  V  V35  1  0.00480107  0.11642475  0.62606197  1
  V  V36  1  0.74573599  -0.01528004  0.26510492  1
  V  V37  1  0.37439122  0.37571412  0.00756240  1
  V  V38  1  0.73267185  0.13831036  0.37565533  1
  V  V39  1  -0.00979447  0.38210691  0.87981364  1
  V  V40  1  0.37172716  0.51191343  0.88250036  1
  V  V41  1  0.88644345  0.89341063  0.51454774  1
  V  V42  1  0.62175471  0.71971124  0.83649090  1
  V  V43  1  -0.00783588  0.76828181  0.26023563  1
  V  V44  1  -0.02246189  0.23892058  0.75941083  1
  V  V45  1  0.38007209  0.89121759  0.51406359  1
  V  V46  1  -0.00013663  0.48454174  0.50610426  1
  V  V47  1  0.73080407  0.87033607  0.61587047  1
  V  V48  1  0.86887848  0.25283033  0.11808211  1
  V  V49  1  0.62369417  0.15168111  0.51344594  1
  V  V50  1  0.62229518  0.39056364  0.75464809  1
  V  V51  1  0.51247017  0.87006976  0.88873415  1
  V  V52  1  0.86418275  0.48807601  0.38062625  1
  V  V53  1  0.45356577  0.60478738  0.13122173  1
  V  V54  1  0.12109576  0.37833603  0.74230966  1
  V  V55  1  0.24362520  0.13832786  0.37522681  1
  V  V56  1  0.71385268  0.00294763  0.74412699  1
  V  V57  1  0.12011609  0.85880241  0.75407713  1
  V  V58  1  0.73670289  0.63670365  0.38726246  1
  V  V59  1  0.00915607  0.36364403  0.35771002  1
  V  V60  1  0.12477075  0.24112226  0.87493810  1
  V  V61  1  0.37890442  0.00743528  0.36676043  1
  V  V62  1  0.11000010  0.62678628  0.50805323  1
  V  V63  1  0.75622411  0.37168597  0.60995278  1
  Zn  Zn64  1  0.17479480  0.17399469  0.18209365  1
  Zn  Zn65  1  0.16530239  0.22787292  0.66790889  1
  Zn  Zn66  1  0.19592443  0.71433987  0.21616189  1
  Zn  Zn67  1  0.24716798  0.72856697  0.69565052  1
  Zn  Zn68  1  0.68708147  0.18981743  0.18715959  1
  Zn  Zn69  1  0.68728888  0.19847513  0.70075294  1
  Zn  Zn70  1  0.69533099  0.70998988  0.20575649  1
  Zn  Zn71  1  0.70958146  0.68341489  0.66418015  1
  Zn  Zn72  1  0.30756577  0.31009536  0.30602483  1
  Zn  Zn73  1  0.30517915  0.38549145  0.81519477  1
  Zn  Zn74  1  0.33517979  0.79297922  0.36559474  1
  Zn  Zn75  1  0.36003872  0.83241180  0.79050198  1
  Zn  Zn76  1  0.81328516  0.31097681  0.30746729  1
  Zn  Zn77  1  0.79763489  0.30647630  0.82316582  1
  Zn  Zn78  1  0.80908630  0.80763413  0.35667947  1
  Zn  Zn79  1  0.79646166  0.80660558  0.78033367  1
  Zn  Zn80  1  0.17802418  0.43375855  0.43697811  1
  Zn  Zn81  1  0.18207492  0.42933608  0.93362483  1
  Zn  Zn82  1  0.19884376  0.95217953  0.43301994  1
  Zn  Zn83  1  0.18448696  0.96676685  0.86482684  1
  Zn  Zn84  1  0.65431799  0.47608250  0.42307695  1
  Zn  Zn85  1  0.69657474  0.43995970  1.06367611  1
  Zn  Zn86  1  0.70576839  0.97802403  0.46003521  1
  Zn  Zn87  1  0.70247542  0.89427098  0.90512647  1
  Zn  Zn88  1  0.30597464  0.04589929  0.06080342  1
  Zn  Zn89  1  0.29816503  0.05899781  0.54686524  1
  Zn  Zn90  1  0.29363435  0.54355027  0.07028646  1
  Zn  Zn91  1  0.31698883  0.55906502  0.53819533  1
  Zn  Zn92  1  0.79853209  0.04144163  0.06021036  1
  Zn  Zn93  1  0.81330313  0.05833488  0.57075218  1
  Zn  Zn94  1  0.86772985  0.53819552  0.10394605  1
  Zn  Zn95  1  0.81657729  0.55065969  0.56113671  1
  Zn  Zn96  1  0.41149213  0.42505117  0.18355681  1
  Zn  Zn97  1  0.43229505  0.44018730  0.68868900  1
  Zn  Zn98  1  0.45126397  0.93535869  0.20861740  1
  Zn  Zn99  1  0.46194323  0.95066746  0.70419199  1
  Zn  Zn100  1  1.03269120  0.44198444  0.17838909  1
  Zn  Zn101  1  0.93113396  0.42491965  0.68758280  1
  Zn  Zn102  1  0.92741662  0.94287453  0.19568155  1
  Zn  Zn103  1  0.94974515  0.92772920  0.69632943  1
  Zn  Zn104  1  0.06514004  0.09188690  0.29814525  1
  Zn  Zn105  1  0.04899550  0.05125378  0.80477071  1
  Zn  Zn106  1  0.04917086  0.56509739  0.32725752  1
  Zn  Zn107  1  0.05632547  0.56224957  0.68294364  1
  Zn  Zn108  1  0.56485230  0.06436358  0.30297713  1
  Zn  Zn109  1  0.55051609  0.04647459  0.82557294  1
  Zn  Zn110  1  0.56831613  0.57332118  0.28495650  1
  Zn  Zn111  1  0.59529532  0.50826565  0.89737135  1
  Zn  Zn112  1  0.43414468  0.19451619  0.43433436  1
  Zn  Zn113  1  0.43938040  0.19806057  0.94897157  1
  Zn  Zn114  1  0.46475530  0.71823855  0.43187765  1
  Zn  Zn115  1  0.46790640  0.63472389  0.92660565  1
  Zn  Zn116  1  0.94391819  0.18339001  0.43871515  1
  Zn  Zn117  1  0.92656907  0.17737957  0.93296787  1
  Zn  Zn118  1  0.93170926  0.70056010  0.44116118  1
  Zn  Zn119  1  0.97531668  0.59911350  0.86932896  1
  Zn  Zn120  1  0.05035259  0.30188282  0.05914274  1
  Zn  Zn121  1  0.04844666  0.30295347  0.55947081  1
  Zn  Zn122  1  -0.00161197  0.83074374  0.08377574  1
  Zn  Zn123  1  0.08923084  0.83784524  0.54907932  1
  Zn  Zn124  1  0.56324997  0.30519888  0.06126533  1
  Zn  Zn125  1  0.58635783  0.34755742  0.54733006  1
  Zn  Zn126  1  0.54464726  0.75008864  0.04903324  1
  Zn  Zn127  1  0.64974744  0.77114072  0.49345577  1
  O  O128  1  0.10614099  0.10507911  0.10570616  1
  O  O129  1  0.10254323  0.13845253  0.63121353  1
  O  O130  1  0.15667027  0.67008603  0.09686016  1
  O  O131  1  0.11692803  0.62314330  0.60767383  1
  O  O132  1  0.61073322  0.12411215  0.13355630  1
  O  O133  1  0.62823355  0.15054602  0.61165310  1
  O  O134  1  0.64557962  0.62477072  0.14759346  1
  O  O135  1  0.56765066  0.59511209  0.62858002  1
  O  O136  1  0.37816278  0.38312947  0.36321713  1
  O  O137  1  0.37144034  0.36117161  0.90710717  1
  O  O138  1  0.36501234  0.90514918  0.37342806  1
  O  O139  1  0.40212195  0.89772388  0.87518546  1
  O  O140  1  0.87420192  0.38671392  0.36656997  1
  O  O141  1  0.88020067  0.36484562  0.88325962  1
  O  O142  1  0.87926520  0.80916009  0.44915141  1
  O  O143  1  0.86392492  0.89481011  0.82802722  1
  O  O144  1  0.26997362  0.02548644  0.38243598  1
  O  O145  1  0.27813789  0.01948053  0.84117669  1
  O  O146  1  0.23338135  0.50426988  0.35865994  1
  O  O147  1  0.26394425  0.48019788  0.87711370  1
  O  O148  1  0.75613709  0.02488358  0.36611773  1
  O  O149  1  0.73575871  -0.01583313  0.84744598  1
  O  O150  1  0.76307223  0.50313245  0.39832772  1
  O  O151  1  0.75662686  0.51616987  0.85598866  1
  O  O152  1  0.22471969  0.48475349  0.13981188  1
  O  O153  1  0.26720187  0.53255684  0.64379589  1
  O  O154  1  0.21934333  0.99412457  0.11479302  1
  O  O155  1  0.27368822  1.00149538  0.63501931  1
  O  O156  1  0.75611471  0.53329048  0.09530318  1
  O  O157  1  0.76482158  0.47605699  0.62956794  1
  O  O158  1  0.75935596  0.96270798  0.13933863  1
  O  O159  1  0.75174096  0.98629800  0.63567651  1
  O  O160  1  -0.00488174  0.37154029  0.25841740  1
  O  O161  1  -0.00245024  0.35666782  0.76230350  1
  O  O162  1  -0.01967081  0.86855811  0.26333641  1
  O  O163  1  0.01966520  0.85615083  0.74660660  1
  O  O164  1  0.49048867  0.36264245  0.24319905  1
  O  O165  1  0.52735363  0.39359276  0.72313297  1
  O  O166  1  0.50977045  0.86882586  0.28541562  1
  O  O167  1  0.47650803  0.85859369  0.77613402  1
  O  O168  1  0.49133392  0.13782650  0.24320816  1
  O  O169  1  0.50496158  0.23778328  0.66342452  1
  O  O170  1  0.49643101  0.64043464  0.22331543  1
  O  O171  1  0.45024915  0.66151572  0.70218821  1
  O  O172  1  0.97155054  0.12034088  0.22700949  1
  O  O173  1  0.99483500  0.13547979  0.74484441  1
  O  O174  1  0.97999536  0.64280926  0.28125441  1
  O  O175  1  0.98416954  0.61339618  0.75333442  1
  O  O176  1  0.34663773  0.25165890  0.00810500  1
  O  O177  1  0.36551354  0.26892581  0.48952428  1
  O  O178  1  0.31570264  0.75086354  -0.03841334  1
  O  O179  1  0.38447274  0.79316104  0.47628915  1
  O  O180  1  0.85583402  0.24137993  0.00126091  1
  O  O181  1  0.87247208  0.24352875  0.50735362  1
  O  O182  1  0.98656557  0.75682917  -0.00701110  1
  O  O183  1  0.95263129  0.73651711  0.58274602  1
  O  O184  1  0.13858802  0.25646302  0.50285142  1
  O  O185  1  0.11795653  0.23705535  0.98908108  1
  O  O186  1  0.12144270  0.73698352  0.49394068  1
  O  O187  1  0.16969470  0.82101708  1.00491806  1
  O  O188  1  0.62107295  0.24881133  0.49185194  1
  O  O189  1  0.63582358  0.25207810  0.99109250  1
  O  O190  1  0.67938603  0.66442905  0.54821639  1
  O  O191  1  0.63946928  0.69543249  1.01413804  1
  O  O192  1  0.49641467  0.23856344  0.13425745  1
  O  O193  1  0.49377241  0.28070882  0.59777964  1
  O  O194  1  0.50271018  0.78283753  0.15324297  1
  O  O195  1  0.51218839  0.73128774  0.59707237  1
  O  O196  1  0.97669216  0.22876298  0.11130680  1
  O  O197  1  0.98151839  0.24133299  0.63799137  1
  O  O198  1  0.99902985  0.74623262  0.16372809  1
  O  O199  1  1.01122884  0.75792089  0.62078668  1
  O  O200  1  -0.01040955  0.26626133  0.38039342  1
  O  O201  1  -0.00202881  0.24642430  0.86738969  1
  O  O202  1  0.01707177  0.75934357  0.38229812  1
  O  O203  1  0.02186827  0.72930020  0.86876680  1
  O  O204  1  0.49292176  0.26436683  0.35674923  1
  O  O205  1  0.51706029  0.26266145  0.89362360  1
  O  O206  1  0.55553020  0.78721976  0.42556294  1
  O  O207  1  0.52220950  0.70888325  0.86126039  1
  O  O208  1  0.26249940  0.14494478  0.48591122  1
  O  O209  1  0.22766297  0.13656919  1.01093495  1
  O  O210  1  0.23043197  0.61215393  0.48314138  1
  O  O211  1  0.21039358  0.65233164  1.04841204  1
  O  O212  1  0.73258563  0.11765415  0.48677276  1
  O  O213  1  0.73675906  0.12260242  1.00470290  1
  O  O214  1  0.73171931  0.61573347  0.50654999  1
  O  O215  1  0.76904017  0.62929831  0.97984911  1
  O  O216  1  0.23216914  0.35698585  0.01165721  1
  O  O217  1  0.25521041  0.36637650  0.49103059  1
  O  O218  1  0.22900846  0.84398845  0.03804320  1
  O  O219  1  0.27612675  0.91190682  0.51200951  1
  O  O220  1  0.76170406  0.36858370  -0.00185075  1
  O  O221  1  0.74825679  0.36885952  0.51448956  1
  O  O222  1  0.74752779  0.86154861  0.00396234  1
  O  O223  1  0.77395683  0.90206853  0.51155110  1
  O  O224  1  0.11389502  0.50064667  0.25070204  1
  O  O225  1  0.10923181  0.47761607  0.74102197  1
  O  O226  1  0.11480987  1.00223015  0.23756474  1
  O  O227  1  0.12437383  0.97900069  0.76632601  1
  O  O228  1  0.61890768  0.48465614  0.23552323  1
  O  O229  1  0.65352375  0.49084129  0.73454433  1
  O  O230  1  0.64724577  1.00072400  0.25057831  1
  O  O231  1  0.61329769  0.99972694  0.73917750  1
  O  O232  1  0.38054660  0.01815593  0.26211359  1
  O  O233  1  0.44332554  0.02530460  0.79115227  1
  O  O234  1  0.33918530  0.48907838  0.25567070  1
  O  O235  1  0.38015167  0.47217280  0.78217681  1
  O  O236  1  0.85626157  0.01810922  0.24417826  1
  O  O237  1  0.86397207  -0.04036427  0.77051065  1
  O  O238  1  0.87108143  0.52994517  0.28433580  1
  O  O239  1  0.86903779  0.50352433  0.74293150  1
  O  O240  1  0.10818947  0.37433718  0.37128840  1
  O  O241  1  0.10488847  0.36107796  0.87109148  1
  O  O242  1  0.14936226  0.85681697  0.39608742  1
  O  O243  1  0.14967138  0.85950426  0.85369542  1
  O  O244  1  0.59623826  0.39146049  0.35359589  1
  O  O245  1  0.61766573  0.40193495  0.85698232  1
  O  O246  1  0.63247806  0.91392914  0.39153648  1
  O  O247  1  0.61685141  0.82771205  0.86631259  1
  O  O248  1  0.36879040  0.11453023  0.13982660  1
  O  O249  1  0.46587487  0.17440018  0.66936868  1
  O  O250  1  0.35351222  0.61612818  0.13347418  1
  O  O251  1  0.37518655  0.65292783  0.57813363  1
  O  O252  1  0.87452439  0.11997219  0.11063763  1
  O  O253  1  0.88288026  0.13428236  0.62290198  1
  O  O254  1  0.86302056  0.64009126  0.16624017  1
  O  O255  1  0.87967133  0.61932783  0.62639066  1
  O  O256  1  0.22397445  0.25501830  0.11678762  1
  O  O257  1  0.25617127  0.24515588  0.60609927  1
  O  O258  1  0.28035395  0.77278227  0.16320585  1
  O  O259  1  0.26496831  0.79815699  0.60723728  1
  O  O260  1  0.75701650  0.24069618  0.10808311  1
  O  O261  1  0.76677836  0.24907872  0.63191201  1
  O  O262  1  0.74829135  0.79313729  0.15131808  1
  O  O263  1  0.76622323  0.77436412  0.61807270  1
  O  O264  1  0.25100100  0.24391275  0.37912203  1
  O  O265  1  0.22612301  0.25072952  0.89166045  1
  O  O266  1  0.24125136  0.72899957  0.35788908  1
  O  O267  1  0.26695372  0.74598296  0.90892007  1
  O  O268  1  0.75747721  0.23495347  0.37205838  1
  O  O269  1  0.73822880  0.23950257  0.89157628  1
  O  O270  1  0.72274710  0.73790892  0.40830340  1
  O  O271  1  0.73930678  0.73244499  0.85386406  1
  O  O272  1  0.00524967  0.11947662  0.00249555  1
  O  O273  1  -0.00222898  0.11334384  0.51379917  1
  O  O274  1  0.03787569  0.60430658  -0.02895810  1
  O  O275  1  0.00728585  0.61885118  0.48936617  1
  O  O276  1  0.49117759  0.12977147  0.02495281  1
  O  O277  1  0.51047155  0.13103731  0.49376804  1
  O  O278  1  0.48175536  0.64887735  0.04054516  1
  O  O279  1  0.49080771  0.62803719  0.50147611  1
  O  O280  1  0.48079879  0.37426825  0.47100478  1
  O  O281  1  0.47028290  0.36499666  1.03025683  1
  O  O282  1  0.49408911  0.91223625  0.48848600  1
  O  O283  1  0.49972944  0.82649913  0.97807642  1
  O  O284  1  1.00234200  0.38281210  0.49286897  1
  O  O285  1  0.98518086  0.36131452  0.98381855  1
  O  O286  1  1.00081717  0.90053099  0.50168684  1
  O  O287  1  1.03077540  0.77492936  0.92832850  1
  O  O288  1  0.47503628  0.49913323  0.34465767  1
  O  O289  1  0.48015399  0.52079856  0.89769331  1
  O  O290  1  0.49378881  1.00187196  0.37185345  1
  O  O291  1  0.54996988  0.96075383  0.90679537  1
  O  O292  1  0.98804533  0.48446574  0.38410791  1
  O  O293  1  0.99393616  0.47959552  0.87198240  1
  O  O294  1  1.00868060  1.02513660  0.37720429  1
  O  O295  1  0.97930903  0.99982278  0.87870276  1
  O  O296  1  -0.00527790  0.01089226  0.12371008  1
  O  O297  1  -0.00406151  0.01745289  0.64107326  1
  O  O298  1  -0.02764191  0.51367792  0.12413070  1
  O  O299  1  -0.00522061  0.48902410  0.61021703  1
  O  O300  1  0.49541599  0.01257686  0.14046029  1
  O  O301  1  0.49449366  0.01677852  0.61439058  1
  O  O302  1  0.47271360  0.50703287  0.13184943  1
  O  O303  1  0.44468370  0.53485781  0.61893980  1
  O  O304  1  0.23162975  0.37004597  0.23805707  1
  O  O305  1  0.21996614  0.35915475  0.75261169  1
  O  O306  1  0.30690000  0.84095831  0.19922967  1
  O  O307  1  0.26556205  0.88285249  0.73775902  1
  O  O308  1  0.72996378  0.37096603  0.25458065  1
  O  O309  1  0.75448896  0.38607526  0.75572323  1
  O  O310  1  0.76329443  0.88932038  0.29108692  1
  O  O311  1  0.72369609  0.87794893  0.72365496  1
  O  O312  1  0.26162599  0.13680858  0.25837869  1
  O  O313  1  0.34010531  0.21469330  0.74723443  1
  O  O314  1  0.22737415  0.60885621  0.25370030  1
  O  O315  1  0.25801544  0.58853722  0.69307118  1
  O  O316  1  0.75369952  0.12472101  0.25813049  1
  O  O317  1  0.73545898  0.10172874  0.73898613  1
  O  O318  1  0.75867591  0.64960756  0.28375816  1
  O  O319  1  0.76520622  0.60976873  0.73275058  1
  O  O320  1  0.37461261  0.12517724  0.36185531  1
  O  O321  1  0.37936161  0.13264232  0.88261811  1
  O  O322  1  0.34597787  0.60439376  0.37370507  1
  O  O323  1  0.35639900  0.60996188  0.88703859  1
  O  O324  1  0.87618723  0.13271149  0.35792705  1
  O  O325  1  0.86332503  0.10543728  0.87215091  1
  O  O326  1  0.84868659  0.63036875  0.39871307  1
  O  O327  1  0.86506602  0.62851143  0.85381784  1
  O  O328  1  0.11489448  0.37236854  0.12326453  1
  O  O329  1  0.11082126  0.34490337  0.64598537  1
  O  O330  1  0.08858406  0.89470276  0.11336314  1
  O  O331  1  0.14117811  0.89358648  0.63520125  1
  O  O332  1  0.62962423  0.37196812  0.12756408  1
  O  O333  1  0.65527385  0.35254739  0.64436576  1
  O  O334  1  0.59988422  0.92784981  0.07608419  1
  O  O335  1  0.64010191  0.85412648  0.57452239  1
  O  O336  1  0.09485678  0.19405488  0.25447582  1
  O  O337  1  0.11018320  0.24663448  0.76805899  1
  O  O338  1  0.10879613  0.75716551  0.27183961  1
  O  O339  1  0.14574401  0.76166375  0.72896001  1
  O  O340  1  0.60786728  0.26338009  0.24273499  1
  O  O341  1  0.63558320  0.27009705  0.77705382  1
  O  O342  1  0.60535093  0.73817031  0.27446896  1
  O  O343  1  0.62834667  0.72070975  0.73704371  1
  O  O344  1  0.38252314  0.24035562  0.24637098  1
  O  O345  1  0.37499655  0.27714309  0.75901883  1
  O  O346  1  0.43095829  0.74006495  0.32242021  1
  O  O347  1  0.33432970  0.72877868  0.76278691  1
  O  O348  1  0.85987941  0.23582193  0.22526679  1
  O  O349  1  0.87913933  0.24599670  0.76099556  1
  O  O350  1  0.88232422  0.74940308  0.28480049  1
  O  O351  1  0.87201133  0.73289643  0.73657577  1
  O  O352  1  0.35900554  0.48253316  0.46757830  1
  O  O353  1  0.35754510  0.48380878  0.99772612  1
  O  O354  1  0.39210405  1.01400132  0.48823435  1
  O  O355  1  0.36789131  1.00594169  0.97672341  1
  O  O356  1  0.89159037  0.50298008  0.48913064  1
  O  O357  1  0.87396098  0.48024177  0.99690003  1
  O  O358  1  0.89209420  0.99786217  0.49716407  1
  O  O359  1  0.85438861  0.98432552  0.97935426  1
  O  O360  1  0.13579784  0.01264612  -0.02975124  1
  O  O361  1  0.11499103  0.00245458  0.49283600  1
  O  O362  1  0.12780164  0.51045444  0.00095528  1
  O  O363  1  0.10668429  0.50952185  0.49309436  1
  O  O364  1  0.62507222  -0.01725466  0.03724032  1
  O  O365  1  0.61048525  0.02566147  0.50544984  1
  O  O366  1  0.62578241  0.52508921  0.01012198  1
  O  O367  1  0.60516208  0.45551769  0.51871157  1
  O  O368  1  0.33349160  0.37503435  0.11523691  1
  O  O369  1  0.37706009  0.39188027  0.59890436  1
  O  O370  1  0.35979765  0.87736849  0.15396855  1
  O  O371  1  0.39701867  0.89186004  0.61265210  1
  O  O372  1  0.87827703  0.35257895  0.10407431  1
  O  O373  1  0.86885474  0.35114952  0.62691097  1
  O  O374  1  0.89139319  0.87123304  0.10711891  1
  O  O375  1  0.88836531  0.87542762  0.61315733  1
  O  O376  1  0.14744254  0.12197922  0.37700250  1
  O  O377  1  0.11136468  0.13388523  0.88158518  1
  O  O378  1  0.12753406  0.63524844  0.38210321  1
  O  O379  1  0.10794245  0.57342980  0.95453270  1
  O  O380  1  0.63144320  0.13440457  0.37024292  1
  O  O381  1  0.60490761  0.13724048  0.86503532  1
  O  O382  1  0.64033477  0.59058836  0.37493526  1
  O  O383  1  0.64936237  0.61717937  0.86539567  1
