# generated using pymatgen
data_VZnO4
_symmetry_space_group_name_H-M   'P 1'
_cell_length_a   16.89816000
_cell_length_b   16.91832768
_cell_length_c   16.89796265
_cell_angle_alpha   90.18901006
_cell_angle_beta   89.71540277
_cell_angle_gamma   89.73425534
_symmetry_Int_Tables_number   1
_chemical_formula_structural   VZnO4
_chemical_formula_sum   'V64 Zn64 O256'
_cell_volume   4830.79680849
_cell_formula_units_Z   64
loop_
 _symmetry_equiv_pos_site_id
 _symmetry_equiv_pos_as_xyz
  1  'x, y, z'
loop_
 _atom_site_type_symbol
 _atom_site_label
 _atom_site_symmetry_multiplicity
 _atom_site_fract_x
 _atom_site_fract_y
 _atom_site_fract_z
 _atom_site_occupancy
  V  V0  1  0.38193015  0.37029503  -0.00818229  1
  V  V1  1  0.82055407  0.28878371  -0.00655633  1
  V  V2  1  0.50063984  0.00841348  0.01777430  1
  V  V3  1  0.61991926  0.60078980  0.47903955  1
  V  V4  1  0.21332504  0.23966302  -0.00475904  1
  V  V5  1  0.13586392  0.63903368  -0.01138605  1
  V  V6  1  0.11160808  0.25718378  0.37734239  1
  V  V7  1  0.12104568  0.85856252  0.77712602  1
  V  V8  1  0.24290724  0.37987855  0.12433306  1
  V  V9  1  0.88857007  0.37156505  0.50923889  1
  V  V10  1  0.87516330  0.01596777  0.36860134  1
  V  V11  1  0.24507362  0.13056329  0.35258817  1
  V  V12  1  0.10479873  0.37750118  0.74231317  1
  V  V13  1  0.24671310  -0.00444192  0.77526782  1
  V  V14  1  0.13151574  0.50071788  0.12410594  1
  V  V15  1  0.86370349  0.62626466  0.72496096  1
  V  V16  1  0.64298437  0.11607324  0.00548007  1
  V  V17  1  -0.00440227  0.87801386  0.37908430  1
  V  V18  1  -0.00807186  0.50288706  -0.01879689  1
  V  V19  1  0.50613815  0.74079449  0.25947108  1
  V  V20  1  0.60689255  0.24223502  0.87903680  1
  V  V21  1  0.25402862  0.61656446  0.35243096  1
  V  V22  1  0.36607111  0.87747457  0.50010170  1
  V  V23  1  -0.01782562  0.74960217  0.74661928  1
  V  V24  1  0.00180003  0.74829636  0.24392051  1
  V  V25  1  0.25291278  0.64199088  0.85960147  1
  V  V26  1  0.62801527  0.87906181  0.23666589  1
  V  V27  1  0.74211960  0.25882639  0.51221148  1
  V  V28  1  0.36424354  0.12469834  0.76847951  1
  V  V29  1  0.61820931  0.50542893  0.11235931  1
  V  V30  1  0.35453885  0.49770048  0.87228651  1
  V  V31  1  0.86826878  0.75344966  0.12634779  1
  V  V32  1  -0.00557244  -0.00065470  0.01128207  1
  V  V33  1  0.87954668  0.86403401  -0.01311221  1
  V  V34  1  0.86590971  0.01287992  0.88153515  1
  V  V35  1  0.13069923  0.50652248  0.63156270  1
  V  V36  1  0.62247539  0.11574350  0.50302934  1
  V  V37  1  0.51040576  0.88509978  0.86880216  1
  V  V38  1  0.00045711  0.01241834  0.52056914  1
  V  V39  1  0.73269008  0.75000105  0.00593219  1
  V  V40  1  0.48725086  -0.00498224  0.52270561  1
  V  V41  1  0.77069679  0.61889766  0.37077457  1
  V  V42  1  0.61647867  0.74783242  0.85309176  1
  V  V43  1  0.13210806  0.75432280  0.36698772  1
  V  V44  1  0.13527113  0.12663857  0.52407139  1
  V  V45  1  0.11600163  0.61996893  0.49842352  1
  V  V46  1  0.38871575  0.49438457  0.35156844  1
  V  V47  1  0.36962984  0.39386331  0.50178187  1
  V  V48  1  -0.00224212  0.62788582  0.11817875  1
  V  V49  1  0.60467312  0.36857816  0.23928672  1
  V  V50  1  0.48622902  0.65381080  0.60908473  1
  V  V51  1  0.75451269  -0.01835110  0.74345240  1
  V  V52  1  0.75445532  0.62414609  0.87605928  1
  V  V53  1  0.76968286  0.48105933  0.24624750  1
  V  V54  1  0.37971156  0.73691537  0.12988965  1
  V  V55  1  0.22924105  0.88699688  0.62345028  1
  V  V56  1  0.37909907  0.87642542  -0.00388794  1
  V  V57  1  0.12994059  0.88880635  0.23896712  1
  V  V58  1  0.25024993  0.74866909  0.50332670  1
  V  V59  1  0.37840334  0.23814805  0.12748209  1
  V  V60  1  0.73993469  0.48355843  0.74443660  1
  V  V61  1  0.36479787  0.00043045  0.36476077  1
  V  V62  1  0.25863988  0.88536850  0.12698461  1
  V  V63  1  0.48243072  0.13908540  0.64052051  1
  Zn  Zn64  1  0.18569966  0.21451611  0.19544206  1
  Zn  Zn65  1  0.15239122  0.16907623  0.73040924  1
  Zn  Zn66  1  0.19057176  0.69556606  0.17248596  1
  Zn  Zn67  1  0.18804125  0.68696128  0.68227342  1
  Zn  Zn68  1  0.69752963  0.21256223  0.14700796  1
  Zn  Zn69  1  0.67725096  0.15547516  0.68872256  1
  Zn  Zn70  1  0.68350709  0.67711733  0.19785822  1
  Zn  Zn71  1  0.68867452  0.70387061  0.67455586  1
  Zn  Zn72  1  0.30996569  0.31399854  0.31006377  1
  Zn  Zn73  1  0.29858247  0.29981812  0.83198798  1
  Zn  Zn74  1  0.31730264  0.81424324  0.30772125  1
  Zn  Zn75  1  0.31934166  0.81244470  0.80500747  1
  Zn  Zn76  1  0.71613888  0.28447105  0.32793469  1
  Zn  Zn77  1  0.74380632  0.30003614  0.81222418  1
  Zn  Zn78  1  0.81073957  0.79587154  0.31170772  1
  Zn  Zn79  1  0.79777407  0.80979675  0.80865020  1
  Zn  Zn80  1  0.20301648  0.43756561  0.43593166  1
  Zn  Zn81  1  0.17389067  0.43465368  0.93751123  1
  Zn  Zn82  1  0.18297650  0.94628205  0.43391879  1
  Zn  Zn83  1  0.18536453  0.92560149  0.95259901  1
  Zn  Zn84  1  0.68314455  0.43407578  0.42319476  1
  Zn  Zn85  1  0.69730485  0.43054414  0.93755707  1
  Zn  Zn86  1  0.71502688  0.90146756  0.39526937  1
  Zn  Zn87  1  0.68788226  0.93526935  0.94570810  1
  Zn  Zn88  1  0.30703644  0.06442827  0.05348675  1
  Zn  Zn89  1  0.30576406  0.06267246  0.57613534  1
  Zn  Zn90  1  0.31707236  0.56140210  0.05211005  1
  Zn  Zn91  1  0.31104396  0.56489020  0.54770311  1
  Zn  Zn92  1  0.84521672  0.12379506  0.04644444  1
  Zn  Zn93  1  0.78932545  -0.00004131  0.53243587  1
  Zn  Zn94  1  0.80668991  0.55877090  0.06567240  1
  Zn  Zn95  1  0.79308816  0.54282992  0.56280552  1
  Zn  Zn96  1  0.43724954  0.43753469  0.17334757  1
  Zn  Zn97  1  0.42522092  0.50050554  0.66911905  1
  Zn  Zn98  1  0.44751345  0.93059150  0.19314014  1
  Zn  Zn99  1  0.42169710  0.90920754  0.69426657  1
  Zn  Zn100  1  0.95513577  0.44266392  0.18713325  1
  Zn  Zn101  1  0.94091251  0.46405637  0.66411286  1
  Zn  Zn102  1  0.92839781  0.93515732  0.18876512  1
  Zn  Zn103  1  0.95727491  0.95320371  0.71650018  1
  Zn  Zn104  1  0.06864075  0.06379121  0.32077694  1
  Zn  Zn105  1  0.07795863  0.02466573  0.85810534  1
  Zn  Zn106  1  0.07453138  0.57086231  0.30438033  1
  Zn  Zn107  1  0.05827757  0.57691923  0.80381074  1
  Zn  Zn108  1  0.57367970  -0.00382517  0.35788919  1
  Zn  Zn109  1  0.56918586  0.06264882  0.81356180  1
  Zn  Zn110  1  0.56792312  0.55277257  0.29587054  1
  Zn  Zn111  1  0.58089709  0.57358651  0.76527355  1
  Zn  Zn112  1  0.41954367  0.17156804  0.44462964  1
  Zn  Zn113  1  0.43140117  0.18671222  0.93889197  1
  Zn  Zn114  1  0.43587063  0.67191246  0.42960751  1
  Zn  Zn115  1  0.42505769  0.69851868  0.92804624  1
  Zn  Zn116  1  0.93006631  0.19267579  0.45154311  1
  Zn  Zn117  1  0.96542041  0.17974416  0.92367749  1
  Zn  Zn118  1  0.93998558  0.68359900  0.42354956  1
  Zn  Zn119  1  0.94063783  0.68504757  0.92905983  1
  Zn  Zn120  1  0.02332651  0.30966856  0.04951707  1
  Zn  Zn121  1  0.09766031  0.33625570  0.53743751  1
  Zn  Zn122  1  0.06349576  0.81639321  0.05860287  1
  Zn  Zn123  1  0.05775910  0.80451067  0.56138714  1
  Zn  Zn124  1  0.56396298  0.30865255  0.05978244  1
  Zn  Zn125  1  0.54584447  0.29239957  0.55471820  1
  Zn  Zn126  1  0.55651263  0.81718490  0.07479724  1
  Zn  Zn127  1  0.55490771  0.80480902  0.44835022  1
  O  O128  1  0.07151647  0.15041292  0.16541149  1
  O  O129  1  0.13205580  0.12570115  0.62349606  1
  O  O130  1  0.12155410  0.62376073  0.11037780  1
  O  O131  1  0.12912454  0.63034745  0.60228885  1
  O  O132  1  0.62217412  0.13747410  0.10258219  1
  O  O133  1  0.58763007  0.11906410  0.61966401  1
  O  O134  1  0.62803696  0.60649079  0.12897958  1
  O  O135  1  0.61602325  0.67594121  0.58277824  1
  O  O136  1  0.36175477  0.39199607  0.37409649  1
  O  O137  1  0.35741234  0.38184799  0.88423888  1
  O  O138  1  0.34853037  0.89097312  0.38852754  1
  O  O139  1  0.39299232  0.86497404  0.89128054  1
  O  O140  1  0.87885886  0.40324058  0.41899772  1
  O  O141  1  0.88455377  0.37093790  0.85931517  1
  O  O142  1  0.89600146  0.86309928  0.37241642  1
  O  O143  1  0.87059872  0.85548355  0.88762702  1
  O  O144  1  0.25127263  0.01568101  0.37314651  1
  O  O145  1  0.24834372  -0.01318617  0.87482079  1
  O  O146  1  0.24038099  0.51592524  0.36054179  1
  O  O147  1  0.25423848  0.50859666  0.86563281  1
  O  O148  1  0.77949364  -0.00701923  0.40456469  1
  O  O149  1  0.76155917  -0.01405203  0.87157551  1
  O  O150  1  0.74717812  0.50279106  0.35437723  1
  O  O151  1  0.75488336  0.52181473  0.86924612  1
  O  O152  1  0.24062777  0.49386392  0.11005307  1
  O  O153  1  0.23352859  0.51943296  0.61428923  1
  O  O154  1  0.25326453  0.98465880  0.12044029  1
  O  O155  1  0.23507076  0.98721181  0.63242290  1
  O  O156  1  0.74371852  0.50205447  0.14067325  1
  O  O157  1  0.72080443  0.51421801  0.65069842  1
  O  O158  1  0.75641778  1.11577502  0.20184107  1
  O  O159  1  0.78181230  0.99636752  0.64681196  1
  O  O160  1  0.00490493  0.41882959  0.31307062  1
  O  O161  1  0.00508716  0.39254450  0.73072549  1
  O  O162  1  0.01211590  0.86609041  0.25153432  1
  O  O163  1  0.01239364  0.86355359  0.75796209  1
  O  O164  1  0.50514459  0.36578498  0.24024053  1
  O  O165  1  0.56720605  0.36510881  0.70767114  1
  O  O166  1  0.51646608  0.86139569  0.25049720  1
  O  O167  1  0.51139320  0.89213409  0.77040075  1
  O  O168  1  0.51335031  0.18564368  0.29120402  1
  O  O169  1  0.48150284  0.11076191  0.74654217  1
  O  O170  1  0.50632580  0.64065858  0.25307791  1
  O  O171  1  0.52156663  0.65579624  0.71365761  1
  O  O172  1  1.02664450  0.13433812  0.22354794  1
  O  O173  1  1.05366538  0.13689625  0.78859247  1
  O  O174  1  1.01039286  0.64052429  0.23679385  1
  O  O175  1  0.97243886  0.63272420  0.74038678  1
  O  O176  1  0.35991515  0.26055510  -0.00041139  1
  O  O177  1  0.40379116  0.28023052  0.48596680  1
  O  O178  1  0.39121295  0.76580924  0.01739811  1
  O  O179  1  0.35319065  0.76316128  0.48072788  1
  O  O180  1  0.92527517  0.26396057  -0.00295445  1
  O  O181  1  0.85760269  0.26310520  0.51206227  1
  O  O182  1  0.87526613  0.75254515  0.00930852  1
  O  O183  1  0.86697036  0.74979187  0.50227125  1
  O  O184  1  0.12131980  0.22775597  0.50129842  1
  O  O185  1  0.11337060  0.24625171  1.01928535  1
  O  O186  1  0.13335569  0.74711748  0.48465551  1
  O  O187  1  0.12345459  0.73837265  1.00057299  1
  O  O188  1  0.62254770  0.22618410  0.50293620  1
  O  O189  1  0.62320722  0.23386163  0.98958055  1
  O  O190  1  0.62830152  0.71994699  0.50851511  1
  O  O191  1  0.63418032  0.74863923  1.01494669  1
  O  O192  1  0.47716181  0.25277337  0.11217294  1
  O  O193  1  0.48305995  0.23866661  0.63643251  1
  O  O194  1  0.48834411  0.75097366  0.13850538  1
  O  O195  1  0.47290324  0.74757364  0.59061028  1
  O  O196  1  0.98412295  0.33667093  0.15729192  1
  O  O197  1  0.94684362  0.24171775  0.66591811  1
  O  O198  1  0.99487820  0.74726091  0.12761393  1
  O  O199  1  1.00730967  0.75011670  0.64466218  1
  O  O200  1  0.01218134  0.24264569  0.38628986  1
  O  O201  1  -0.04754649  0.33769274  0.85489390  1
  O  O202  1  0.01125978  0.75802466  0.36432493  1
  O  O203  1  0.00359979  0.73412920  0.84762855  1
  O  O204  1  0.49669930  0.22667069  0.34940585  1
  O  O205  1  0.50717856  0.24800834  0.87100592  1
  O  O206  1  0.49136797  0.75024893  0.36799016  1
  O  O207  1  0.51199136  0.75533854  0.87759485  1
  O  O208  1  0.23654782  0.11703042  0.50324527  1
  O  O209  1  0.23604303  0.14067822  1.00700735  1
  O  O210  1  0.24471848  0.64174621  0.48162913  1
  O  O211  1  0.23821577  0.62568841  0.99277970  1
  O  O212  1  0.71811927  0.09312536  0.51975826  1
  O  O213  1  0.74188040  0.09874337  1.00355364  1
  O  O214  1  0.73658137  0.59896919  0.48074623  1
  O  O215  1  0.75556054  0.63845792  0.98575372  1
  O  O216  1  0.24122829  0.36416415  0.00442526  1
  O  O217  1  0.27043551  0.37561260  0.50842413  1
  O  O218  1  0.26775438  0.87315199  0.01194282  1
  O  O219  1  0.23847604  0.86876933  0.50486707  1
  O  O220  1  0.78982170  0.38435341  -0.00260512  1
  O  O221  1  0.72895528  0.35953906  0.50559013  1
  O  O222  1  0.75820438  0.85372765  0.00158087  1
  O  O223  1  0.75392407  0.88194268  0.51522911  1
  O  O224  1  0.12561904  0.50988503  0.22386106  1
  O  O225  1  0.12439834  0.50946915  0.73539477  1
  O  O226  1  0.11731045  0.98647949  0.24642410  1
  O  O227  1  0.13092920  0.97529016  0.76780698  1
  O  O228  1  0.63008211  0.47932603  0.23443151  1
  O  O229  1  0.64402436  0.48333455  0.78429393  1
  O  O230  1  0.61693473  0.97938214  0.25371891  1
  O  O231  1  0.67086238  1.04799083  0.75071813  1
  O  O232  1  0.38004677  -0.01046468  0.26742520  1
  O  O233  1  0.34795053  -0.00908787  0.75066684  1
  O  O234  1  0.37416063  0.49477889  0.25132123  1
  O  O235  1  0.39993886  0.49351755  0.78171363  1
  O  O236  1  0.87289318  -0.01024238  0.27021540  1
  O  O237  1  0.86672957  -0.00993645  0.77198331  1
  O  O238  1  0.87070489  0.49511530  0.23645352  1
  O  O239  1  0.85724256  0.52184063  0.73947422  1
  O  O240  1  0.12822047  0.35383797  0.41808310  1
  O  O241  1  0.13321024  0.39359071  0.83911043  1
  O  O242  1  0.12195261  0.87119719  0.35822407  1
  O  O243  1  0.13295981  0.85487452  0.87567043  1
  O  O244  1  0.63030531  0.36706983  0.34601341  1
  O  O245  1  0.64879176  0.34147778  0.88340792  1
  O  O246  1  0.60613470  0.88674883  0.39165453  1
  O  O247  1  0.61546441  0.85993549  0.88933152  1
  O  O248  1  0.36480699  0.13933719  0.11688704  1
  O  O249  1  0.37402983  0.11844894  0.64655600  1
  O  O250  1  0.37063772  0.63826576  0.11643983  1
  O  O251  1  0.39140519  0.60679865  0.61725673  1
  O  O252  1  0.88249306  0.10630422  0.15752350  1
  O  O253  1  0.90166747  0.13976919  0.71378701  1
  O  O254  1  0.89103770  0.63804931  0.11651607  1
  O  O255  1  0.85008311  0.63190544  0.62632786  1
  O  O256  1  0.24786868  0.26365873  0.11246920  1
  O  O257  1  0.28440927  0.32985864  0.66267077  1
  O  O258  1  0.27099686  0.76383676  0.13072997  1
  O  O259  1  0.24559308  0.75448250  0.60523619  1
  O  O260  1  0.78823644  0.23296604  0.07726688  1
  O  O261  1  0.73358710  0.22341028  0.61040612  1
  O  O262  1  0.76328717  0.73429995  0.11723724  1
  O  O263  1  0.75104520  0.79004798  0.61222192  1
  O  O264  1  0.24715531  0.23447514  0.37259250  1
  O  O265  1  0.21916893  0.25113461  0.89342112  1
  O  O266  1  0.24158052  0.74733266  0.37154821  1
  O  O267  1  0.26824660  0.74088970  0.87529613  1
  O  O268  1  0.74889948  0.22285633  0.41360567  1
  O  O269  1  0.78804159  0.24850534  0.90654090  1
  O  O270  1  0.76013974  0.72170120  0.38189727  1
  O  O271  1  0.73018905  0.74866251  0.88819285  1
  O  O272  1  -0.03919947  0.10000762  0.01350732  1
  O  O273  1  0.00303657  0.11637417  0.51420488  1
  O  O274  1  0.01164965  0.62691872  0.00329648  1
  O  O275  1  0.01732975  0.63382123  0.48690350  1
  O  O276  1  0.49042495  0.10749429  -0.00115189  1
  O  O277  1  0.47568247  0.11093857  0.52411023  1
  O  O278  1  0.50686630  0.59328213  -0.03093527  1
  O  O279  1  0.50806257  0.61809068  0.50173915  1
  O  O280  1  0.47178457  0.33238380  0.47256213  1
  O  O281  1  0.48051104  0.36677501  0.99260635  1
  O  O282  1  0.47143524  0.88077949  0.50081965  1
  O  O283  1  0.49399658  0.88593032  1.00318872  1
  O  O284  1  0.98559416  0.35582500  0.53187518  1
  O  O285  1  1.01380808  0.40421862  0.98657440  1
  O  O286  1  1.01648163  0.87985404  0.48085740  1
  O  O287  1  0.98474346  0.87498050  0.99936354  1
  O  O288  1  0.48784047  0.49869169  0.36110677  1
  O  O289  1  0.51210082  0.54135644  0.91682206  1
  O  O290  1  0.46635468  1.00713033  0.40135015  1
  O  O291  1  0.51163420  0.98722453  0.88912651  1
  O  O292  1  1.01541499  0.47773209  0.35838134  1
  O  O293  1  0.99639715  0.52486507  0.88271406  1
  O  O294  1  0.99498615  0.98810698  0.37041555  1
  O  O295  1  0.97117173  0.98998505  0.88645153  1
  O  O296  1  -0.00290459  -0.01737802  0.11050511  1
  O  O297  1  -0.00515116  -0.01150260  0.61774188  1
  O  O298  1  0.01299636  0.51350363  0.11478768  1
  O  O299  1  0.02920477  0.51469399  0.61021015  1
  O  O300  1  0.49697212  0.00003821  0.11721848  1
  O  O301  1  0.47208817  -0.01463440  0.62245288  1
  O  O302  1  0.51513537  0.49667760  0.11688657  1
  O  O303  1  0.53419035  0.54292882  0.65988534  1
  O  O304  1  0.24856110  0.37336627  0.22363545  1
  O  O305  1  0.26921538  0.36999597  0.72251015  1
  O  O306  1  0.23918250  0.87598734  0.24063914  1
  O  O307  1  0.23603816  0.87583138  0.74089422  1
  O  O308  1  0.76291970  0.38072812  0.25430356  1
  O  O309  1  0.76657917  0.38579865  0.74366829  1
  O  O310  1  0.72754880  0.86457442  0.28037452  1
  O  O311  1  0.73275813  0.88402969  0.74982753  1
  O  O312  1  0.23528457  0.12629940  0.25314830  1
  O  O313  1  0.24643030  0.10348921  0.75945884  1
  O  O314  1  0.24436613  0.63427230  0.25529079  1
  O  O315  1  0.25277323  0.63485690  0.75973899  1
  O  O316  1  0.83189141  0.13086372  0.21404303  1
  O  O317  1  0.83586345  0.16457455  0.73374253  1
  O  O318  1  0.75201989  0.61487022  0.26436299  1
  O  O319  1  0.75328472  0.64246479  0.75393193  1
  O  O320  1  0.35443735  0.11551462  0.37335346  1
  O  O321  1  0.37678402  0.11124804  0.86724756  1
  O  O322  1  0.36016883  0.61190608  0.36822608  1
  O  O323  1  0.35980126  0.61250369  0.88772613  1
  O  O324  1  0.88768138  0.11523297  0.37362243  1
  O  O325  1  0.86877271  0.11159699  0.88644568  1
  O  O326  1  0.87178473  0.60912985  0.37819753  1
  O  O327  1  0.85488680  0.64474668  0.86071448  1
  O  O328  1  0.13097286  0.39453554  0.11513299  1
  O  O329  1  0.13429363  0.39714529  0.62868101  1
  O  O330  1  0.13975780  0.86781381  0.13119679  1
  O  O331  1  0.12982738  0.86989269  0.62509251  1
  O  O332  1  0.62392037  0.37831410  0.12910761  1
  O  O333  1  0.58968230  0.37731344  0.63856351  1
  O  O334  1  0.63757812  0.87285432  0.13610989  1
  O  O335  1  0.70859723  0.84146428  0.57251853  1
  O  O336  1  0.12359255  0.26680195  0.27683361  1
  O  O337  1  0.12968119  0.27974514  0.72845269  1
  O  O338  1  0.12011464  0.75843013  0.25131120  1
  O  O339  1  0.12673517  0.75947746  0.74767334  1
  O  O340  1  0.65008204  0.26679808  0.23290349  1
  O  O341  1  0.65749132  0.22552369  0.78113917  1
  O  O342  1  0.61306798  0.75500774  0.24764596  1
  O  O343  1  0.62753498  0.76403016  0.75612082  1
  O  O344  1  0.36459729  0.25635921  0.22704914  1
  O  O345  1  0.35225782  0.22454753  0.76522811  1
  O  O346  1  0.38822176  0.75504611  0.24120901  1
  O  O347  1  0.39452531  0.80277660  0.72557230  1
  O  O348  1  0.91295028  0.26873610  0.25846466  1
  O  O349  1  0.95712652  0.26262658  0.83045657  1
  O  O350  1  0.88633715  0.75431516  0.23435976  1
  O  O351  1  0.87635348  0.75293381  0.74227934  1
  O  O352  1  0.36928919  0.49813331  0.47195195  1
  O  O353  1  0.37143185  0.48494158  0.98434480  1
  O  O354  1  0.36118405  0.98811186  0.50095063  1
  O  O355  1  0.38429279  0.98532513  1.00418015  1
  O  O356  1  0.86175902  0.45109391  0.57807767  1
  O  O357  1  0.89392037  0.51387582  1.00672976  1
  O  O358  1  0.90100683  0.99724472  0.48797468  1
  O  O359  1  0.87096638  0.97519620  0.99351089  1
  O  O360  1  0.09570972  -0.00303034  -0.02294311  1
  O  O361  1  0.10899161  0.01439968  0.49391899  1
  O  O362  1  0.11669066  0.51864588  0.00215782  1
  O  O363  1  0.13293619  0.51955486  0.48903086  1
  O  O364  1  0.61331012  0.00702591  0.00270419  1
  O  O365  1  0.58756132  -0.00019133  0.51682118  1
  O  O366  1  0.64212694  0.49217970  0.01340933  1
  O  O367  1  0.61679801  0.50098658  0.49295868  1
  O  O368  1  0.35914795  0.37759892  0.10483487  1
  O  O369  1  0.40110330  0.41317743  0.59776185  1
  O  O370  1  0.36886727  0.87339305  0.12299661  1
  O  O371  1  0.34482944  0.87451242  0.60433535  1
  O  O372  1  0.91366770  0.27872408  0.18596062  1
  O  O373  1  0.88847697  0.28398203  0.67479507  1
  O  O374  1  0.87287302  0.85743086  0.11656556  1
  O  O375  1  0.89895581  0.79428877  0.55160242  1
  O  O376  1  0.13397040  0.13488993  0.38059710  1
  O  O377  1  0.06747881  0.14460883  0.87126777  1
  O  O378  1  0.13497922  0.63676084  0.37630496  1
  O  O379  1  0.14081085  0.62720025  0.87874452  1
  O  O380  1  0.60549847  0.09939173  0.40466364  1
  O  O381  1  0.61734945  0.13029624  0.89450428  1
  O  O382  1  0.62126528  0.61642779  0.37909214  1
  O  O383  1  0.63462292  0.64141765  0.85829888  1
