# generated using pymatgen
data_VZnO4
_symmetry_space_group_name_H-M   'P 1'
_cell_length_a   16.92609883
_cell_length_b   16.89154873
_cell_length_c   16.88899504
_cell_angle_alpha   90.35279664
_cell_angle_beta   89.83118898
_cell_angle_gamma   90.45191320
_symmetry_Int_Tables_number   1
_chemical_formula_structural   VZnO4
_chemical_formula_sum   'V64 Zn64 O256'
_cell_volume   4828.43717678
_cell_formula_units_Z   64
loop_
 _symmetry_equiv_pos_site_id
 _symmetry_equiv_pos_as_xyz
  1  'x, y, z'
loop_
 _atom_site_type_symbol
 _atom_site_label
 _atom_site_symmetry_multiplicity
 _atom_site_fract_x
 _atom_site_fract_y
 _atom_site_fract_z
 _atom_site_occupancy
  V  V0  1  0.86187062  0.49981851  0.89350961  1
  V  V1  1  0.12706022  0.86413306  0.74665947  1
  V  V2  1  0.00198245  0.60293095  0.62139526  1
  V  V3  1  0.25344158  0.11269264  0.38373303  1
  V  V4  1  0.33616481  0.75432453  0.12669940  1
  V  V5  1  0.49769146  0.00835250  0.47627189  1
  V  V6  1  0.89267371  0.38482084  0.48011448  1
  V  V7  1  0.26132340  0.75028651  0.49772166  1
  V  V8  1  0.76098629  0.13346571  0.88202186  1
  V  V9  1  0.13548717  0.27348613  0.87085265  1
  V  V10  1  0.50499387  0.38847118  0.35182204  1
  V  V11  1  0.62277741  0.14140411  0.01722793  1
  V  V12  1  0.36506069  0.87216826  0.00687610  1
  V  V13  1  0.61595692  0.47638685  0.63728921  1
  V  V14  1  -0.01223884  -0.00488644  0.00273523  1
  V  V15  1  0.61829459  0.25565767  0.85559150  1
  V  V16  1  0.38712300  0.39339718  0.02346249  1
  V  V17  1  0.72518002  0.38483000  0.13266458  1
  V  V18  1  0.25309837  -0.00492908  0.24817327  1
  V  V19  1  0.86560882  0.60617548  0.25866511  1
  V  V20  1  0.61884978  0.75588803  0.36146159  1
  V  V21  1  0.37819063  0.62778939  0.25371948  1
  V  V22  1  0.73659032  0.13476809  0.36201286  1
  V  V23  1  0.00013354  0.86142674  0.88457339  1
  V  V24  1  0.74551679  0.26566326  0.49939293  1
  V  V25  1  0.87858242  0.24816545  0.11745845  1
  V  V26  1  0.38045836  0.88689909  0.48361355  1
  V  V27  1  0.86927719  0.73990661  0.59714563  1
  V  V28  1  0.22772818  0.50125831  0.24506633  1
  V  V29  1  0.10592111  -0.00652186  0.62461534  1
  V  V30  1  0.00172241  0.62296715  0.12093211  1
  V  V31  1  0.11838764  0.75716572  0.38596756  1
  V  V32  1  0.12174337  0.87022084  0.24456559  1
  V  V33  1  0.14429225  0.37528335  0.72901547  1
  V  V34  1  0.25684014  0.25195954  0.50190927  1
  V  V35  1  -0.01289577  0.73413718  0.74641615  1
  V  V36  1  0.64110633  0.75781730  0.87287439  1
  V  V37  1  0.10461436  0.11498276  0.50392263  1
  V  V38  1  0.37961153  -0.00277315  0.85706250  1
  V  V39  1  0.01341242  0.49278198  0.00245019  1
  V  V40  1  0.11818947  0.01021331  0.12209746  1
  V  V41  1  0.28107536  0.62985965  0.90844284  1
  V  V42  1  0.85999335  0.75539709  0.10563312  1
  V  V43  1  0.89728874  0.24378113  0.61771209  1
  V  V44  1  0.88351350  0.11566208  0.25197650  1
  V  V45  1  0.62312753  -0.02259442  0.12693817  1
  V  V46  1  0.11818904  0.25132997  0.37771383  1
  V  V47  1  0.13149368  0.73228843  0.89189234  1
  V  V48  1  0.76505149  0.48512343  0.73846290  1
  V  V49  1  0.49355953  0.00247667  0.00254446  1
  V  V50  1  0.74562995  -0.01981646  0.24993999  1
  V  V51  1  0.61402779  0.62794545  0.51937564  1
  V  V52  1  0.37843094  0.13479186  0.24558343  1
  V  V53  1  0.47999552  0.49315495  0.50550966  1
  V  V54  1  0.36618615  0.24962874  0.64547098  1
  V  V55  1  0.61653926  0.13607806  0.49895769  1
  V  V56  1  0.26167650  0.88249438  0.62886857  1
  V  V57  1  0.00413785  0.26300123  0.25233614  1
  V  V58  1  0.73620920  0.60972734  0.37975872  1
  V  V59  1  -0.01688381  0.75313945  0.26099398  1
  V  V60  1  0.13246855  0.60834023  0.49669342  1
  V  V61  1  0.73232953  0.01969381  0.73978664  1
  V  V62  1  0.22278127  0.36186854  0.11508375  1
  V  V63  1  0.49068418  0.12565397  0.64032961  1
  Zn  Zn64  1  0.18955942  0.18869999  0.18994089  1
  Zn  Zn65  1  0.17160454  0.19013085  0.68297570  1
  Zn  Zn66  1  0.18210388  0.68145001  0.19677406  1
  Zn  Zn67  1  0.19871402  0.67553289  0.68777651  1
  Zn  Zn68  1  0.70164713  0.20686385  0.17945395  1
  Zn  Zn69  1  0.69112116  0.19256353  0.68445075  1
  Zn  Zn70  1  0.69070305  0.68811752  0.19421218  1
  Zn  Zn71  1  0.69839009  0.66982973  0.69238802  1
  Zn  Zn72  1  0.33216320  0.34192392  0.27033902  1
  Zn  Zn73  1  0.30223250  0.31112775  0.82033603  1
  Zn  Zn74  1  0.30679305  0.81002507  0.31380149  1
  Zn  Zn75  1  0.28965751  0.84371357  0.84383347  1
  Zn  Zn76  1  0.80609087  0.31454442  0.30343666  1
  Zn  Zn77  1  0.81975157  0.31278773  0.79229654  1
  Zn  Zn78  1  0.80191726  0.80431838  0.34127830  1
  Zn  Zn79  1  0.79978279  0.88753644  0.86885892  1
  Zn  Zn80  1  0.20808555  0.43109515  0.42455255  1
  Zn  Zn81  1  0.20539932  0.45351454  0.93879932  1
  Zn  Zn82  1  0.18331279  0.93266043  0.44043741  1
  Zn  Zn83  1  0.22404644  1.00080694  0.95958600  1
  Zn  Zn84  1  0.67144995  0.44290205  0.44163074  1
  Zn  Zn85  1  0.75703864  0.36221848  0.92508992  1
  Zn  Zn86  1  0.68505792  0.94893871  0.43406488  1
  Zn  Zn87  1  0.67419976  0.95835821  0.93291838  1
  Zn  Zn88  1  0.31083676  0.11422915  0.05897432  1
  Zn  Zn89  1  0.31268478  0.06200547  0.56805010  1
  Zn  Zn90  1  0.30812229  0.55914063  0.08443507  1
  Zn  Zn91  1  0.31093475  0.57606526  0.58466927  1
  Zn  Zn92  1  0.80544925  0.06363212  0.06845510  1
  Zn  Zn93  1  0.80536444  0.06823659  0.55587859  1
  Zn  Zn94  1  0.81632670  0.54696246  0.09269226  1
  Zn  Zn95  1  0.80485552  0.55637544  0.56199339  1
  Zn  Zn96  1  0.44686923  0.45883872  0.17310966  1
  Zn  Zn97  1  0.42781294  0.43805909  0.67220584  1
  Zn  Zn98  1  0.42695907  0.95244642  0.17256410  1
  Zn  Zn99  1  0.45046905  0.94160076  0.66497214  1
  Zn  Zn100  1  0.94485054  0.43173201  0.18607989  1
  Zn  Zn101  1  0.93824919  0.42347528  0.67068139  1
  Zn  Zn102  1  0.93090653  0.93317598  0.18442214  1
  Zn  Zn103  1  0.92960591  0.91383167  0.67977010  1
  Zn  Zn104  1  0.06618931  0.05585259  0.31908322  1
  Zn  Zn105  1  0.06590031  0.04037239  0.81874613  1
  Zn  Zn106  1  0.05827780  0.56605457  0.31955218  1
  Zn  Zn107  1  0.04835774  0.55747763  0.82327280  1
  Zn  Zn108  1  0.56352700  0.06169148  0.30141202  1
  Zn  Zn109  1  0.56725694  0.06843342  0.82331740  1
  Zn  Zn110  1  0.52914269  0.58446624  0.33516096  1
  Zn  Zn111  1  0.64792019  0.54566565  0.84496236  1
  Zn  Zn112  1  0.43454611  0.19903409  0.42067645  1
  Zn  Zn113  1  0.44521099  0.18031636  0.92592833  1
  Zn  Zn114  1  0.43763381  0.68583152  0.43654067  1
  Zn  Zn115  1  0.48595849  0.64498943  0.94200293  1
  Zn  Zn116  1  0.92409107  0.18482575  0.43361913  1
  Zn  Zn117  1  0.96047211  0.18205055  0.93443500  1
  Zn  Zn118  1  0.93854841  0.64433443  0.43646744  1
  Zn  Zn119  1  0.92957688  0.67402963  0.93094090  1
  Zn  Zn120  1  0.03978702  0.29631646  0.04661318  1
  Zn  Zn121  1  0.06284877  0.32071151  0.55279837  1
  Zn  Zn122  1  0.05767424  0.80336817  0.06886468  1
  Zn  Zn123  1  0.09088712  0.77318990  0.59855304  1
  Zn  Zn124  1  0.59437698  0.35834447  0.00793747  1
  Zn  Zn125  1  0.54623690  0.30740510  0.55594043  1
  Zn  Zn126  1  0.55233476  0.80721716  0.05144247  1
  Zn  Zn127  1  0.59505338  0.84006689  0.51960552  1
  O  O128  1  0.11967366  0.10874339  0.13601495  1
  O  O129  1  0.12151148  0.10629247  0.61712685  1
  O  O130  1  0.09927152  0.63303789  0.13408688  1
  O  O131  1  0.11972259  0.63308792  0.60681358  1
  O  O132  1  0.63578027  0.12953249  0.11918357  1
  O  O133  1  0.60455208  0.13901722  0.60476179  1
  O  O134  1  0.61511980  0.62382446  0.12487602  1
  O  O135  1  0.61706580  0.62381989  0.62082947  1
  O  O136  1  0.39047569  0.36976021  0.36202590  1
  O  O137  1  0.37037799  0.33154769  0.91794942  1
  O  O138  1  0.37388063  0.87303577  0.38547573  1
  O  O139  1  0.38632114  0.88158622  0.89916840  1
  O  O140  1  0.86625644  0.37029698  0.38065975  1
  O  O141  1  0.86134300  0.38722658  0.87350643  1
  O  O142  1  0.85966042  0.86579654  0.42987032  1
  O  O143  1  0.90324937  0.84906940  0.87214084  1
  O  O144  1  0.23597197  0.00632883  0.36639511  1
  O  O145  1  0.27580869  -0.02572122  0.85781939  1
  O  O146  1  0.26408481  0.47687887  0.34058192  1
  O  O147  1  0.25821893  0.53461297  0.87516968  1
  O  O148  1  0.73403902  0.01516782  0.35391082  1
  O  O149  1  0.74418535  0.02273317  0.86391078  1
  O  O150  1  0.73241171  0.50971229  0.36921049  1
  O  O151  1  0.75468725  0.48959864  0.86136841  1
  O  O152  1  0.23338822  0.48727647  0.13421426  1
  O  O153  1  0.28314474  0.60729449  0.68451062  1
  O  O154  1  0.22995236  0.99888937  0.14739069  1
  O  O155  1  0.24244231  0.98529668  0.62241440  1
  O  O156  1  0.75251544  0.48036532  0.15794886  1
  O  O157  1  0.72867283  0.50106851  0.63330943  1
  O  O158  1  0.73547943  0.99650703  0.13773594  1
  O  O159  1  0.74038998  1.02865061  0.63932132  1
  O  O160  1  0.00387265  0.36169785  0.25701306  1
  O  O161  1  0.02995066  0.40386240  0.75213735  1
  O  O162  1  0.00544756  0.86016139  0.25063561  1
  O  O163  1  0.00733941  0.85184105  0.75350240  1
  O  O164  1  0.51154050  0.41457807  0.25470912  1
  O  O165  1  0.43213772  0.40619591  0.79116017  1
  O  O166  1  0.49555331  0.86526588  0.24768895  1
  O  O167  1  0.54026815  0.86447598  0.68635009  1
  O  O168  1  0.47632813  0.12379127  0.26741479  1
  O  O169  1  0.50707963  0.11835304  0.73729719  1
  O  O170  1  0.48067221  0.62922789  0.24457886  1
  O  O171  1  0.55258488  0.56574125  0.89900055  1
  O  O172  1  0.98294937  0.10716141  0.26371143  1
  O  O173  1  0.98418814  0.11678192  0.76561266  1
  O  O174  1  0.98419819  0.63731484  0.24677593  1
  O  O175  1  1.01370873  0.62688684  0.73441305  1
  O  O176  1  0.37506452  0.26904979  -0.02764498  1
  O  O177  1  0.35712938  0.23832291  0.49930838  1
  O  O178  1  0.35749042  0.76954452  0.01451467  1
  O  O179  1  0.36575945  0.75988770  0.49555730  1
  O  O180  1  0.92257207  0.24518737  0.02435412  1
  O  O181  1  0.86074410  0.26214840  0.49448635  1
  O  O182  1  0.87498631  0.73963580  0.00666358  1
  O  O183  1  0.88226579  0.72435508  0.49759866  1
  O  O184  1  0.12861791  0.22891557  0.49801662  1
  O  O185  1  0.06493969  0.24334238  0.94315838  1
  O  O186  1  0.12629362  0.75882616  0.49076243  1
  O  O187  1  0.11945772  0.74346588  0.98954435  1
  O  O188  1  0.62736801  0.24343548  0.49247513  1
  O  O189  1  0.61950483  0.24051133  1.01199539  1
  O  O190  1  0.61477791  0.72794892  0.49967686  1
  O  O191  1  0.64489080  0.77979358  0.97842568  1
  O  O192  1  0.50951861  0.25498562  0.16066677  1
  O  O193  1  0.47799614  0.23655024  0.61930991  1
  O  O194  1  0.50627053  0.80439339  0.20764614  1
  O  O195  1  0.55198163  0.80760928  0.63740898  1
  O  O196  1  1.00607098  0.24145397  0.15102988  1
  O  O197  1  0.99908993  0.24809560  0.61665156  1
  O  O198  1  0.98389935  0.74031752  0.13869142  1
  O  O199  1  0.98789452  0.73576710  0.63306566  1
  O  O200  1  0.01010175  0.23704316  0.37020144  1
  O  O201  1  -0.01566962  0.18344629  0.80242730  1
  O  O202  1  0.00855378  0.74196421  0.36605758  1
  O  O203  1  0.01312699  0.74102579  0.86341238  1
  O  O204  1  0.47990188  0.28222318  0.36166363  1
  O  O205  1  0.51820352  0.24964858  0.87061881  1
  O  O206  1  0.51749870  0.73847160  0.37454853  1
  O  O207  1  0.53838164  0.73662857  0.87335900  1
  O  O208  1  0.24261048  0.11735331  0.49187012  1
  O  O209  1  0.23794163  0.10919642  0.98360465  1
  O  O210  1  0.24378032  0.64505663  0.50696980  1
  O  O211  1  0.25530655  0.62658953  1.00458189  1
  O  O212  1  0.72849075  0.12516094  0.48380553  1
  O  O213  1  0.73359569  0.11677777  0.99035588  1
  O  O214  1  0.72599772  0.60982355  0.49008422  1
  O  O215  1  0.70187213  0.57392819  1.02380223  1
  O  O216  1  0.26320036  0.38680657  0.01645421  1
  O  O217  1  0.24514007  0.35032808  0.49714248  1
  O  O218  1  0.26943955  0.90200320  0.00539643  1
  O  O219  1  0.26344035  0.87429103  0.50312420  1
  O  O220  1  0.75816885  0.37296841  0.03677586  1
  O  O221  1  0.74039025  0.36486053  0.49382352  1
  O  O222  1  0.76090727  0.89855141  -0.02728411  1
  O  O223  1  0.82978519  0.93678227  0.44863868  1
  O  O224  1  0.12698345  0.50502028  0.25849074  1
  O  O225  1  0.08660708  0.46965267  0.74937526  1
  O  O226  1  0.11705533  0.98335054  0.24646472  1
  O  O227  1  0.11824502  0.97740032  0.73663820  1
  O  O228  1  0.58093640  0.55791415  0.15219569  1
  O  O229  1  0.60799363  0.48601411  0.73759713  1
  O  O230  1  0.63096363  0.99284646  0.23776724  1
  O  O231  1  0.63326363  1.00113312  0.75435327  1
  O  O232  1  0.35543572  -0.00118883  0.25062054  1
  O  O233  1  0.40794067  -0.02627101  0.76359414  1
  O  O234  1  0.36682536  0.52519878  0.22251792  1
  O  O235  1  0.41363510  0.56407957  0.75338248  1
  O  O236  1  0.85650882  0.00648051  0.24234112  1
  O  O237  1  0.85034789  -0.02662338  0.74599031  1
  O  O238  1  0.88382290  0.50958036  0.25284823  1
  O  O239  1  0.86631863  0.49103905  0.73453750  1
  O  O240  1  0.12878785  0.34890385  0.38599990  1
  O  O241  1  0.13840995  0.37541112  0.87446061  1
  O  O242  1  0.11881731  0.86365187  0.36934110  1
  O  O243  1  0.12218740  0.84454650  0.85742511  1
  O  O244  1  0.60173607  0.37868672  0.38024297  1
  O  O245  1  0.64052500  0.35329688  0.90027541  1
  O  O246  1  0.62636436  0.85593561  0.39162229  1
  O  O247  1  0.62287811  0.86505546  0.87067014  1
  O  O248  1  0.37455948  0.11487806  0.14473741  1
  O  O249  1  0.38124273  0.12918768  0.63036207  1
  O  O250  1  0.36717241  0.65385884  0.12636438  1
  O  O251  1  0.46895442  0.61021745  0.74175418  1
  O  O252  1  0.87452326  0.12768589  0.14522393  1
  O  O253  1  0.88073887  0.14489410  0.58928786  1
  O  O254  1  0.87577496  0.63437256  0.14436044  1
  O  O255  1  0.89745090  0.61787511  0.61165794  1
  O  O256  1  0.24492995  0.25976579  0.12187937  1
  O  O257  1  0.25668437  0.23083151  0.61348657  1
  O  O258  1  0.23714042  0.75584301  0.12681248  1
  O  O259  1  0.23933021  0.77046346  0.60274313  1
  O  O260  1  0.78192437  0.23057249  0.09637216  1
  O  O261  1  0.74719450  0.24300599  0.59922006  1
  O  O262  1  0.76100650  0.73927031  0.12231555  1
  O  O263  1  0.77344392  0.71632398  0.62476204  1
  O  O264  1  0.23258134  0.22706879  0.38835391  1
  O  O265  1  0.22947993  0.24861406  0.88858216  1
  O  O266  1  0.23480774  0.75858445  0.39075818  1
  O  O267  1  0.24059422  0.73554833  0.87038237  1
  O  O268  1  0.74868347  0.23883358  0.38389780  1
  O  O269  1  0.74583298  0.24350269  0.86932713  1
  O  O270  1  0.72869029  0.72974602  0.38093554  1
  O  O271  1  0.74333585  0.78123256  0.85466615  1
  O  O272  1  0.01235645  0.08924459  -0.02015280  1
  O  O273  1  0.00756824  0.11954725  0.49178374  1
  O  O274  1  -0.00885972  0.61892218  0.01608908  1
  O  O275  1  0.02303481  0.61892393  0.51073103  1
  O  O276  1  0.51408588  0.11857187  0.00309760  1
  O  O277  1  0.50383867  0.12582723  0.48066162  1
  O  O278  1  0.51240522  0.70526005  0.03392799  1
  O  O279  1  0.50649731  0.61218651  0.49606538  1
  O  O280  1  0.48652416  0.39056167  0.50185383  1
  O  O281  1  0.48627576  0.38429300  1.00750210  1
  O  O282  1  0.48904146  0.89438615  0.50343860  1
  O  O283  1  0.48648865  0.89441277  1.01539973  1
  O  O284  1  0.99417419  0.37796742  0.48355820  1
  O  O285  1  0.99002794  0.39734166  1.01750001  1
  O  O286  1  0.99946057  0.93929789  0.43612541  1
  O  O287  1  1.00751971  0.87036789  0.98987147  1
  O  O288  1  0.48998634  0.49506664  0.39388558  1
  O  O289  1  0.48503250  0.42726244  0.83932025  1
  O  O290  1  0.49700769  0.99853849  0.37771989  1
  O  O291  1  0.50316065  0.99965690  0.89630365  1
  O  O292  1  0.97668567  0.54623803  0.39024854  1
  O  O293  1  0.98176971  0.50101960  0.89751599  1
  O  O294  1  0.98034165  0.98482383  0.38140639  1
  O  O295  1  1.00832400  0.96999313  0.88489804  1
  O  O296  1  0.00852480  -0.01329001  0.11508420  1
  O  O297  1  0.00705182  -0.01497301  0.62696320  1
  O  O298  1  -0.01180765  0.51439860  0.11898101  1
  O  O299  1  0.00776455  0.50484797  0.62178432  1
  O  O300  1  0.51657338  0.00430014  0.12495221  1
  O  O301  1  0.49388369  0.02532179  0.60163739  1
  O  O302  1  0.52328020  0.53098396  0.10632357  1
  O  O303  1  0.50467493  0.49847180  0.61975553  1
  O  O304  1  0.23761040  0.38002863  0.22554458  1
  O  O305  1  0.24324007  0.38537833  0.75251942  1
  O  O306  1  0.23198642  0.88560134  0.26176068  1
  O  O307  1  0.24513813  0.86248071  0.73333782  1
  O  O308  1  0.72835763  0.31545641  0.22014283  1
  O  O309  1  0.74326380  0.38643557  0.74370739  1
  O  O310  1  0.75729109  0.88393812  0.26611457  1
  O  O311  1  0.78495610  0.91628186  0.75486705  1
  O  O312  1  0.24722667  0.11083293  0.26326818  1
  O  O313  1  0.20169695  0.12046680  0.77784522  1
  O  O314  1  0.25027788  0.60925461  0.24599961  1
  O  O315  1  0.39568226  0.74250114  0.70447636  1
  O  O316  1  0.75067464  0.13132873  0.25628209  1
  O  O317  1  0.74563964  0.12617949  0.76348464  1
  O  O318  1  0.75958182  0.61890378  0.25566442  1
  O  O319  1  0.72266312  0.58798981  0.76404652  1
  O  O320  1  0.35519039  0.12222510  0.37075499  1
  O  O321  1  0.38527685  0.09837971  0.87008106  1
  O  O322  1  0.37055239  0.63425900  0.35555894  1
  O  O323  1  0.38118584  0.64089010  0.90149808  1
  O  O324  1  0.85463485  0.12260469  0.36248073  1
  O  O325  1  0.85989308  0.13797896  0.89311129  1
  O  O326  1  0.84850034  0.62728920  0.36548593  1
  O  O327  1  0.87369190  0.59895178  0.86533257  1
  O  O328  1  0.12419513  0.35783461  0.10167316  1
  O  O329  1  0.13703570  0.36692596  0.62915561  1
  O  O330  1  0.12098394  0.86938183  0.14295312  1
  O  O331  1  0.13200381  0.88261484  0.62428401  1
  O  O332  1  0.62501252  0.38698592  0.11576878  1
  O  O333  1  0.61292354  0.37768277  0.62020564  1
  O  O334  1  0.61922058  0.87865499  0.11662289  1
  O  O335  1  0.69019154  0.89872990  0.53456693  1
  O  O336  1  0.11442553  0.23461982  0.26864621  1
  O  O337  1  0.12493342  0.26838323  0.75831194  1
  O  O338  1  0.11856394  0.75736951  0.26351435  1
  O  O339  1  0.12155635  0.75376203  0.72483827  1
  O  O340  1  0.56352949  0.25759123  0.20865472  1
  O  O341  1  0.62743127  0.25600776  0.75555313  1
  O  O342  1  0.63020548  0.75606744  0.26006717  1
  O  O343  1  0.63513912  0.74059918  0.77022102  1
  O  O344  1  0.35781928  0.23159811  0.25233130  1
  O  O345  1  0.35817665  0.24247309  0.74511969  1
  O  O346  1  0.35512969  0.74425383  0.23732175  1
  O  O347  1  0.39853059  0.78340053  0.76542571  1
  O  O348  1  0.89220059  0.23424792  0.25146146  1
  O  O349  1  0.87056150  0.24929365  0.71671388  1
  O  O350  1  0.88145502  0.75395013  0.26639898  1
  O  O351  1  0.89113827  0.73257713  0.75031597  1
  O  O352  1  0.38085996  0.51430381  0.52574160  1
  O  O353  1  0.38079968  0.49495164  1.01821763  1
  O  O354  1  0.38007913  0.99440057  0.49340180  1
  O  O355  1  0.39012876  1.00740225  1.00888181  1
  O  O356  1  0.86557229  0.48078258  0.50237516  1
  O  O357  1  0.85669493  0.50616945  0.99487864  1
  O  O358  1  0.86538095  0.97364999  0.50974359  1
  O  O359  1  0.88839241  0.99917628  1.01368945  1
  O  O360  1  0.12321307  -0.01204154  0.02166290  1
  O  O361  1  0.12162863  0.00318062  0.51163501  1
  O  O362  1  0.11150828  0.49980142  -0.00703035  1
  O  O363  1  0.15195569  0.51169519  0.48980803  1
  O  O364  1  0.61527292  0.00830324  0.01611757  1
  O  O365  1  0.60504155  0.02138132  0.48841256  1
  O  O366  1  0.66508037  0.51840592  -0.00778373  1
  O  O367  1  0.60661837  0.50622505  0.51632889  1
  O  O368  1  0.37957891  0.37367345  0.12652954  1
  O  O369  1  0.37062389  0.35071800  0.63356663  1
  O  O370  1  0.37472034  0.86189802  0.12477835  1
  O  O371  1  0.36496343  0.88060845  0.61300553  1
  O  O372  1  0.87639746  0.34841048  0.14593173  1
  O  O373  1  0.88274885  0.35632382  0.59797214  1
  O  O374  1  0.87565572  0.85391759  0.12541570  1
  O  O375  1  0.87660147  0.84056087  0.61324756  1
  O  O376  1  0.12832824  0.11844384  0.39159181  1
  O  O377  1  0.14646422  0.12583093  0.83386623  1
  O  O378  1  0.12571261  0.64140062  0.39176809  1
  O  O379  1  0.12429006  0.63323374  0.86746137  1
  O  O380  1  0.63014399  0.13116779  0.37128977  1
  O  O381  1  0.63146106  0.14487769  0.88652816  1
  O  O382  1  0.62779844  0.62769875  0.37061606  1
  O  O383  1  0.66788278  0.66307354  0.90330954  1
