# generated using pymatgen
data_VZnO4
_symmetry_space_group_name_H-M   'P 1'
_cell_length_a   16.99398101
_cell_length_b   17.03517231
_cell_length_c   16.98537292
_cell_angle_alpha   89.66253857
_cell_angle_beta   89.43305716
_cell_angle_gamma   89.93118737
_symmetry_Int_Tables_number   1
_chemical_formula_structural   VZnO4
_chemical_formula_sum   'V64 Zn64 O256'
_cell_volume   4916.85802113
_cell_formula_units_Z   64
loop_
 _symmetry_equiv_pos_site_id
 _symmetry_equiv_pos_as_xyz
  1  'x, y, z'
loop_
 _atom_site_type_symbol
 _atom_site_label
 _atom_site_symmetry_multiplicity
 _atom_site_fract_x
 _atom_site_fract_y
 _atom_site_fract_z
 _atom_site_occupancy
  V  V0  1  0.76800157  0.50288664  0.76041748  1
  V  V1  1  0.41880459  -0.03797893  0.33026509  1
  V  V2  1  -0.01349795  0.50243124  0.50651424  1
  V  V3  1  0.14603225  0.84055174  0.74975930  1
  V  V4  1  -0.01407670  0.37586947  0.89597605  1
  V  V5  1  0.76795526  0.25838095  0.50058685  1
  V  V6  1  0.12855365  0.25809133  0.88015946  1
  V  V7  1  0.51033258  0.90042535  0.87583779  1
  V  V8  1  0.72664908  0.12295906  0.88103281  1
  V  V9  1  -0.01240559  0.62506020  0.64212207  1
  V  V10  1  0.29099235  0.07739451  0.37164932  1
  V  V11  1  0.74420239  0.86598111  0.12577826  1
  V  V12  1  0.62986155  0.01149846  0.12979872  1
  V  V13  1  0.86427365  0.25845667  0.64257446  1
  V  V14  1  0.51223406  0.75639273  0.76592040  1
  V  V15  1  0.46003913  0.36240919  0.87313798  1
  V  V16  1  0.62075358  0.12792899  0.50509647  1
  V  V17  1  0.23742056  0.25378647  0.03572968  1
  V  V18  1  0.49326453  0.62616542  0.63710463  1
  V  V19  1  0.00796167  0.12351655  0.63144249  1
  V  V20  1  0.37220905  0.10732565  0.74501071  1
  V  V21  1  0.51858480  0.25424010  0.73376841  1
  V  V22  1  0.01581132  0.61987302  0.12073619  1
  V  V23  1  0.62560892  0.25482613  0.36654511  1
  V  V24  1  0.12490634  0.61142171  -0.02171099  1
  V  V25  1  0.35244226  0.39794202  0.03577422  1
  V  V26  1  0.34596045  0.50754911  0.36632295  1
  V  V27  1  0.77535450  0.11921586  0.37774583  1
  V  V28  1  0.50055845  0.49914905  -0.00920096  1
  V  V29  1  0.76631752  -0.00904077  0.26358591  1
  V  V30  1  0.87403984  0.50547034  0.36626763  1
  V  V31  1  0.88532624  0.87909877  0.00515773  1
  V  V32  1  -0.01063311  0.36607222  0.37828109  1
  V  V33  1  0.88921460  0.74912200  0.12206873  1
  V  V34  1  0.37442521  0.76633320  0.62170453  1
  V  V35  1  0.74802041  0.63402353  0.38559339  1
  V  V36  1  0.12452880  0.25167922  0.38177783  1
  V  V37  1  0.61928075  0.26510696  0.88700131  1
  V  V38  1  0.86852222  0.75199998  0.64394433  1
  V  V39  1  0.50029771  0.47894993  0.51126524  1
  V  V40  1  0.13373547  0.49259238  0.63254486  1
  V  V41  1  0.00797777  0.75385169  0.26177257  1
  V  V42  1  0.75632237  0.75947034  0.51133900  1
  V  V43  1  -0.01281488  0.85861392  0.85066222  1
  V  V44  1  0.87871801  0.00928822  0.86687977  1
  V  V45  1  0.75161505  0.26055533  0.01021520  1
  V  V46  1  0.73868754  -0.00235366  0.74874970  1
  V  V47  1  0.12495007  0.63727135  0.49432670  1
  V  V48  1  0.24590509  0.74242351  -0.03100286  1
  V  V49  1  0.37773397  0.73165280  0.10626583  1
  V  V50  1  0.62474113  -0.01051419  0.62395195  1
  V  V51  1  0.25028506  0.27658070  0.50263467  1
  V  V52  1  0.87369405  0.50579123  0.90455339  1
  V  V53  1  -0.01110963  0.12326213  0.11650131  1
  V  V54  1  0.13619642  0.87651469  0.26381390  1
  V  V55  1  0.62269383  0.62860715  0.51441029  1
  V  V56  1  0.38616974  0.22813578  0.14898447  1
  V  V57  1  0.24518164  0.87988951  0.11449806  1
  V  V58  1  0.72163770  0.50799786  0.25474062  1
  V  V59  1  0.49893269  -0.00882230  0.50145818  1
  V  V60  1  0.63678599  0.48676338  0.64551255  1
  V  V61  1  0.36834612  0.89828949  -0.01837701  1
  V  V62  1  0.01234640  0.26182402  0.74979544  1
  V  V63  1  0.12620218  0.38868618  0.24746655  1
  Zn  Zn64  1  0.23019776  0.20790531  0.24120016  1
  Zn  Zn65  1  0.19413522  0.19232476  0.69103085  1
  Zn  Zn66  1  0.17781347  0.71090414  0.15889155  1
  Zn  Zn67  1  0.19015174  0.67402106  0.66133023  1
  Zn  Zn68  1  0.70120991  0.17830822  0.19535519  1
  Zn  Zn69  1  0.69404190  0.18361958  0.69142417  1
  Zn  Zn70  1  0.71420182  0.67045361  0.17742362  1
  Zn  Zn71  1  0.68958344  0.68089111  0.69789245  1
  Zn  Zn72  1  0.30807927  0.33869002  0.31679588  1
  Zn  Zn73  1  0.28407514  0.17270841  0.87430898  1
  Zn  Zn74  1  0.33296517  0.79863157  0.28656225  1
  Zn  Zn75  1  0.32841118  0.81197103  0.79997607  1
  Zn  Zn76  1  0.77548380  0.34161928  0.33252950  1
  Zn  Zn77  1  0.80178776  0.32352724  0.82107728  1
  Zn  Zn78  1  0.82119073  0.81152497  0.31184056  1
  Zn  Zn79  1  0.81294286  0.83085205  0.80292831  1
  Zn  Zn80  1  0.17558494  0.44529354  0.43969130  1
  Zn  Zn81  1  0.18642108  0.42474144  0.93151124  1
  Zn  Zn82  1  0.25450207  0.87402925  0.41643798  1
  Zn  Zn83  1  0.16860888  0.90966825  0.92639964  1
  Zn  Zn84  1  0.68358726  0.43913989  0.44844683  1
  Zn  Zn85  1  0.69122356  0.44221401  0.94035166  1
  Zn  Zn86  1  0.82870670  0.93192287  0.46171949  1
  Zn  Zn87  1  0.69301532  0.93329181  0.94737160  1
  Zn  Zn88  1  0.24622214  0.05089835  0.01693742  1
  Zn  Zn89  1  0.34071772  0.12047531  0.53962193  1
  Zn  Zn90  1  0.34772250  0.60068356  -0.00952511  1
  Zn  Zn91  1  0.31652199  0.54807988  0.55155498  1
  Zn  Zn92  1  0.79938693  0.05119584  0.05217186  1
  Zn  Zn93  1  0.82090308  0.08405146  0.56868389  1
  Zn  Zn94  1  0.81409519  0.56399106  0.07604612  1
  Zn  Zn95  1  0.80992243  0.56304936  0.56999358  1
  Zn  Zn96  1  0.40187200  0.52956669  0.16732056  1
  Zn  Zn97  1  0.43295838  0.43154993  0.67154758  1
  Zn  Zn98  1  0.45472617  1.05873280  0.14524285  1
  Zn  Zn99  1  0.44379688  0.93693015  0.68794646  1
  Zn  Zn100  1  0.96188487  0.45115241  0.20336370  1
  Zn  Zn101  1  0.93157885  0.43107313  0.68924937  1
  Zn  Zn102  1  0.95244947  0.94160108  0.31869933  1
  Zn  Zn103  1  0.91013760  0.95626550  0.64876212  1
  Zn  Zn104  1  0.11585577  0.05816461  0.30944841  1
  Zn  Zn105  1  0.05033302  0.08221561  0.81526681  1
  Zn  Zn106  1  0.06155689  0.57414639  0.31502743  1
  Zn  Zn107  1  0.05446768  0.54872750  0.81341194  1
  Zn  Zn108  1  0.58211441  0.06396031  0.31415429  1
  Zn  Zn109  1  0.55698175  0.07926103  0.79817129  1
  Zn  Zn110  1  0.55147975  0.56601978  0.33873346  1
  Zn  Zn111  1  0.53339518  0.53996404  0.80148619  1
  Zn  Zn112  1  0.43974021  0.20312494  0.42550710  1
  Zn  Zn113  1  0.43779193  0.07781589  0.94299481  1
  Zn  Zn114  1  0.31359414  0.68837742  0.44983487  1
  Zn  Zn115  1  0.48737009  0.70690699  0.97064583  1
  Zn  Zn116  1  0.98643120  0.10699541  0.42309290  1
  Zn  Zn117  1  0.92647473  0.19336312  0.93028813  1
  Zn  Zn118  1  0.93374943  0.68650762  0.44616913  1
  Zn  Zn119  1  0.93993287  0.68750482  0.94069725  1
  Zn  Zn120  1  0.06063459  0.31677810  0.06589215  1
  Zn  Zn121  1  0.05662756  0.31644955  0.56184673  1
  Zn  Zn122  1  0.06239637  0.80958655  0.04521780  1
  Zn  Zn123  1  0.06725123  0.80145795  0.59513905  1
  Zn  Zn124  1  0.55520895  0.18246955  0.05924348  1
  Zn  Zn125  1  0.59099930  0.31097947  0.56109473  1
  Zn  Zn126  1  0.52622851  0.86053211  0.09022424  1
  Zn  Zn127  1  0.56203987  0.81148277  0.56343929  1
  O  O128  1  0.09033972  0.11376029  0.12774120  1
  O  O129  1  0.10736382  0.13321864  0.65199374  1
  O  O130  1  0.11989785  0.62602598  0.10876561  1
  O  O131  1  0.10301544  0.61400770  0.61807194  1
  O  O132  1  0.62527460  0.11487768  0.13242089  1
  O  O133  1  0.63383948  0.12827288  0.60825476  1
  O  O134  1  0.67597599  0.66105038  0.02005915  1
  O  O135  1  0.62507899  0.61404972  0.62417753  1
  O  O136  1  0.37057172  0.40824566  0.37620098  1
  O  O137  1  0.36667999  0.34464118  0.87180891  1
  O  O138  1  0.42582248  0.86473273  0.32040356  1
  O  O139  1  0.38667182  0.87174395  0.88065227  1
  O  O140  1  0.87750740  0.39456403  0.37461092  1
  O  O141  1  0.87994070  0.38316718  0.88205808  1
  O  O142  1  0.88068604  0.87769935  0.37908436  1
  O  O143  1  0.87628553  0.88362816  0.88198937  1
  O  O144  1  0.31548630  -0.02956315  0.37333647  1
  O  O145  1  0.20664607  0.01710601  0.82852420  1
  O  O146  1  0.24457102  0.50298291  0.36506800  1
  O  O147  1  0.26493047  0.47582347  0.84962102  1
  O  O148  1  0.75967107  0.00700506  0.37245776  1
  O  O149  1  0.74264650  0.01178175  0.87271567  1
  O  O150  1  0.75576076  0.50780183  0.37138917  1
  O  O151  1  0.76847560  0.49773484  0.87528408  1
  O  O152  1  0.24368928  0.55711409  0.19933668  1
  O  O153  1  0.23308265  0.50941534  0.62010887  1
  O  O154  1  0.25329477  0.97899956  0.10705944  1
  O  O155  1  0.20448139  0.96506746  0.55419289  1
  O  O156  1  0.73701817  0.55498882  0.15843805  1
  O  O157  1  0.74281333  0.50367046  0.64108791  1
  O  O158  1  0.74963875  0.98463092  0.13680719  1
  O  O159  1  0.73971091  1.01082501  0.64287030  1
  O  O160  1  -0.00270352  0.37184999  0.27383409  1
  O  O161  1  -0.01207664  0.36312841  0.76252072  1
  O  O162  1  0.02261541  0.86327708  0.26374777  1
  O  O163  1  -0.02860543  0.87247950  0.75575933  1
  O  O164  1  0.56778229  0.37439877  0.18543922  1
  O  O165  1  0.47933392  0.35335109  0.75707085  1
  O  O166  1  0.60815037  0.84490049  0.31942383  1
  O  O167  1  0.50262168  0.87045014  0.76907675  1
  O  O168  1  0.50806254  0.10658786  0.24004177  1
  O  O169  1  0.48186836  0.15502244  0.75086939  1
  O  O170  1  0.55192853  0.65001192  0.19872813  1
  O  O171  1  0.50730496  0.63390236  0.74448534  1
  O  O172  1  0.96996734  0.14381567  0.21479720  1
  O  O173  1  0.98842180  0.15884400  0.75671093  1
  O  O174  1  1.01588332  0.64357840  0.23039087  1
  O  O175  1  0.99417722  0.61532421  0.73908523  1
  O  O176  1  0.34808239  0.27787055  0.05969537  1
  O  O177  1  0.35017661  0.23042204  0.49198565  1
  O  O178  1  0.35763711  0.72736860  -0.01421659  1
  O  O179  1  0.38275125  0.74486134  0.52353536  1
  O  O180  1  0.85034897  0.25141374  -0.01172396  1
  O  O181  1  0.86532598  0.24947033  0.50752536  1
  O  O182  1  0.88227852  0.76310822  0.01139244  1
  O  O183  1  0.86029613  0.74548595  0.51160581  1
  O  O184  1  0.13309276  0.26857359  0.48989244  1
  O  O185  1  0.13590694  0.26499376  0.99390758  1
  O  O186  1  0.10558891  0.73626471  0.51221040  1
  O  O187  1  0.14121121  0.74478071  0.98929121  1
  O  O188  1  0.64265228  0.23904762  0.49133461  1
  O  O189  1  0.62485183  0.24530861  0.98971592  1
  O  O190  1  0.63681489  0.73487887  0.51651448  1
  O  O191  1  0.61806935  0.66620863  0.97055084  1
  O  O192  1  0.48522043  0.23971142  0.13851083  1
  O  O193  1  0.52004928  0.25897187  0.63570159  1
  O  O194  1  0.48079776  0.75523113  0.07558008  1
  O  O195  1  0.49731736  0.73641893  0.62870997  1
  O  O196  1  0.99606183  0.22758905  0.10324106  1
  O  O197  1  0.99538478  0.25457801  0.64087472  1
  O  O198  1  0.99922636  0.74994845  0.12498664  1
  O  O199  1  0.98154712  0.73344187  0.63064253  1
  O  O200  1  -0.00065491  0.26902345  0.39384234  1
  O  O201  1  -0.00298791  0.26306740  0.87096158  1
  O  O202  1  -0.00756523  0.73369723  0.35793894  1
  O  O203  1  -0.01912440  0.76056503  0.86390480  1
  O  O204  1  0.52581990  0.25675491  0.37927126  1
  O  O205  1  0.51075355  0.26419822  0.87534260  1
  O  O206  1  0.52274342  0.65958939  0.27195113  1
  O  O207  1  0.50966718  0.75231864  0.86750407  1
  O  O208  1  0.25363442  0.09506699  0.46300876  1
  O  O209  1  0.26121830  0.16240760  0.99039981  1
  O  O210  1  0.22688070  0.63463275  0.51651823  1
  O  O211  1  0.23539955  0.63343176  0.98060031  1
  O  O212  1  0.74829980  0.12995586  0.49112228  1
  O  O213  1  0.74677501  0.12877354  0.98353522  1
  O  O214  1  0.74101886  0.62687055  0.50148792  1
  O  O215  1  0.73706659  0.61474117  0.99521569  1
  O  O216  1  0.25062702  0.36369078  0.00815308  1
  O  O217  1  0.25342635  0.37568707  0.50093083  1
  O  O218  1  0.25669295  0.86154336  -0.01516361  1
  O  O219  1  0.23423555  0.90038998  0.53481259  1
  O  O220  1  0.73668873  0.36014234  0.00418039  1
  O  O221  1  0.75137962  0.35731413  0.49734486  1
  O  O222  1  0.76479524  0.87296502  0.01779872  1
  O  O223  1  0.74530821  0.85633322  0.50138132  1
  O  O224  1  0.10190196  0.48808605  0.25694692  1
  O  O225  1  0.11945905  0.50337616  0.73277484  1
  O  O226  1  0.13264644  0.97227039  0.23531570  1
  O  O227  1  0.15340585  1.02367427  0.77770962  1
  O  O228  1  0.62314414  0.50870753  0.26904377  1
  O  O229  1  0.62582866  0.49986725  0.74724900  1
  O  O230  1  0.65290734  1.00191568  0.24286560  1
  O  O231  1  0.62431484  1.01366576  0.73289529  1
  O  O232  1  0.41062869  -0.00123745  0.23898283  1
  O  O233  1  0.37854933  0.00822784  0.74835242  1
  O  O234  1  0.38727993  0.54191748  0.27748345  1
  O  O235  1  0.35231009  0.47848990  0.75160736  1
  O  O236  1  0.86513816  -0.00848249  0.25180108  1
  O  O237  1  0.84974538  -0.00466404  0.76197740  1
  O  O238  1  0.87840287  0.51235831  0.26633630  1
  O  O239  1  0.86966914  0.50303854  0.75353545  1
  O  O240  1  0.10508910  0.37637354  0.37308993  1
  O  O241  1  0.09970217  0.36925835  0.88027612  1
  O  O242  1  0.15393163  0.88335285  0.36154181  1
  O  O243  1  0.09927733  0.87244355  0.84633648  1
  O  O244  1  0.65700152  0.35497463  0.37405937  1
  O  O245  1  0.62839547  0.36264390  0.87838513  1
  O  O246  1  0.57093929  0.79315751  0.35318372  1
  O  O247  1  0.60681327  0.88299080  0.89349599  1
  O  O248  1  0.36012087  0.13327530  0.13888504  1
  O  O249  1  0.37323154  0.12652283  0.64484798  1
  O  O250  1  0.37220887  0.62785655  0.10694480  1
  O  O251  1  0.39555736  0.61438104  0.62867279  1
  O  O252  1  0.88452882  0.11462397  0.10369322  1
  O  O253  1  0.88895995  0.15172267  0.63072333  1
  O  O254  1  0.89089662  0.64511031  0.11477389  1
  O  O255  1  0.88242544  0.63017031  0.62633119  1
  O  O256  1  0.21078854  0.23141954  0.12809978  1
  O  O257  1  0.23531303  0.24326144  0.59743320  1
  O  O258  1  0.26381140  0.75474725  0.09835716  1
  O  O259  1  0.27898733  0.73840668  0.64353038  1
  O  O260  1  0.74153301  0.23679075  0.10804967  1
  O  O261  1  0.75828836  0.24443708  0.61585377  1
  O  O262  1  0.77608974  0.75923900  0.13922131  1
  O  O263  1  0.75796657  0.73876151  0.61908269  1
  O  O264  1  0.23451341  0.25991238  0.38745021  1
  O  O265  1  0.22709936  0.27094964  0.86640535  1
  O  O266  1  0.28418202  0.77251497  0.38279871  1
  O  O267  1  0.25404493  0.75253887  0.87097998  1
  O  O268  1  0.75975521  0.23684244  0.38457038  1
  O  O269  1  0.73333653  0.24077367  0.87847677  1
  O  O270  1  0.75687963  0.73838523  0.39252378  1
  O  O271  1  0.74792331  0.76099942  0.89452633  1
  O  O272  1  -0.00780212  0.12919509  0.00960278  1
  O  O273  1  0.00659903  0.12352127  0.53038884  1
  O  O274  1  0.01680279  0.63537573  0.00989116  1
  O  O275  1  0.00029870  0.61498210  0.50811926  1
  O  O276  1  0.48770645  0.09575004  0.03777545  1
  O  O277  1  0.51948576  0.12869280  0.49133130  1
  O  O278  1  0.46390458  0.59390442  -0.04381433  1
  O  O279  1  0.51788121  0.61646696  0.52350995  1
  O  O280  1  0.52399078  0.38301338  0.50511551  1
  O  O281  1  0.45809222  0.38917531  0.98975442  1
  O  O282  1  0.50389360  0.89137453  0.50372688  1
  O  O283  1  0.47937924  0.89225711  0.98479034  1
  O  O284  1  1.00033339  0.39710464  0.48993505  1
  O  O285  1  0.98882317  0.36741579  0.99530400  1
  O  O286  1  1.04328001  0.89737169  0.49916815  1
  O  O287  1  0.98954008  0.87530922  0.98179999  1
  O  O288  1  0.49232252  0.50658221  0.41362421  1
  O  O289  1  0.48454733  0.46699041  0.86895058  1
  O  O290  1  0.50438977  0.99882639  0.38489374  1
  O  O291  1  0.50268040  1.00174776  0.86746578  1
  O  O292  1  0.98253323  0.50875611  0.38600345  1
  O  O293  1  0.98415962  0.48471339  0.87955655  1
  O  O294  1  1.01694098  1.02480335  0.35283585  1
  O  O295  1  0.98029560  0.99977947  0.85881566  1
  O  O296  1  -0.00918810  0.02091946  0.12202251  1
  O  O297  1  -0.00694415  0.02842787  0.66474570  1
  O  O298  1  -0.00728843  0.52302237  0.12503494  1
  O  O299  1  -0.00813548  0.50705175  0.61667012  1
  O  O300  1  0.53606008  -0.03565672  0.13922096  1
  O  O301  1  0.51667815  0.00030779  0.61840528  1
  O  O302  1  0.48821483  0.51058998  0.08986631  1
  O  O303  1  0.51857578  0.50868406  0.63671425  1
  O  O304  1  0.22656069  0.38671497  0.24975850  1
  O  O305  1  0.28650750  0.44507553  0.78137698  1
  O  O306  1  0.24492798  0.85855375  0.22159568  1
  O  O307  1  0.24106431  0.87138840  0.75789883  1
  O  O308  1  0.74806082  0.41223578  0.24454239  1
  O  O309  1  0.74643201  0.40099899  0.76044507  1
  O  O310  1  0.75717772  0.87996664  0.24083804  1
  O  O311  1  0.73023270  0.89852542  0.76537274  1
  O  O312  1  0.22474424  0.10397184  0.29441098  1
  O  O313  1  0.27261219  0.14612246  0.75900597  1
  O  O314  1  0.23226082  0.61860358  0.23650105  1
  O  O315  1  0.24831848  0.60844242  0.76896193  1
  O  O316  1  0.76259402  0.11288816  0.26960484  1
  O  O317  1  0.74182122  0.11583380  0.77087998  1
  O  O318  1  0.73382094  0.62895321  0.28418367  1
  O  O319  1  0.74167172  0.60397228  0.75937044  1
  O  O320  1  0.37832150  0.12413067  0.36234583  1
  O  O321  1  0.38378274  0.12557817  0.85853044  1
  O  O322  1  0.35620860  0.58089407  0.44382510  1
  O  O323  1  0.31558809  0.62454550  0.78971731  1
  O  O324  1  0.87298325  0.12049717  0.39019971  1
  O  O325  1  0.86638441  0.10982788  0.87848199  1
  O  O326  1  0.85651844  0.61451632  0.38935620  1
  O  O327  1  0.88354923  0.60453499  0.89173004  1
  O  O328  1  0.09895417  0.37256411  0.15107103  1
  O  O329  1  0.11592012  0.39518256  0.61801342  1
  O  O330  1  0.14477603  0.86562073  0.10164522  1
  O  O331  1  0.10883139  0.87814364  0.66238886  1
  O  O332  1  0.61818258  0.37755373  0.13394970  1
  O  O333  1  0.63113409  0.38889322  0.63266106  1
  O  O334  1  0.64667020  0.85296496  0.12094179  1
  O  O335  1  0.62854433  0.89140778  0.61927607  1
  O  O336  1  0.13103330  0.26764878  0.27591601  1
  O  O337  1  0.11470833  0.26311980  0.75856456  1
  O  O338  1  0.11785730  0.76197821  0.24059408  1
  O  O339  1  0.13845587  0.74154257  0.74065405  1
  O  O340  1  0.64220786  0.24087922  0.26855121  1
  O  O341  1  0.61820972  0.24492074  0.76201957  1
  O  O342  1  0.60351806  0.70721497  0.17624965  1
  O  O343  1  0.60949390  0.75345109  0.73704826  1
  O  O344  1  0.33884915  0.25813555  0.23972878  1
  O  O345  1  0.36013259  0.27868341  0.68611357  1
  O  O346  1  0.38511372  0.74837413  0.20365837  1
  O  O347  1  0.40443330  0.75376209  0.73855701  1
  O  O348  1  0.85847862  0.30509461  0.20298157  1
  O  O349  1  0.86042235  0.25909361  0.74417824  1
  O  O350  1  0.89876729  0.76311576  0.23372723  1
  O  O351  1  0.84979573  0.74384590  0.74284765  1
  O  O352  1  0.40474714  0.46881631  0.55519101  1
  O  O353  1  0.33875251  0.48717481  0.99078536  1
  O  O354  1  0.40368211  1.01918916  0.51149129  1
  O  O355  1  0.35132607  0.99757725  0.97978267  1
  O  O356  1  0.88262103  0.50522547  0.49870587  1
  O  O357  1  0.86380364  0.49484269  1.00394756  1
  O  O358  1  0.87561014  0.99121229  0.54128757  1
  O  O359  1  0.86604872  0.98575908  0.98150191  1
  O  O360  1  0.16270683  0.01604588  -0.04916747  1
  O  O361  1  0.06951044  -0.03582986  0.51040832  1
  O  O362  1  0.13644149  0.51277572  -0.01306515  1
  O  O363  1  0.10844687  0.51350028  0.50876120  1
  O  O364  1  0.64594922  -0.00388609  0.03070740  1
  O  O365  1  0.61913316  0.01470833  0.51243799  1
  O  O366  1  0.59962422  0.49764130  -0.02056150  1
  O  O367  1  0.62247903  0.50520115  0.52105855  1
  O  O368  1  0.35958899  0.42281669  0.13100931  1
  O  O369  1  0.36290550  0.33411579  0.63772334  1
  O  O370  1  0.36283306  0.86313589  0.08431618  1
  O  O371  1  0.38160501  0.86671203  0.62634103  1
  O  O372  1  0.87966031  0.35677461  0.15498543  1
  O  O373  1  0.88176730  0.35634509  0.62036337  1
  O  O374  1  0.88041292  0.87077534  0.10909548  1
  O  O375  1  0.87686200  0.85014179  0.63063996  1
  O  O376  1  0.09801666  0.15405637  0.38105824  1
  O  O377  1  0.11240557  0.15828092  0.87609544  1
  O  O378  1  0.11935087  0.62746548  0.39447977  1
  O  O379  1  0.10640699  0.62316517  0.88099641  1
  O  O380  1  0.64204615  0.13298617  0.38725117  1
  O  O381  1  0.62377351  0.13240946  0.87800091  1
  O  O382  1  0.63496474  0.61751299  0.40567931  1
  O  O383  1  0.70398547  0.71350564  0.86125878  1
