# generated using pymatgen
data_VZnO4
_symmetry_space_group_name_H-M   'P 1'
_cell_length_a   17.07723967
_cell_length_b   17.00137808
_cell_length_c   17.06453983
_cell_angle_alpha   90.23624963
_cell_angle_beta   89.83329471
_cell_angle_gamma   90.34249396
_symmetry_Int_Tables_number   1
_chemical_formula_structural   VZnO4
_chemical_formula_sum   'V64 Zn64 O256'
_cell_volume   4954.30936314
_cell_formula_units_Z   64
loop_
 _symmetry_equiv_pos_site_id
 _symmetry_equiv_pos_as_xyz
  1  'x, y, z'
loop_
 _atom_site_type_symbol
 _atom_site_label
 _atom_site_symmetry_multiplicity
 _atom_site_fract_x
 _atom_site_fract_y
 _atom_site_fract_z
 _atom_site_occupancy
  V  V0  1  0.33691586  0.72862682  0.09689034  1
  V  V1  1  0.50061237  0.38498991  0.87127214  1
  V  V2  1  0.05150268  0.50603562  0.48235095  1
  V  V3  1  0.85644116  0.00711606  0.90060195  1
  V  V4  1  0.73926348  -0.00876409  0.75190366  1
  V  V5  1  0.62628220  0.74761453  0.86812339  1
  V  V6  1  0.12215498  0.12064170  0.53470760  1
  V  V7  1  0.35716521  0.86940950  0.51640493  1
  V  V8  1  0.11420655  0.78054334  0.89676137  1
  V  V9  1  0.61754465  -0.01436014  0.62312905  1
  V  V10  1  0.23832441  0.11966907  0.37326238  1
  V  V11  1  0.60536878  0.61423646  -0.01288743  1
  V  V12  1  0.48851875  0.77095500  0.75646382  1
  V  V13  1  0.00495562  0.62027332  0.12286876  1
  V  V14  1  0.36880869  0.25787012  0.62486203  1
  V  V15  1  0.76449071  0.50506152  0.25441036  1
  V  V16  1  0.24116280  0.24991129  0.50445652  1
  V  V17  1  0.71465553  0.64393033  0.40274574  1
  V  V18  1  0.37635101  0.37863897  0.48919604  1
  V  V19  1  0.84497416  0.25806269  0.12053166  1
  V  V20  1  0.83411009  0.14554425  0.74610020  1
  V  V21  1  0.39531577  0.89974716  -0.01842159  1
  V  V22  1  0.37714580  0.63235226  0.73172371  1
  V  V23  1  0.51859111  0.37190824  0.37435845  1
  V  V24  1  0.11845253  0.48012026  0.13920428  1
  V  V25  1  0.12891091  0.33393615  0.25191660  1
  V  V26  1  -0.00752776  0.00581222  0.52049321  1
  V  V27  1  0.36465493  -0.00348918  0.38038147  1
  V  V28  1  0.88266347  0.40256335  0.49182615  1
  V  V29  1  0.38307313  0.12225096  0.25419030  1
  V  V30  1  0.00287322  0.24504415  0.74811766  1
  V  V31  1  0.25708832  0.62102456  0.89388833  1
  V  V32  1  0.75184610  0.13316159  0.38822687  1
  V  V33  1  0.24594530  0.66876063  0.38466208  1
  V  V34  1  0.62283175  0.39838811  0.73199475  1
  V  V35  1  0.75485700  0.86841706  0.61301545  1
  V  V36  1  0.56801157  0.59760540  0.50198341  1
  V  V37  1  0.37413930  0.49953160  0.89348752  1
  V  V38  1  -0.01302081  0.41346773  0.86461127  1
  V  V39  1  0.04313128  0.63213505  0.62336149  1
  V  V40  1  -0.00672367  0.88592877  0.38576648  1
  V  V41  1  0.11372344  0.40259805  0.73281576  1
  V  V42  1  0.01597328  0.75070866  0.26613443  1
  V  V43  1  0.88285008  0.15100369  0.26373999  1
  V  V44  1  0.75517037  0.85693290  0.12873026  1
  V  V45  1  0.64130129  0.26684647  0.88530335  1
  V  V46  1  0.12476537  0.58474163  -0.00509399  1
  V  V47  1  0.11053458  -0.01569820  0.11933442  1
  V  V48  1  0.74284237  0.39289829  0.60491579  1
  V  V49  1  0.51847717  0.23863626  0.25140224  1
  V  V50  1  0.01307380  0.35634480  0.37674102  1
  V  V51  1  0.50522936  0.13005197  0.62162216  1
  V  V52  1  0.36619572  0.11613235  0.75518601  1
  V  V53  1  0.48994553  0.00349063  0.50988961  1
  V  V54  1  0.25214336  0.49995887  0.73639531  1
  V  V55  1  0.27617603  0.47004341  0.24582964  1
  V  V56  1  0.50587643  0.86325624  0.39248267  1
  V  V57  1  0.87591153  0.25586128  0.61122981  1
  V  V58  1  0.50789560  0.26110467  0.73855550  1
  V  V59  1  0.20471858  0.34211021  0.06648639  1
  V  V60  1  0.23684297  0.89885518  0.64211811  1
  V  V61  1  0.89834650  0.61634524  0.28497024  1
  V  V62  1  0.38224823  0.34672336  0.00096061  1
  V  V63  1  0.76791049  0.52969223  0.72995507  1
  Zn  Zn64  1  0.21703051  0.17520691  0.17533623  1
  Zn  Zn65  1  0.19383621  0.20745432  0.73034457  1
  Zn  Zn66  1  0.20093114  0.65118324  0.20181140  1
  Zn  Zn67  1  0.18478322  0.69330250  0.72799587  1
  Zn  Zn68  1  0.70664482  0.19027238  0.21694179  1
  Zn  Zn69  1  0.67906779  0.21155692  0.63828941  1
  Zn  Zn70  1  0.69799696  0.65969365  0.20059085  1
  Zn  Zn71  1  0.65134285  0.69762463  0.66178958  1
  Zn  Zn72  1  0.31709009  0.29778475  0.31405538  1
  Zn  Zn73  1  0.31145354  0.31859598  0.80958413  1
  Zn  Zn74  1  0.17431012  0.81960041  0.32015024  1
  Zn  Zn75  1  0.30122773  0.81525691  0.82393188  1
  Zn  Zn76  1  0.80528604  0.31676704  0.32247130  1
  Zn  Zn77  1  0.81164951  0.33806233  0.79496055  1
  Zn  Zn78  1  0.82595825  0.79424946  0.31570082  1
  Zn  Zn79  1  0.79418307  0.72736628  0.74806276  1
  Zn  Zn80  1  0.20523003  0.42394807  0.41485806  1
  Zn  Zn81  1  0.16148060  0.30967945  0.89648116  1
  Zn  Zn82  1  0.17701896  0.94017326  0.45058053  1
  Zn  Zn83  1  0.22792267  0.93404125  0.95463888  1
  Zn  Zn84  1  0.69552365  0.44817835  0.41915197  1
  Zn  Zn85  1  0.68399206  0.46792031  0.90074297  1
  Zn  Zn86  1  0.68632173  0.94248733  0.43934752  1
  Zn  Zn87  1  0.75769332  0.83966395  0.90853778  1
  Zn  Zn88  1  0.31868040  0.03835319  0.07776963  1
  Zn  Zn89  1  0.30772146  0.06786723  0.57623928  1
  Zn  Zn90  1  0.30307396  0.53754336  0.07788125  1
  Zn  Zn91  1  0.31013969  0.56645417  0.55349013  1
  Zn  Zn92  1  0.83633402  0.05152753  0.10801396  1
  Zn  Zn93  1  0.80434391  0.06350801  0.56386366  1
  Zn  Zn94  1  0.81727706  0.54966346  0.07801015  1
  Zn  Zn95  1  0.80269243  0.57092209  0.54003487  1
  Zn  Zn96  1  0.46488072  0.41248299  0.18005381  1
  Zn  Zn97  1  0.42685222  0.44096738  0.68662263  1
  Zn  Zn98  1  0.36080722  0.80066815  0.28115266  1
  Zn  Zn99  1  0.43045054  0.93446151  0.69392410  1
  Zn  Zn100  1  0.94323315  0.42998144  0.20958480  1
  Zn  Zn101  1  0.94111991  0.46952242  0.66036749  1
  Zn  Zn102  1  0.94229592  0.91875013  0.18816277  1
  Zn  Zn103  1  0.91578820  0.95793168  0.68050011  1
  Zn  Zn104  1  0.05101924  0.05967100  0.31697184  1
  Zn  Zn105  1  0.01396470  0.11591289  0.88131960  1
  Zn  Zn106  1  0.08430157  0.56009210  0.31895086  1
  Zn  Zn107  1  0.06376202  0.58504566  0.80371706  1
  Zn  Zn108  1  0.55717417  0.05749901  0.33196093  1
  Zn  Zn109  1  0.58507352  0.09379808  0.79465218  1
  Zn  Zn110  1  0.57645198  0.55216864  0.31533785  1
  Zn  Zn111  1  0.55219155  0.57180402  0.80808867  1
  Zn  Zn112  1  0.43577734  0.18861765  0.43697999  1
  Zn  Zn113  1  0.45391860  0.18794886  0.91677030  1
  Zn  Zn114  1  0.41833422  0.69276310  0.42930330  1
  Zn  Zn115  1  0.44015331  0.70173399  0.94923261  1
  Zn  Zn116  1  0.93941094  0.17930176  0.44454276  1
  Zn  Zn117  1  0.87191881  0.19315790  0.94281313  1
  Zn  Zn118  1  0.98188544  0.68835522  0.45277655  1
  Zn  Zn119  1  0.93308449  0.82602337  0.84731780  1
  Zn  Zn120  1  0.01306059  0.28495271  0.00613068  1
  Zn  Zn121  1  0.06244609  0.31952111  0.56865475  1
  Zn  Zn122  1  0.12651067  0.76481732  0.09481464  1
  Zn  Zn123  1  0.05906898  0.82428408  0.56721973  1
  Zn  Zn124  1  0.56741101  0.32235723  0.07010947  1
  Zn  Zn125  1  0.56281956  0.31200338  0.54029700  1
  Zn  Zn126  1  0.59248303  0.84061209  0.00633257  1
  Zn  Zn127  1  0.52340288  0.77678236  0.55098201  1
  O  O128  1  0.08296210  0.08318542  0.10973643  1
  O  O129  1  0.12473337  0.12952347  0.62994012  1
  O  O130  1  0.12732431  0.59314353  0.12140380  1
  O  O131  1  0.14079245  0.63538488  0.63803426  1
  O  O132  1  0.64688147  0.14275594  0.12349365  1
  O  O133  1  0.60657097  0.11618140  0.63143900  1
  O  O134  1  0.66565455  0.62073705  0.08704908  1
  O  O135  1  0.53095512  0.55242287  0.60875065  1
  O  O136  1  0.37326772  0.36450903  0.38847186  1
  O  O137  1  0.38334095  0.38236704  0.87297359  1
  O  O138  1  0.37069667  0.89123758  0.40495174  1
  O  O139  1  0.34823581  0.89460955  0.89227413  1
  O  O140  1  0.89672116  0.37004149  0.39111723  1
  O  O141  1  0.88900507  0.40603317  0.83529026  1
  O  O142  1  0.89603454  0.85623367  0.37891732  1
  O  O143  1  0.85368069  0.90082353  0.89751501  1
  O  O144  1  0.25745379  0.01096210  0.39363271  1
  O  O145  1  0.18136460  0.03277326  0.87572487  1
  O  O146  1  0.26573592  0.48855909  0.34409468  1
  O  O147  1  0.27321996  0.50428625  0.86495137  1
  O  O148  1  0.74997827  0.01255973  0.38242538  1
  O  O149  1  0.75286002  0.00893404  0.85114424  1
  O  O150  1  0.74988559  0.54915935  0.37926452  1
  O  O151  1  0.75269407  0.51725833  0.82901191  1
  O  O152  1  0.22935840  0.44512229  0.10997598  1
  O  O153  1  0.25798463  0.51043166  0.63890798  1
  O  O154  1  0.20302208  0.99844349  0.16168278  1
  O  O155  1  0.24017476  0.99849548  0.63649378  1
  O  O156  1  0.78055462  0.47871091  0.15812630  1
  O  O157  1  0.75420337  0.49999904  0.61539924  1
  O  O158  1  0.75836403  0.96136859  0.12662306  1
  O  O159  1  0.73045331  0.99401386  0.62349819  1
  O  O160  1  0.01521171  0.36050582  0.26927508  1
  O  O161  1  0.01148743  0.41805888  0.73220188  1
  O  O162  1  -0.00464495  0.85471852  0.26121168  1
  O  O163  1  0.01076938  0.91188891  0.75684201  1
  O  O164  1  0.50587729  0.34754337  0.26728341  1
  O  O165  1  0.50310232  0.37789842  0.74657925  1
  O  O166  1  0.47005356  0.83902398  0.30296284  1
  O  O167  1  0.48080535  0.86942121  0.77158049  1
  O  O168  1  0.48978821  0.12666425  0.27185254  1
  O  O169  1  0.49526212  0.14630727  0.74037228  1
  O  O170  1  0.53226099  0.66227056  0.24805178  1
  O  O171  1  0.47785730  0.62692222  0.74499456  1
  O  O172  1  0.98115757  0.12724597  0.26429111  1
  O  O173  1  1.00774038  0.14678362  0.76998163  1
  O  O174  1  1.00736981  0.62113874  0.25244139  1
  O  O175  1  1.00659051  0.63280474  0.71592384  1
  O  O176  1  0.39755228  0.24805740  -0.00740524  1
  O  O177  1  0.36540919  0.25023182  0.51181300  1
  O  O178  1  0.37536456  0.78347154  0.01244027  1
  O  O179  1  0.36965997  0.77103269  0.51003503  1
  O  O180  1  0.81909703  0.24721290  0.02363362  1
  O  O181  1  0.88479364  0.26052794  0.51157148  1
  O  O182  1  0.85233589  0.70533388  -0.00183486  1
  O  O183  1  0.87789982  0.72145551  0.53202628  1
  O  O184  1  0.13633811  0.24132031  0.51653332  1
  O  O185  1  0.12938879  0.29934144  1.00581297  1
  O  O186  1  0.23330751  0.72810006  0.56806150  1
  O  O187  1  0.12397539  0.72755680  0.98555014  1
  O  O188  1  0.64356420  0.24176587  0.53726592  1
  O  O189  1  0.62374407  0.27348123  0.98419170  1
  O  O190  1  0.59503655  0.68034436  0.56413229  1
  O  O191  1  0.62414409  0.73007371  0.97883389  1
  O  O192  1  0.51727884  0.24763283  0.15088799  1
  O  O193  1  0.49014077  0.24711802  0.62258365  1
  O  O194  1  0.50719223  0.84503317  0.13815440  1
  O  O195  1  0.48634484  0.76857323  0.65513731  1
  O  O196  1  0.95523662  0.29164975  0.11369132  1
  O  O197  1  0.98083128  0.26852359  0.63721039  1
  O  O198  1  1.02099399  0.72232821  0.13622397  1
  O  O199  1  1.02292601  0.71813320  0.56364306  1
  O  O200  1  0.00901169  0.26043356  0.39912245  1
  O  O201  1  -0.01317356  0.29019188  0.83421741  1
  O  O202  1  0.02016656  0.75846442  0.37043886  1
  O  O203  1  0.02623146  0.82811227  0.90521799  1
  O  O204  1  0.49532126  0.25799808  0.37296151  1
  O  O205  1  0.51496749  0.26815832  0.85374773  1
  O  O206  1  0.51038061  0.76707405  0.43596651  1
  O  O207  1  0.50822074  0.74604705  0.86710080  1
  O  O208  1  0.23312686  0.12936635  0.50328369  1
  O  O209  1  0.23645137  0.11352173  1.08189750  1
  O  O210  1  0.26269867  0.61282151  0.46573651  1
  O  O211  1  0.23621053  0.60123595  0.99829238  1
  O  O212  1  0.75881520  0.13100978  0.48927105  1
  O  O213  1  0.69405895  0.10558177  1.07130880  1
  O  O214  1  0.73998639  0.65397593  0.49880537  1
  O  O215  1  0.72963821  0.61462651  1.03604071  1
  O  O216  1  0.27317694  0.35290552  -0.01346589  1
  O  O217  1  0.25709865  0.35169229  0.49198821  1
  O  O218  1  0.29585402  0.92532368  0.04437984  1
  O  O219  1  0.25352995  0.88567344  0.51840198  1
  O  O220  1  0.76464122  0.42211558  -0.00700772  1
  O  O221  1  0.76884877  0.39391310  0.49847203  1
  O  O222  1  0.77019679  0.84176847  0.02824992  1
  O  O223  1  0.73228617  0.87037648  0.51596347  1
  O  O224  1  0.14222657  0.48377482  0.23908648  1
  O  O225  1  0.14331491  0.50887125  0.74797426  1
  O  O226  1  0.07647113  0.98816331  0.21943227  1
  O  O227  1  0.07136744  0.95088105  0.77128688  1
  O  O228  1  0.66662618  0.55200670  0.24587526  1
  O  O229  1  0.61249138  0.49853334  0.73863973  1
  O  O230  1  0.58065091  0.97625007  0.23419253  1
  O  O231  1  0.63355154  1.00919315  0.73807601  1
  O  O232  1  0.37703471  0.00196683  0.28227654  1
  O  O233  1  0.38408169  0.01857538  0.75211915  1
  O  O234  1  0.37059929  0.44253069  0.23294453  1
  O  O235  1  0.36761063  0.51551910  0.74979442  1
  O  O236  1  0.89001310  0.01313412  0.19967735  1
  O  O237  1  0.84299344  0.03398409  0.72736386  1
  O  O238  1  0.88510278  0.50705601  0.27134730  1
  O  O239  1  0.86632907  0.53395572  0.71803121  1
  O  O240  1  0.12470989  0.35515124  0.36273046  1
  O  O241  1  0.10176344  0.38784188  0.84302465  1
  O  O242  1  0.10730204  0.89115655  0.37501510  1
  O  O243  1  0.18343430  0.85628971  0.89118303  1
  O  O244  1  0.61534242  0.36764866  0.39572387  1
  O  O245  1  0.61710295  0.38176049  0.85112125  1
  O  O246  1  0.60171326  0.88869822  0.38222904  1
  O  O247  1  0.64023205  0.85068827  0.89670819  1
  O  O248  1  0.37787358  0.09294720  0.16044490  1
  O  O249  1  0.38536731  0.13816401  0.63440309  1
  O  O250  1  0.36633473  0.63500009  0.07960808  1
  O  O251  1  0.36423248  0.63376537  0.63419756  1
  O  O252  1  0.86505570  0.15626056  0.14470779  1
  O  O253  1  0.86200242  0.15213415  0.62894093  1
  O  O254  1  0.90580907  0.60624720  0.12167474  1
  O  O255  1  0.87259289  0.66891569  0.58499881  1
  O  O256  1  0.24596159  0.27184744  0.11955879  1
  O  O257  1  0.26410124  0.24565277  0.61795667  1
  O  O258  1  0.23430910  0.72899944  0.12225047  1
  O  O259  1  0.25056566  0.75494579  0.63441879  1
  O  O260  1  0.75931904  0.28206182  0.16886474  1
  O  O261  1  0.77185150  0.28832801  0.62643225  1
  O  O262  1  0.74444711  0.75362369  0.14706520  1
  O  O263  1  0.74024242  0.77195445  0.64715481  1
  O  O264  1  0.25527666  0.22775567  0.39663237  1
  O  O265  1  0.22850544  0.24957938  0.83434064  1
  O  O266  1  0.19846147  0.75102964  0.41318087  1
  O  O267  1  0.26177364  0.71917506  0.88562431  1
  O  O268  1  0.74434934  0.23289233  0.36816833  1
  O  O269  1  0.73869548  0.28863498  0.86730337  1
  O  O270  1  0.74323370  0.72553374  0.34977718  1
  O  O271  1  0.73219154  0.74128957  0.84908019  1
  O  O272  1  -0.01750716  0.18382162  -0.03598670  1
  O  O273  1  0.01601866  0.11876987  0.50440302  1
  O  O274  1  0.02344016  0.61200573  0.01888574  1
  O  O275  1  0.05994637  0.60322165  0.45261975  1
  O  O276  1  0.51338599  0.08182342  -0.04891220  1
  O  O277  1  0.48886675  0.11497651  0.51154502  1
  O  O278  1  0.50924856  0.62630720  0.00552702  1
  O  O279  1  0.47138106  0.60244323  0.47253001  1
  O  O280  1  0.48493682  0.37086579  0.48669574  1
  O  O281  1  0.49310905  0.37197603  0.97395606  1
  O  O282  1  0.47846945  0.88993595  0.51148948  1
  O  O283  1  0.49378832  0.88229432  0.97992406  1
  O  O284  1  1.00154133  0.39128301  0.49573055  1
  O  O285  1  0.98595706  0.38557576  0.96086611  1
  O  O286  1  1.00432123  0.89358905  0.49631396  1
  O  O287  1  0.91130404  0.74622719  0.98711701  1
  O  O288  1  0.50757180  0.47258535  0.35092964  1
  O  O289  1  0.48147547  0.49472110  0.86346300  1
  O  O290  1  0.48545130  0.99125074  0.39584758  1
  O  O291  1  0.53779170  1.03555972  0.89759324  1
  O  O292  1  1.02859528  0.47643515  0.38123102  1
  O  O293  1  1.00261933  0.51432368  0.86614077  1
  O  O294  1  0.98923100  0.98856018  0.38015678  1
  O  O295  1  0.95290486  1.01970551  0.87644822  1
  O  O296  1  0.01134746  -0.04916666  0.09349085  1
  O  O297  1  0.00153484  -0.00243964  0.61917248  1
  O  O298  1  0.01594721  0.49644492  0.14285558  1
  O  O299  1  0.01036654  0.53434095  0.58518890  1
  O  O300  1  0.57954793  0.00705905  0.16786204  1
  O  O301  1  0.50331003  0.00665502  0.62792313  1
  O  O302  1  0.55874295  0.41845613  0.12511543  1
  O  O303  1  0.49163267  0.48729612  0.59883229  1
  O  O304  1  0.23450514  0.35912639  0.25685867  1
  O  O305  1  0.24385522  0.39750177  0.74955535  1
  O  O306  1  0.26583628  0.85657246  0.27370806  1
  O  O307  1  0.25335836  0.86850575  0.73671370  1
  O  O308  1  0.75176044  0.41650472  0.30762019  1
  O  O309  1  0.74202565  0.40559036  0.72288994  1
  O  O310  1  0.74858104  0.86063993  0.23489182  1
  O  O311  1  0.74951331  0.89482997  0.73997915  1
  O  O312  1  0.26307758  0.12567890  0.27078324  1
  O  O313  1  0.26801070  0.12446742  0.73639230  1
  O  O314  1  0.27745059  0.56087770  0.19483592  1
  O  O315  1  0.26443461  0.61827320  0.76983141  1
  O  O316  1  0.77723612  0.11646135  0.26450592  1
  O  O317  1  0.73754429  0.15321281  0.72873735  1
  O  O318  1  0.79920165  0.61728178  0.24444780  1
  O  O319  1  0.73550486  0.62764915  0.71095291  1
  O  O320  1  0.36628926  0.11199679  0.38061025  1
  O  O321  1  0.37688770  0.14186503  0.85189166  1
  O  O322  1  0.34033051  0.70045840  0.34677944  1
  O  O323  1  0.37027067  0.61025516  0.89746966  1
  O  O324  1  0.86829872  0.13273084  0.37147320  1
  O  O325  1  0.84500514  0.13259671  0.84929145  1
  O  O326  1  0.90064837  0.62993663  0.38325794  1
  O  O327  1  0.87101471  0.58636726  0.91298772  1
  O  O328  1  0.11398563  0.36641989  0.14556951  1
  O  O329  1  0.12776537  0.38616168  0.63435166  1
  O  O330  1  0.12829841  0.88028351  0.11885440  1
  O  O331  1  0.14039677  0.86719353  0.62549069  1
  O  O332  1  0.73180700  0.38049372  0.04374911  1
  O  O333  1  0.64034969  0.38582087  0.61356399  1
  O  O334  1  0.65224862  0.86640326  0.10973467  1
  O  O335  1  0.62043079  0.88788646  0.63176854  1
  O  O336  1  0.13438123  0.23677711  0.23759675  1
  O  O337  1  0.10294672  0.27550915  0.73147840  1
  O  O338  1  0.11794034  0.75228798  0.24151509  1
  O  O339  1  0.11430466  0.72692622  0.80772220  1
  O  O340  1  0.61417651  0.22612539  0.26862180  1
  O  O341  1  0.61321016  0.27678705  0.72587496  1
  O  O342  1  0.58784501  0.70922306  0.22979203  1
  O  O343  1  0.59914082  0.74349947  0.75804450  1
  O  O344  1  0.38072037  0.22680552  0.25279047  1
  O  O345  1  0.38604145  0.26094941  0.73312905  1
  O  O346  1  0.38545078  0.75678965  0.17837642  1
  O  O347  1  0.37838665  0.73598870  0.76933983  1
  O  O348  1  0.88085170  0.25337483  0.26112944  1
  O  O349  1  0.87414064  0.24774309  0.73919156  1
  O  O350  1  0.90638274  0.72533367  0.25712328  1
  O  O351  1  0.89077913  0.77489908  0.76308465  1
  O  O352  1  0.35925130  0.47431471  0.50426963  1
  O  O353  1  0.36915351  0.48112392  0.99177392  1
  O  O354  1  0.37711490  1.00233779  0.50684126  1
  O  O355  1  0.39939592  1.00277941  1.00598465  1
  O  O356  1  0.88398343  0.50223173  0.49094042  1
  O  O357  1  0.86590227  0.53197216  0.96141470  1
  O  O358  1  0.89432802  1.01719198  0.51123784  1
  O  O359  1  0.84523267  1.03890376  0.99504173  1
  O  O360  1  0.14094361  -0.01094054  0.02098645  1
  O  O361  1  0.11577036  0.01722003  0.51081995  1
  O  O362  1  0.12014607  0.48742144  0.01548091  1
  O  O363  1  0.14475483  0.47858523  0.49549238  1
  O  O364  1  0.66115411  0.07195401  0.01287079  1
  O  O365  1  0.60513857  -0.00428278  0.51791411  1
  O  O366  1  0.61890267  0.51299685  -0.02179716  1
  O  O367  1  0.62094993  0.51279256  0.49046978  1
  O  O368  1  0.39267085  0.36538425  0.09598854  1
  O  O369  1  0.38034160  0.36178412  0.61168452  1
  O  O370  1  0.45804341  0.89719459  0.13242968  1
  O  O371  1  0.35652766  0.88690885  0.62135943  1
  O  O372  1  0.90270774  0.35872309  0.12280315  1
  O  O373  1  0.87737233  0.38675698  0.60230076  1
  O  O374  1  0.86095594  0.85515994  0.13671987  1
  O  O375  1  0.85355089  0.88490220  0.62088610  1
  O  O376  1  0.13903616  0.11110473  0.36797040  1
  O  O377  1  0.14030005  0.08976383  0.89927032  1
  O  O378  1  0.18127069  0.62496816  0.31360663  1
  O  O379  1  0.14502248  0.59536440  0.89013697  1
  O  O380  1  0.65240719  0.09673577  0.36819764  1
  O  O381  1  0.63375038  0.16917650  0.86198117  1
  O  O382  1  0.60845325  0.63512205  0.39968139  1
  O  O383  1  0.61828344  0.62965399  0.87859369  1
