# generated using pymatgen
data_VZnO4
_symmetry_space_group_name_H-M   'P 1'
_cell_length_a   16.90715509
_cell_length_b   16.96812778
_cell_length_c   16.91590552
_cell_angle_alpha   89.91593448
_cell_angle_beta   89.79269120
_cell_angle_gamma   90.20382606
_symmetry_Int_Tables_number   1
_chemical_formula_structural   VZnO4
_chemical_formula_sum   'V64 Zn64 O256'
_cell_volume   4852.81400945
_cell_formula_units_Z   64
loop_
 _symmetry_equiv_pos_site_id
 _symmetry_equiv_pos_as_xyz
  1  'x, y, z'
loop_
 _atom_site_type_symbol
 _atom_site_label
 _atom_site_symmetry_multiplicity
 _atom_site_fract_x
 _atom_site_fract_y
 _atom_site_fract_z
 _atom_site_occupancy
  V  V0  1  0.11002688  0.51346147  0.12626483  1
  V  V1  1  0.75391921  0.61572843  0.37273147  1
  V  V2  1  0.86242380  0.87112131  0.01381654  1
  V  V3  1  -0.00186336  0.11731375  0.62825698  1
  V  V4  1  0.62600369  0.11033997  -0.01517521  1
  V  V5  1  0.49546741  0.51334725  0.02487010  1
  V  V6  1  -0.00937219  0.88884319  0.87158833  1
  V  V7  1  0.85309035  0.88021655  0.48372850  1
  V  V8  1  0.49330161  0.27710149  0.23936464  1
  V  V9  1  0.80094904  0.93068423  0.68112076  1
  V  V10  1  0.00078420  0.53036870  -0.01381106  1
  V  V11  1  0.62860369  -0.00435895  0.64617604  1
  V  V12  1  0.14008982  0.74205316  0.39013434  1
  V  V13  1  0.26630435  0.12379134  0.85924137  1
  V  V14  1  0.23266324  0.71651964  0.01373296  1
  V  V15  1  0.75765809  0.10107696  0.86432081  1
  V  V16  1  0.00855394  0.24075857  0.23534711  1
  V  V17  1  0.13430100  0.12997238  -0.01051354  1
  V  V18  1  0.25203512  0.38356728  0.11764507  1
  V  V19  1  0.12434517  0.86093305  0.23580210  1
  V  V20  1  0.01060048  0.75815020  0.75564959  1
  V  V21  1  0.22690075  0.00405054  0.24092073  1
  V  V22  1  0.01645620  0.26446544  0.74584133  1
  V  V23  1  0.50785121  0.14001913  0.64510439  1
  V  V24  1  0.34363107  0.22796038  0.56462276  1
  V  V25  1  -0.00091438  0.86082046  0.37019170  1
  V  V26  1  0.61103677  0.26614512  0.38394102  1
  V  V27  1  0.00601024  -0.00121471  0.02922659  1
  V  V28  1  0.61798590  0.85990105  0.75556018  1
  V  V29  1  0.63747890  0.38004295  0.23395854  1
  V  V30  1  0.38274422  0.49442422  0.40022928  1
  V  V31  1  0.38525168  0.73480242  0.59531145  1
  V  V32  1  0.00077177  0.37246344  0.38623178  1
  V  V33  1  0.49833697  0.87643206  0.90174390  1
  V  V34  1  0.51055479  0.84373057  0.29466762  1
  V  V35  1  0.22966225  0.48401997  0.76465154  1
  V  V36  1  0.00765107  0.62486943  0.62097714  1
  V  V37  1  0.73552205  0.74294912  0.50507531  1
  V  V38  1  0.37414067  0.37641438  -0.00757802  1
  V  V39  1  0.13066196  0.22687868  0.38503326  1
  V  V40  1  0.37231202  0.73429446  0.13182331  1
  V  V41  1  0.63009690  0.73737757  0.91026916  1
  V  V42  1  0.76907385  0.48547350  0.24497316  1
  V  V43  1  0.00689058  0.00376081  0.48725863  1
  V  V44  1  0.86475881  0.75064696  0.63104022  1
  V  V45  1  0.42715596  0.64526210  0.75945374  1
  V  V46  1  0.62858149  0.12117631  0.48901249  1
  V  V47  1  0.87972441  0.48815475  0.39877577  1
  V  V48  1  0.49667161  -0.00562620  0.50402236  1
  V  V49  1  0.34478493  0.60151418  0.26184356  1
  V  V50  1  0.75442815  0.38689192  0.63728213  1
  V  V51  1  0.86040929  0.25102590  0.11421616  1
  V  V52  1  0.40125991  0.51165192  0.86492959  1
  V  V53  1  0.85334199  0.38447478  0.00141174  1
  V  V54  1  0.12742429  -0.01373517  0.62372786  1
  V  V55  1  0.63838004  0.61580992  0.02938414  1
  V  V56  1  0.75906166  0.25426243  0.49181158  1
  V  V57  1  0.87289151  0.25075455  0.63549469  1
  V  V58  1  0.27328119  -0.01838621  0.74445123  1
  V  V59  1  0.59611880  0.49094233  0.63429535  1
  V  V60  1  0.40604691  0.11943533  0.23192574  1
  V  V61  1  0.61434373  0.60533523  0.50155750  1
  V  V62  1  0.85615294  0.61945562  0.76108022  1
  V  V63  1  0.13034467  0.38383306  0.25092888  1
  Zn  Zn64  1  0.18250896  0.19671308  0.17999166  1
  Zn  Zn65  1  0.18798553  0.16852283  0.68158195  1
  Zn  Zn66  1  0.18421153  0.68346052  0.20444793  1
  Zn  Zn67  1  0.18560497  0.72728012  0.65692037  1
  Zn  Zn68  1  0.67476148  0.19279008  0.18975487  1
  Zn  Zn69  1  0.70043154  0.17655783  0.68293461  1
  Zn  Zn70  1  0.51824882  0.62135492  0.17818876  1
  Zn  Zn71  1  0.67278888  0.67151037  0.68612669  1
  Zn  Zn72  1  0.34140437  0.29625514  0.36630531  1
  Zn  Zn73  1  0.29621565  0.32243469  0.82970552  1
  Zn  Zn74  1  0.31018589  0.80674604  0.30509942  1
  Zn  Zn75  1  0.32153390  0.81403769  0.81283008  1
  Zn  Zn76  1  0.82474947  0.29471944  0.30955583  1
  Zn  Zn77  1  0.80297422  0.44653773  0.82494321  1
  Zn  Zn78  1  0.80155634  0.80094777  0.30998444  1
  Zn  Zn79  1  0.80758462  0.81030686  0.82751927  1
  Zn  Zn80  1  0.20941098  0.38668898  0.43561748  1
  Zn  Zn81  1  0.20896444  0.50304690  0.95229753  1
  Zn  Zn82  1  0.26243864  1.09760848  0.38526546  1
  Zn  Zn83  1  0.15132686  0.97681258  0.89131884  1
  Zn  Zn84  1  0.69149152  0.43230280  0.44695320  1
  Zn  Zn85  1  0.66504282  0.42308073  0.95441616  1
  Zn  Zn86  1  0.64729638  0.91888433  0.43170606  1
  Zn  Zn87  1  0.68533175  0.94155159  0.93406432  1
  Zn  Zn88  1  0.27929182  0.08227326  0.07963840  1
  Zn  Zn89  1  0.32201069  0.04887916  0.57353751  1
  Zn  Zn90  1  0.31055097  0.56219065  0.06814479  1
  Zn  Zn91  1  0.35557685  0.54372091  0.61069064  1
  Zn  Zn92  1  0.85124480  0.10108823  0.00436573  1
  Zn  Zn93  1  0.81331857  0.07119671  0.55674893  1
  Zn  Zn94  1  0.82880948  0.56321169  0.06663612  1
  Zn  Zn95  1  0.81867629  0.56753342  0.56497161  1
  Zn  Zn96  1  0.43040693  0.43641367  0.20222154  1
  Zn  Zn97  1  0.42647348  0.40290326  0.55257731  1
  Zn  Zn98  1  0.38095907  0.93010143  0.19199575  1
  Zn  Zn99  1  0.44851279  0.91501163  0.67427357  1
  Zn  Zn100  1  0.94529155  0.42757067  0.18620356  1
  Zn  Zn101  1  0.93321371  0.43783321  0.68166510  1
  Zn  Zn102  1  0.94019945  0.92483183  0.18460114  1
  Zn  Zn103  1  0.98674770  0.97924743  0.73118479  1
  Zn  Zn104  1  0.06379880  0.05549561  0.31098247  1
  Zn  Zn105  1  0.01106229  0.11291500  0.86313946  1
  Zn  Zn106  1  0.06884706  0.55482162  0.33048117  1
  Zn  Zn107  1  0.02916821  0.54502825  0.77820656  1
  Zn  Zn108  1  0.53333043  0.02075849  0.30608906  1
  Zn  Zn109  1  0.53666506  0.07589306  0.84265165  1
  Zn  Zn110  1  0.56415415  0.53619610  0.32481592  1
  Zn  Zn111  1  0.60959574  0.53724855  0.84060173  1
  Zn  Zn112  1  0.42509650  0.14332369  0.42852706  1
  Zn  Zn113  1  0.43252915  0.19389452  0.93111553  1
  Zn  Zn114  1  0.45624682  0.67455829  0.39214971  1
  Zn  Zn115  1  0.44361939  0.69533385  0.94863463  1
  Zn  Zn116  1  0.93244686  0.18563763  0.42317780  1
  Zn  Zn117  1  0.88390877  0.25383873  0.88307239  1
  Zn  Zn118  1  0.92758627  0.68379773  0.44457273  1
  Zn  Zn119  1  0.92753895  0.70342359  0.93619665  1
  Zn  Zn120  1  0.10390898  0.30017458  0.06458363  1
  Zn  Zn121  1  0.07007675  0.30094866  0.56157223  1
  Zn  Zn122  1  0.10207075  0.85125110  0.01543644  1
  Zn  Zn123  1  0.04567113  0.81361094  0.55469457  1
  Zn  Zn124  1  0.55997267  0.31684651  0.05250554  1
  Zn  Zn125  1  0.57506871  0.31111653  0.57350360  1
  Zn  Zn126  1  0.54697633  0.80122358  0.08824678  1
  Zn  Zn127  1  0.56037139  0.81399563  0.56514962  1
  O  O128  1  0.16115672  0.11916521  0.09109029  1
  O  O129  1  0.10239597  0.11220601  0.61470742  1
  O  O130  1  0.12079365  0.61054622  0.14221554  1
  O  O131  1  0.10596162  0.64887278  0.62610834  1
  O  O132  1  0.61342732  0.14679148  0.09889907  1
  O  O133  1  0.62455085  0.11018554  0.63056427  1
  O  O134  1  0.62346650  0.62303941  0.12828188  1
  O  O135  1  0.61653510  0.60468367  0.61217220  1
  O  O136  1  0.31531679  0.40868494  0.39699685  1
  O  O137  1  0.37418831  0.39669707  0.88706411  1
  O  O138  1  0.40835517  0.87190715  0.29498943  1
  O  O139  1  0.40054441  0.85502744  0.88554710  1
  O  O140  1  0.89124861  0.37577472  0.37631180  1
  O  O141  1  0.86482742  0.37135312  0.89372668  1
  O  O142  1  0.87101586  0.86609308  0.38091555  1
  O  O143  1  0.88520892  0.86794045  0.88804251  1
  O  O144  1  0.27752305  -0.00399736  0.32757578  1
  O  O145  1  0.25906356  -0.00498515  0.84945424  1
  O  O146  1  0.23686461  0.60521514  0.47507680  1
  O  O147  1  0.27772525  0.51111324  0.85950572  1
  O  O148  1  0.73573491  -0.03563898  0.34706929  1
  O  O149  1  0.76104753  0.00206760  0.86393750  1
  O  O150  1  0.76834182  0.49212752  0.38052631  1
  O  O151  1  0.70656424  0.48214328  0.86956900  1
  O  O152  1  0.22512124  0.49185813  0.11769644  1
  O  O153  1  0.27351368  0.49843798  0.67205182  1
  O  O154  1  0.28647579  0.98939115  0.15336525  1
  O  O155  1  0.23396545  1.00248618  0.63208490  1
  O  O156  1  0.77119994  0.50197956  0.14797406  1
  O  O157  1  0.76225555  0.48558786  0.62056902  1
  O  O158  1  0.83996863  1.07193784  0.23854737  1
  O  O159  1  0.74204448  1.00138937  0.62692557  1
  O  O160  1  0.01294673  0.36311910  0.25758013  1
  O  O161  1  0.00543235  0.36397969  0.74110039  1
  O  O162  1  -0.00149960  0.87267938  0.26465614  1
  O  O163  1  -0.01587614  0.86420845  0.75973481  1
  O  O164  1  0.52646720  0.38300913  0.25171523  1
  O  O165  1  0.45921401  0.29832268  0.78753816  1
  O  O166  1  0.54179144  0.83779438  0.19802633  1
  O  O167  1  0.51730252  0.87220668  0.75949547  1
  O  O168  1  0.49934084  0.16503533  0.24138249  1
  O  O169  1  0.50145042  0.11287141  0.74116180  1
  O  O170  1  0.48871298  0.61115850  0.28561718  1
  O  O171  1  0.52398480  0.64342547  0.76245453  1
  O  O172  1  1.01089073  0.14291580  0.26166253  1
  O  O173  1  0.99253529  0.11257300  0.72874157  1
  O  O174  1  0.97392971  0.62169675  0.25710374  1
  O  O175  1  0.98293524  0.64876208  0.74263456  1
  O  O176  1  0.37778293  0.27629034  -0.01233734  1
  O  O177  1  0.37840471  0.24762784  0.46465457  1
  O  O178  1  0.35858977  0.71147236  0.02465451  1
  O  O179  1  0.39401631  0.71920741  0.49830429  1
  O  O180  1  0.85321579  0.27374240  0.00370192  1
  O  O181  1  0.86125882  0.24582663  0.50267994  1
  O  O182  1  0.87261314  0.76966515  0.00813891  1
  O  O183  1  0.85780164  0.75996142  0.50960382  1
  O  O184  1  0.10915009  0.22951777  0.48265768  1
  O  O185  1  0.12419122  0.22817030  0.97926752  1
  O  O186  1  0.11950744  0.75614521  0.48938784  1
  O  O187  1  0.13490304  0.74072747  1.01446406  1
  O  O188  1  0.63092283  0.24093685  0.49474050  1
  O  O189  1  0.62438770  0.21120012  1.04471213  1
  O  O190  1  0.62992974  0.73453924  0.51049624  1
  O  O191  1  0.62724642  0.73478557  1.01665473  1
  O  O192  1  0.49366902  0.27879196  0.13929654  1
  O  O193  1  0.53621872  0.23570502  0.65040054  1
  O  O194  1  0.47579356  0.71555110  0.12579493  1
  O  O195  1  0.45558400  0.81307075  0.61591427  1
  O  O196  1  1.03386523  0.24160834  0.13719829  1
  O  O197  1  0.99470570  0.24052899  0.62753934  1
  O  O198  1  1.00097988  0.67513407  0.21498042  1
  O  O199  1  0.98117266  0.75256336  0.63235186  1
  O  O200  1  0.01565141  0.25941267  0.36649676  1
  O  O201  1  -0.00520396  0.22892824  0.84367346  1
  O  O202  1  -0.01416878  0.76029767  0.38260654  1
  O  O203  1  -0.00071239  0.75653770  0.85957210  1
  O  O204  1  0.51354845  0.24847692  0.36878069  1
  O  O205  1  0.49423551  0.26049886  0.84515279  1
  O  O206  1  0.51860505  0.76219325  0.35222356  1
  O  O207  1  0.52453181  0.75905293  0.89079423  1
  O  O208  1  0.31951067  0.11105823  0.48132654  1
  O  O209  1  0.24436643  0.10440805  0.97037370  1
  O  O210  1  0.25069680  0.61891391  0.54499611  1
  O  O211  1  0.23612269  0.61399773  0.99216948  1
  O  O212  1  0.73643812  0.14204913  0.51065382  1
  O  O213  1  0.73736545  0.12206681  0.97830801  1
  O  O214  1  0.74328398  0.62957435  0.49796262  1
  O  O215  1  0.73718583  0.60850705  1.01719480  1
  O  O216  1  0.26207681  0.39791905  0.00468928  1
  O  O217  1  0.16626991  0.37300298  0.55069320  1
  O  O218  1  0.25741006  0.82354968  -0.02766223  1
  O  O219  1  0.24349570  0.91492954  0.45802374  1
  O  O220  1  0.75976649  0.40602142  0.02049154  1
  O  O221  1  0.74440874  0.35636928  0.51737434  1
  O  O222  1  0.76494030  0.88984215  -0.00486879  1
  O  O223  1  0.74056512  0.85278973  0.47845442  1
  O  O224  1  0.11002839  0.49098445  0.24265240  1
  O  O225  1  0.13935107  0.52727809  0.76998501  1
  O  O226  1  0.12174283  0.97589352  0.25190629  1
  O  O227  1  0.10711243  0.99018733  0.72255912  1
  O  O228  1  0.64709475  0.48312693  0.26010320  1
  O  O229  1  0.61015548  0.50702853  0.73113359  1
  O  O230  1  0.63001964  1.03844883  0.22967150  1
  O  O231  1  0.62808785  0.98920095  0.74502335  1
  O  O232  1  0.44281770  0.02141969  0.22965497  1
  O  O233  1  0.37131915  -0.01361266  0.71818253  1
  O  O234  1  0.36683686  0.49662547  0.27597779  1
  O  O235  1  0.40729847  0.52165644  0.76433512  1
  O  O236  1  0.87771132  0.01499359  0.26427556  1
  O  O237  1  0.86967350  -0.01644965  0.72662615  1
  O  O238  1  0.87157168  0.48404226  0.26362287  1
  O  O239  1  0.87896316  0.51332991  0.76079038  1
  O  O240  1  0.11586710  0.38861358  0.36353868  1
  O  O241  1  0.09050544  0.37008351  0.89780101  1
  O  O242  1  0.10308429  0.85680773  0.37214019  1
  O  O243  1  0.09495109  0.87480365  0.88593280  1
  O  O244  1  0.62395794  0.36676078  0.37947070  1
  O  O245  1  0.60008958  0.33358108  0.94805350  1
  O  O246  1  0.57706832  0.91701325  0.33533333  1
  O  O247  1  0.62321367  0.86516638  0.86789612  1
  O  O248  1  0.35700188  0.14160714  0.14684306  1
  O  O249  1  0.40046569  0.14977016  0.61689930  1
  O  O250  1  0.36678315  0.60504699  0.15637085  1
  O  O251  1  0.40854038  0.63935957  0.64342740  1
  O  O252  1  0.89027757  0.15676897  0.09765237  1
  O  O253  1  0.88421313  0.14039012  0.61509561  1
  O  O254  1  0.87507679  0.66076556  0.12684477  1
  O  O255  1  0.87791771  0.63552222  0.63636622  1
  O  O256  1  0.22292437  0.28305623  0.11100886  1
  O  O257  1  0.24725862  0.21414254  0.59283495  1
  O  O258  1  0.25225085  0.72494172  0.12040420  1
  O  O259  1  0.28767097  0.75480856  0.61851864  1
  O  O260  1  0.76471821  0.24484890  0.14441559  1
  O  O261  1  0.76187766  0.25459362  0.62467337  1
  O  O262  1  0.82707650  0.69706270  0.17667964  1
  O  O263  1  0.74907545  0.73863760  0.61027377  1
  O  O264  1  0.22511462  0.26974479  0.38549531  1
  O  O265  1  0.24696907  0.22266475  0.85540121  1
  O  O266  1  0.24027644  0.75649137  0.38179775  1
  O  O267  1  0.25487082  0.77039024  0.90993891  1
  O  O268  1  0.73720144  0.25981250  0.39074528  1
  O  O269  1  0.67158901  0.28363393  0.85628511  1
  O  O270  1  0.75449111  0.72357341  0.38403481  1
  O  O271  1  0.72614774  0.75302791  0.88114109  1
  O  O272  1  0.02325909  0.09913472  -0.00816837  1
  O  O273  1  -0.02203829  0.10489972  0.49118395  1
  O  O274  1  -0.01312993  0.62728568  -0.00096021  1
  O  O275  1  -0.01339835  0.62564984  0.52216000  1
  O  O276  1  0.52284570  0.13052992  -0.04610949  1
  O  O277  1  0.52010779  0.11882330  0.52272068  1
  O  O278  1  0.50589906  0.61510685  0.01124812  1
  O  O279  1  0.51998485  0.61984592  0.47866177  1
  O  O280  1  0.50789706  0.35301430  0.49772026  1
  O  O281  1  0.47712180  0.39700106  1.01796928  1
  O  O282  1  0.53867962  0.90017378  0.48872008  1
  O  O283  1  0.51615365  0.86906728  1.00315760  1
  O  O284  1  1.00847090  0.36613437  0.48478745  1
  O  O285  1  1.04575094  0.36410147  0.95606601  1
  O  O286  1  0.97384155  0.88620333  0.48984297  1
  O  O287  1  0.98672930  0.88702922  0.99256294  1
  O  O288  1  0.47898936  0.47523332  0.38686268  1
  O  O289  1  0.50089263  0.50051174  0.89188376  1
  O  O290  1  0.48002896  1.03657810  0.40827118  1
  O  O291  1  0.50585570  0.97491502  0.88107108  1
  O  O292  1  0.98915312  0.48648657  0.37652546  1
  O  O293  1  1.00629983  0.51565062  0.88751712  1
  O  O294  1  1.00069610  0.98537124  0.38220536  1
  O  O295  1  0.99068753  0.99192273  0.85408910  1
  O  O296  1  0.00568129  0.00168967  0.12921900  1
  O  O297  1  -0.00624983  0.00727265  0.60721633  1
  O  O298  1  0.00490623  0.50302300  0.11649797  1
  O  O299  1  0.00410956  0.52437465  0.65299168  1
  O  O300  1  0.44543080  -0.00323532  0.05717586  1
  O  O301  1  0.52165694  0.00349213  0.62191271  1
  O  O302  1  0.48966150  0.50912588  0.12802115  1
  O  O303  1  0.49823225  0.47489824  0.62375542  1
  O  O304  1  0.23134903  0.38035699  0.23545980  1
  O  O305  1  0.21911011  0.38407244  0.77708096  1
  O  O306  1  0.22831005  0.87337782  0.24422751  1
  O  O307  1  0.25540326  0.88110250  0.74657521  1
  O  O308  1  0.74974748  0.37614717  0.25786754  1
  O  O309  1  0.76416660  0.37729495  0.73595525  1
  O  O310  1  0.74538145  0.91708301  0.28915314  1
  O  O311  1  0.74472030  0.87660852  0.74927560  1
  O  O312  1  0.21609780  0.10506556  0.23740071  1
  O  O313  1  0.24728268  0.10041055  0.75158797  1
  O  O314  1  0.24539341  0.60396152  0.26591285  1
  O  O315  1  0.28234866  0.62439548  0.75667769  1
  O  O316  1  0.68532805  0.08791630  0.24786069  1
  O  O317  1  0.75618904  0.13803422  0.76882990  1
  O  O318  1  0.75295768  0.59889677  0.27364969  1
  O  O319  1  0.75692195  0.62020829  0.74332342  1
  O  O320  1  0.35862683  0.14448144  0.32152011  1
  O  O321  1  0.36673113  0.12138582  0.86915781  1
  O  O322  1  0.36359516  0.59937729  0.37970232  1
  O  O323  1  0.39870707  0.62257869  0.86835176  1
  O  O324  1  0.85817497  0.18775000  0.34117988  1
  O  O325  1  0.85903644  0.14082612  0.89110036  1
  O  O326  1  0.86592605  0.60234741  0.38776004  1
  O  O327  1  0.86619073  0.64250403  0.85791155  1
  O  O328  1  0.11930062  0.39032548  0.13546097  1
  O  O329  1  0.13439717  0.45469288  0.56079435  1
  O  O330  1  0.10611606  0.85316780  0.13930877  1
  O  O331  1  0.11776632  0.88801766  0.60480751  1
  O  O332  1  0.63618182  0.37161786  0.13627459  1
  O  O333  1  0.64072717  0.38783284  0.63053723  1
  O  O334  1  0.70898323  0.81641585  0.15715242  1
  O  O335  1  0.62498462  0.88608148  0.63788628  1
  O  O336  1  0.12333986  0.26228650  0.26201681  1
  O  O337  1  0.11307232  0.24300937  0.72989356  1
  O  O338  1  0.12529936  0.75787898  0.26843215  1
  O  O339  1  0.10754872  0.76425445  0.73641285  1
  O  O340  1  0.62269153  0.26645066  0.26335844  1
  O  O341  1  0.64269478  0.28187634  0.78983067  1
  O  O342  1  0.69994470  0.78242272  0.22163254  1
  O  O343  1  0.63062414  0.76210966  0.73943024  1
  O  O344  1  0.39720041  0.29727925  0.26636836  1
  O  O345  1  0.38706485  0.27154521  0.76791899  1
  O  O346  1  0.35714360  0.71691897  0.24605563  1
  O  O347  1  0.39318790  0.74085185  0.75994486  1
  O  O348  1  0.90264529  0.26605893  0.21854403  1
  O  O349  1  0.88795959  0.24940502  0.73417554  1
  O  O350  1  0.86434850  0.75389086  0.22056512  1
  O  O351  1  0.86138750  0.74856674  0.73861045  1
  O  O352  1  0.37545548  0.49796334  0.50874953  1
  O  O353  1  0.38546367  0.50863961  0.99348831  1
  O  O354  1  0.40437508  0.97252532  0.53856678  1
  O  O355  1  0.39262406  1.01735211  1.01173177  1
  O  O356  1  0.87781284  0.48960231  0.49756785  1
  O  O357  1  0.89650294  0.49083300  1.00483159  1
  O  O358  1  0.84991363  0.98076193  0.49509609  1
  O  O359  1  0.90057409  0.99768582  1.00415525  1
  O  O360  1  0.11049212  -0.02770050  0.00623207  1
  O  O361  1  0.10525033  0.00328623  0.50251351  1
  O  O362  1  0.10744398  0.50622369  0.01024689  1
  O  O363  1  0.14867248  0.49632533  0.49908179  1
  O  O364  1  0.62469452  0.01181225  0.00471382  1
  O  O365  1  0.63308535  0.01539347  0.50213479  1
  O  O366  1  0.60605344  0.50851856  0.01330915  1
  O  O367  1  0.62595577  0.50037363  0.51397313  1
  O  O368  1  0.35566759  0.38790675  0.12187594  1
  O  O369  1  0.36847454  0.31726620  0.60431874  1
  O  O370  1  0.37324686  0.83431856  0.13150949  1
  O  O371  1  0.27013640  0.86936645  0.50702957  1
  O  O372  1  0.89991835  0.36312242  0.10069314  1
  O  O373  1  0.87137758  0.36028337  0.62031345  1
  O  O374  1  0.86480770  0.88463432  0.11684007  1
  O  O375  1  0.85022654  0.86831152  0.61078483  1
  O  O376  1  0.14471934  0.12539043  0.37220222  1
  O  O377  1  0.12994759  0.09430232  0.88174566  1
  O  O378  1  0.11593670  0.64346852  0.37441565  1
  O  O379  1  0.23725801  0.68310884  0.76841694  1
  O  O380  1  0.62277247  0.13376432  0.39005378  1
  O  O381  1  0.64507211  0.11481137  0.87365960  1
  O  O382  1  0.64664373  0.59646332  0.39221521  1
  O  O383  1  0.62213893  0.63434072  0.90403693  1
