# generated using pymatgen
data_VZnO4
_symmetry_space_group_name_H-M   'P 1'
_cell_length_a   16.96132368
_cell_length_b   16.93702421
_cell_length_c   16.92285699
_cell_angle_alpha   89.70597615
_cell_angle_beta   90.10778891
_cell_angle_gamma   89.90107450
_symmetry_Int_Tables_number   1
_chemical_formula_structural   VZnO4
_chemical_formula_sum   'V64 Zn64 O256'
_cell_volume   4861.42279759
_cell_formula_units_Z   64
loop_
 _symmetry_equiv_pos_site_id
 _symmetry_equiv_pos_as_xyz
  1  'x, y, z'
loop_
 _atom_site_type_symbol
 _atom_site_label
 _atom_site_symmetry_multiplicity
 _atom_site_fract_x
 _atom_site_fract_y
 _atom_site_fract_z
 _atom_site_occupancy
  V  V0  1  0.64384881  0.88663686  0.73552306  1
  V  V1  1  0.50257288  0.88111260  0.36298477  1
  V  V2  1  0.37690455  0.26079254  0.13667959  1
  V  V3  1  -0.00525004  0.63320798  0.62076115  1
  V  V4  1  0.25996041  0.86697846  0.61757768  1
  V  V5  1  -0.00018336  0.50161033  0.00332556  1
  V  V6  1  0.48931057  0.76614157  0.74224482  1
  V  V7  1  0.37782009  0.38673416  0.49321132  1
  V  V8  1  -0.00621337  0.49118240  0.49452128  1
  V  V9  1  0.25613560  0.37252784  0.62982410  1
  V  V10  1  0.25583218  0.24166227  0.49645737  1
  V  V11  1  0.74567652  0.49487902  0.74670039  1
  V  V12  1  0.63106412  0.49080717  0.10802222  1
  V  V13  1  0.62416647  0.61836368  0.49055999  1
  V  V14  1  0.13409862  0.74454575  0.87586816  1
  V  V15  1  0.14438408  0.61660377  -0.00866996  1
  V  V16  1  0.76517005  0.36397471  0.14225934  1
  V  V17  1  0.10872227  0.37707347  0.74750177  1
  V  V18  1  0.11946754  0.89114858  0.24188002  1
  V  V19  1  0.75146159  -0.00541271  0.27100273  1
  V  V20  1  0.36492763  0.61360139  0.74319170  1
  V  V21  1  0.00423647  0.75403396  0.75733779  1
  V  V22  1  0.63070541  -0.00542300  0.12675340  1
  V  V23  1  0.10599293  0.24865931  0.86463054  1
  V  V24  1  0.26412626  0.87337364  0.12953372  1
  V  V25  1  0.50777897  0.13721232  0.14710687  1
  V  V26  1  0.36176289  0.00067947  0.37196658  1
  V  V27  1  0.26046253  0.61993492  0.36756612  1
  V  V28  1  0.12473366  0.50277026  0.13801583  1
  V  V29  1  0.87180806  0.62739035  0.75381473  1
  V  V30  1  -0.01237557  0.26070162  0.27054218  1
  V  V31  1  0.60438302  0.11646465  0.49535437  1
  V  V32  1  0.48143145  0.01290568  -0.00029387  1
  V  V33  1  0.88042694  0.36220283  -0.01205285  1
  V  V34  1  0.74012339  0.51886014  0.24518878  1
  V  V35  1  0.24050606  0.37810642  0.13847493  1
  V  V36  1  0.74722449  0.74503190  0.49334782  1
  V  V37  1  0.73364534  0.38266781  0.60931729  1
  V  V38  1  0.87920983  0.22417399  0.10464160  1
  V  V39  1  0.12284907  0.26910662  0.37671296  1
  V  V40  1  0.63552368  0.75117253  0.87551440  1
  V  V41  1  0.88223395  0.26678407  0.62406550  1
  V  V42  1  0.87288743  0.50779855  0.35768021  1
  V  V43  1  0.13254639  0.50241201  0.62439807  1
  V  V44  1  0.50228492  0.37553314  0.86392971  1
  V  V45  1  0.12729896  0.75369962  0.36969979  1
  V  V46  1  -0.01121115  0.88264950  0.38758645  1
  V  V47  1  0.38621842  0.84293033  -0.02161791  1
  V  V48  1  0.47787207  0.74765341  0.25289316  1
  V  V49  1  0.86629858  0.87924491  0.51126609  1
  V  V50  1  0.87089147  0.12220482  0.30417852  1
  V  V51  1  0.25320519  0.24694425  -0.00476743  1
  V  V52  1  0.13619046  -0.00147233  0.65287688  1
  V  V53  1  0.50461642  0.60631243  0.62123677  1
  V  V54  1  0.63566757  0.24983421  0.37352788  1
  V  V55  1  0.12085022  0.11747736  0.49417734  1
  V  V56  1  0.34363727  0.12338418  0.24792392  1
  V  V57  1  -0.01489852  0.74071315  0.24405714  1
  V  V58  1  0.62108094  0.14935135  -0.00551999  1
  V  V59  1  0.13335033  0.63597660  0.50089206  1
  V  V60  1  -0.00164318  0.12030029  0.63632065  1
  V  V61  1  0.88317245  0.49270472  0.86796928  1
  V  V62  1  0.49999219  0.37116726  0.35843262  1
  V  V63  1  0.76375981  0.14137096  0.87540401  1
  Zn  Zn64  1  0.17074610  0.19412640  0.17546851  1
  Zn  Zn65  1  0.18518929  0.19176193  0.68332595  1
  Zn  Zn66  1  0.19779942  0.68541273  0.18396451  1
  Zn  Zn67  1  0.18814787  0.69603515  0.68429472  1
  Zn  Zn68  1  0.69673103  0.18236879  0.19710727  1
  Zn  Zn69  1  0.70761974  0.19389681  0.67648382  1
  Zn  Zn70  1  0.62075150  0.64883433  0.21198075  1
  Zn  Zn71  1  0.66431490  0.70845657  0.66752091  1
  Zn  Zn72  1  0.30960346  0.31430713  0.31574281  1
  Zn  Zn73  1  0.30196377  0.45371088  0.80946863  1
  Zn  Zn74  1  0.30897646  0.81746785  0.31035684  1
  Zn  Zn75  1  0.30747739  0.79465457  0.79846929  1
  Zn  Zn76  1  0.81579680  0.32321693  0.34173797  1
  Zn  Zn77  1  0.81280552  0.31189459  0.80067377  1
  Zn  Zn78  1  0.80753837  0.81154755  0.31541958  1
  Zn  Zn79  1  0.81441945  0.80506051  0.68220973  1
  Zn  Zn80  1  0.19100311  0.44342044  0.44239462  1
  Zn  Zn81  1  0.17676920  0.40637784  0.94567994  1
  Zn  Zn82  1  0.18279660  0.93605655  0.43088875  1
  Zn  Zn83  1  0.21159506  0.89995638  0.93203641  1
  Zn  Zn84  1  0.68425007  0.44177154  0.42620728  1
  Zn  Zn85  1  0.70009521  0.41452731  0.92654116  1
  Zn  Zn86  1  0.68119657  0.93446599  0.45580751  1
  Zn  Zn87  1  0.65030967  0.95311960  0.91917710  1
  Zn  Zn88  1  0.26722968  0.04594068  0.02232178  1
  Zn  Zn89  1  0.29385865  0.01584857  0.53462299  1
  Zn  Zn90  1  0.29049873  0.51311444  0.00692253  1
  Zn  Zn91  1  0.31753756  0.56658913  0.55946585  1
  Zn  Zn92  1  0.79360037  0.06259041  0.04658331  1
  Zn  Zn93  1  0.83813772  0.09190432  0.52019538  1
  Zn  Zn94  1  0.78233350  0.53413177  0.02971618  1
  Zn  Zn95  1  0.80773633  0.56639294  0.56057549  1
  Zn  Zn96  1  0.45014047  0.43832728  0.17513871  1
  Zn  Zn97  1  0.43976359  0.43646534  0.67539567  1
  Zn  Zn98  1  0.44019965  0.94834351  0.19222758  1
  Zn  Zn99  1  0.37829495  0.92769059  0.72274444  1
  Zn  Zn100  1  0.93518433  0.43884876  0.18400542  1
  Zn  Zn101  1  0.93826094  0.44769166  0.67464437  1
  Zn  Zn102  1  0.93970144  0.95073022  0.20902673  1
  Zn  Zn103  1  0.95986678  0.93279685  0.67416209  1
  Zn  Zn104  1  0.05917757  0.06752166  0.32132611  1
  Zn  Zn105  1  0.19758138  0.06222072  0.83419406  1
  Zn  Zn106  1  0.06077594  0.56573679  0.31752568  1
  Zn  Zn107  1  0.06309258  0.55809539  0.81035086  1
  Zn  Zn108  1  0.57114396  0.05634491  0.31977092  1
  Zn  Zn109  1  0.63525260  0.06874392  0.80844826  1
  Zn  Zn110  1  0.52443340  0.57069453  0.34326481  1
  Zn  Zn111  1  0.56782342  0.57558491  0.80836602  1
  Zn  Zn112  1  0.43903350  0.18464170  0.42805075  1
  Zn  Zn113  1  0.44267902  0.20072768  0.95594147  1
  Zn  Zn114  1  0.44078635  0.69777100  0.44432801  1
  Zn  Zn115  1  0.43895101  0.67717223  0.91130598  1
  Zn  Zn116  1  0.94682914  0.20360172  0.45520117  1
  Zn  Zn117  1  0.93632106  0.18073619  0.80792021  1
  Zn  Zn118  1  0.93001803  0.69312389  0.43364053  1
  Zn  Zn119  1  0.94059284  0.68143979  0.93559017  1
  Zn  Zn120  1  0.06618286  0.31011398  0.05699561  1
  Zn  Zn121  1  0.06477028  0.30872999  0.56549397  1
  Zn  Zn122  1  0.09789171  0.78255069  0.08562951  1
  Zn  Zn123  1  0.06884902  0.82031860  0.56616746  1
  Zn  Zn124  1  0.56159728  0.32623151  0.07752210  1
  Zn  Zn125  1  0.57288658  0.31737854  0.53938166  1
  Zn  Zn126  1  0.55586901  0.82139443  0.05388234  1
  Zn  Zn127  1  0.56159966  0.80731740  0.56479665  1
  O  O128  1  0.08789603  0.21115377  0.10418650  1
  O  O129  1  0.12133158  0.11771112  0.62183459  1
  O  O130  1  0.13546275  0.60807969  0.10992413  1
  O  O131  1  0.12265558  0.62221328  0.61430928  1
  O  O132  1  0.61837516  0.13432469  0.12097163  1
  O  O133  1  0.67331466  0.11470707  0.59440104  1
  O  O134  1  0.60493318  0.58637456  0.11498353  1
  O  O135  1  0.61262437  0.62167276  0.61555959  1
  O  O136  1  0.38519410  0.36597434  0.38578830  1
  O  O137  1  0.39813729  0.38797123  0.86011344  1
  O  O138  1  0.37765689  0.89241170  0.36386066  1
  O  O139  1  0.37233915  0.85684476  0.88030928  1
  O  O140  1  0.87079583  0.40919835  0.38808997  1
  O  O141  1  0.88143468  0.37465739  0.88113338  1
  O  O142  1  0.88516233  0.87190473  0.38780817  1
  O  O143  1  0.84816680  0.81512025  0.95426620  1
  O  O144  1  0.26114984  -0.00297982  0.37168369  1
  O  O145  1  0.23448259  0.00517073  0.92087189  1
  O  O146  1  0.24583762  0.52089354  0.38005013  1
  O  O147  1  0.25765015  0.47621279  0.90609315  1
  O  O148  1  0.73585604  -0.00497919  0.36860209  1
  O  O149  1  0.72627217  0.03292858  0.88402830  1
  O  O150  1  0.75395353  0.50024271  0.35085072  1
  O  O151  1  0.77098027  0.48702305  0.86015305  1
  O  O152  1  0.23886056  0.48686891  0.11192623  1
  O  O153  1  0.23807586  0.48713539  0.60657137  1
  O  O154  1  0.23599221  0.96666922  0.10353526  1
  O  O155  1  0.23767055  1.00805052  0.63068890  1
  O  O156  1  0.75644296  0.48543860  0.13562304  1
  O  O157  1  0.76087626  0.49047533  0.63583847  1
  O  O158  1  0.73356609  1.00739315  0.12419123  1
  O  O159  1  0.82618538  1.01289263  0.74556518  1
  O  O160  1  -0.01797327  0.35897750  0.25702670  1
  O  O161  1  0.01066826  0.37809266  0.73526627  1
  O  O162  1  0.00397444  0.87062034  0.26678666  1
  O  O163  1  -0.00263747  0.85249443  0.74711426  1
  O  O164  1  0.49389745  0.37411639  0.25913065  1
  O  O165  1  0.49886746  0.37126602  0.75878447  1
  O  O166  1  0.49600784  0.86544801  0.25587898  1
  O  O167  1  0.47502139  0.86620683  0.74206038  1
  O  O168  1  0.51623670  0.13153001  0.24479570  1
  O  O169  1  0.49183208  0.08170005  0.66575559  1
  O  O170  1  0.51010828  0.64295742  0.25886541  1
  O  O171  1  0.49300362  0.61694600  0.73231689  1
  O  O172  1  0.97406173  0.13007547  0.27584747  1
  O  O173  1  1.00496977  0.12511282  0.73650060  1
  O  O174  1  0.99963250  0.64161076  0.25905113  1
  O  O175  1  0.99682884  0.62518511  0.73761770  1
  O  O176  1  0.36553655  0.24058945  0.02916335  1
  O  O177  1  0.35664147  0.24564299  0.49225158  1
  O  O178  1  0.41322813  0.74714232  -0.00367542  1
  O  O179  1  0.41542761  0.80429249  0.49434204  1
  O  O180  1  0.89667297  0.25745585  0.00519670  1
  O  O181  1  0.86433542  0.22578465  0.52865795  1
  O  O182  1  0.89132735  0.76310339  0.00188099  1
  O  O183  1  0.86093254  0.75832722  0.49916487  1
  O  O184  1  0.13067889  0.24814045  0.49106099  1
  O  O185  1  0.14076244  0.28108835  0.96394753  1
  O  O186  1  0.11728304  0.74058882  0.49133923  1
  O  O187  1  0.11236094  0.72069952  0.98957834  1
  O  O188  1  0.62388605  0.23206596  0.49250273  1
  O  O189  1  0.60937676  0.24821124  1.00676483  1
  O  O190  1  0.63865837  0.74459292  0.50571773  1
  O  O191  1  0.61874389  0.78046959  0.97440444  1
  O  O192  1  0.48844167  0.24951083  0.12931052  1
  O  O193  1  0.52762248  0.23936863  0.65799465  1
  O  O194  1  0.51968100  0.75208132  0.14352104  1
  O  O195  1  0.50637150  0.73781134  0.63984500  1
  O  O196  1  0.96348711  0.24074342  0.16177412  1
  O  O197  1  0.99120923  0.23871472  0.62223190  1
  O  O198  1  1.00472756  0.75505625  0.14460175  1
  O  O199  1  1.01479805  0.73651774  0.63617681  1
  O  O200  1  0.01002989  0.26004188  0.38192214  1
  O  O201  1  0.00698151  0.24644689  0.87043785  1
  O  O202  1  0.00726323  0.75728389  0.37030495  1
  O  O203  1  0.00726658  0.73851961  0.86121621  1
  O  O204  1  0.50791246  0.26314984  0.37944122  1
  O  O205  1  0.49140724  0.27108428  0.86807441  1
  O  O206  1  0.48939764  0.76404453  0.35877655  1
  O  O207  1  0.50508805  0.74283896  0.84602702  1
  O  O208  1  0.23647958  0.13952337  0.50987658  1
  O  O209  1  0.22898850  0.15225803  1.02871800  1
  O  O210  1  0.23510659  0.62781056  0.49831723  1
  O  O211  1  0.24257375  0.62070025  0.99510946  1
  O  O212  1  0.72350752  0.11638923  0.52622881  1
  O  O213  1  0.73092504  0.13955408  0.98908106  1
  O  O214  1  0.73845185  0.63321885  0.50000490  1
  O  O215  1  0.75613607  0.64875065  1.02877174  1
  O  O216  1  0.25385743  0.35981205  0.02350568  1
  O  O217  1  0.25980676  0.36621776  0.50221275  1
  O  O218  1  0.28726281  0.85703649  0.01188471  1
  O  O219  1  0.24717127  0.90003164  0.51600543  1
  O  O220  1  0.77725303  0.36677615  0.00090626  1
  O  O221  1  0.74957486  0.39396720  0.51106732  1
  O  O222  1  0.78967933  0.84674781  -0.01260595  1
  O  O223  1  0.75844861  0.86465624  0.50386058  1
  O  O224  1  0.12093894  0.50967083  0.23638503  1
  O  O225  1  0.12405960  0.49156772  0.73567859  1
  O  O226  1  0.11891707  0.98857018  0.26345885  1
  O  O227  1  0.13594791  1.00527314  0.75185829  1
  O  O228  1  0.64343500  0.48796333  0.22945482  1
  O  O229  1  0.64929998  0.51224523  0.75571764  1
  O  O230  1  0.64302849  1.01250828  0.23962081  1
  O  O231  1  0.61483134  0.98619875  0.74157717  1
  O  O232  1  0.36826180  0.01909856  0.25051612  1
  O  O233  1  0.34192764  0.03160508  0.77023139  1
  O  O234  1  0.39575617  0.54069958  0.21013331  1
  O  O235  1  0.36870563  0.50472730  0.73430109  1
  O  O236  1  0.86625027  0.01548987  0.26811127  1
  O  O237  1  0.88884444  -0.01599928  0.77054119  1
  O  O238  1  0.86955717  0.50805578  0.25212448  1
  O  O239  1  0.88109666  0.50782950  0.75308033  1
  O  O240  1  0.12914146  0.36809080  0.37815427  1
  O  O241  1  0.11954923  0.37722936  0.85001575  1
  O  O242  1  0.11466174  0.86363467  0.37548836  1
  O  O243  1  0.12311671  0.84364025  0.89736179  1
  O  O244  1  0.61092378  0.36173310  0.38808722  1
  O  O245  1  0.60698433  0.36709113  0.86692506  1
  O  O246  1  0.59876024  0.88209284  0.38852282  1
  O  O247  1  0.62270996  0.87134494  0.84834971  1
  O  O248  1  0.39319630  0.13682494  0.14853772  1
  O  O249  1  0.32531498  0.09346269  0.72463231  1
  O  O250  1  0.36986579  0.58875056  0.15931183  1
  O  O251  1  0.39185048  0.62038352  0.62432468  1
  O  O252  1  0.87502583  0.12550432  0.09637384  1
  O  O253  1  0.89873777  0.10426825  0.62079138  1
  O  O254  1  0.85411992  0.64705443  0.11746916  1
  O  O255  1  0.89214335  0.62125085  0.63192042  1
  O  O256  1  0.25843209  0.26528420  0.13233872  1
  O  O257  1  0.24103681  0.26562577  0.61023039  1
  O  O258  1  0.21317726  0.77469955  0.11699411  1
  O  O259  1  0.24256800  0.76743662  0.61465183  1
  O  O260  1  0.77990580  0.25031782  0.13875889  1
  O  O261  1  0.76299509  0.27798885  0.62910571  1
  O  O262  1  0.79162105  0.68190819  0.09449032  1
  O  O263  1  0.75552376  0.74060422  0.61206157  1
  O  O264  1  0.23533041  0.25356310  0.38619703  1
  O  O265  1  0.28005738  0.24165575  0.90182309  1
  O  O266  1  0.23126666  0.74958540  0.37261077  1
  O  O267  1  0.23356748  0.73861459  0.86649777  1
  O  O268  1  0.73497027  0.26182187  0.38974539  1
  O  O269  1  0.76035873  0.24452859  0.87660039  1
  O  O270  1  0.74703484  0.75458303  0.39119550  1
  O  O271  1  0.73199519  0.74685751  0.86202486  1
  O  O272  1  0.01190190  -0.02138172  -0.10621561  1
  O  O273  1  0.01778088  0.13065524  0.51390748  1
  O  O274  1  -0.00875474  0.60312740  0.00466373  1
  O  O275  1  0.00731473  0.62627487  0.51203682  1
  O  O276  1  0.50653580  0.12697457  0.01880759  1
  O  O277  1  0.50523349  0.13340330  0.50965432  1
  O  O278  1  0.45610650  0.57254338  -0.00261016  1
  O  O279  1  0.50956133  0.63360717  0.50963548  1
  O  O280  1  0.47494422  0.36460867  0.51467237  1
  O  O281  1  0.49582352  0.37852947  0.96810013  1
  O  O282  1  0.47925113  0.85114156  0.48403128  1
  O  O283  1  0.47013017  0.89852987  1.01962777  1
  O  O284  1  1.01175952  0.39379582  0.50689072  1
  O  O285  1  0.99102396  0.38484429  1.00726969  1
  O  O286  1  0.98865555  0.86428338  0.49466383  1
  O  O287  1  1.02188138  1.00816340  1.07189485  1
  O  O288  1  0.50281062  0.47231472  0.38243398  1
  O  O289  1  0.51631085  0.47927067  0.86027313  1
  O  O290  1  0.48724630  0.98766566  0.35689564  1
  O  O291  1  0.49840303  1.00745065  0.90421461  1
  O  O292  1  0.99093655  0.50660474  0.38663538  1
  O  O293  1  0.99249583  0.49780899  0.88625310  1
  O  O294  1  1.00447334  0.98092778  0.38246755  1
  O  O295  1  0.96746849  0.92827796  0.92041198  1
  O  O296  1  0.00445075  0.03189183  0.14741264  1
  O  O297  1  0.02505504  0.00974172  0.62820711  1
  O  O298  1  0.01442327  0.49258804  0.11662995  1
  O  O299  1  0.01518372  0.51465689  0.61597482  1
  O  O300  1  0.51020687  0.02158627  0.13154869  1
  O  O301  1  0.47170495  0.01652424  0.64193640  1
  O  O302  1  0.53816164  0.44084938  0.10372727  1
  O  O303  1  0.50581231  0.50576858  0.61690609  1
  O  O304  1  0.25394906  0.38055300  0.23905630  1
  O  O305  1  0.24864546  0.38117758  0.73115584  1
  O  O306  1  0.22860693  0.87140136  0.23930922  1
  O  O307  1  0.26844975  0.87923537  0.73268880  1
  O  O308  1  0.77029649  0.37352997  0.24202976  1
  O  O309  1  0.75304482  0.38922436  0.73963831  1
  O  O310  1  0.76595894  0.89716116  0.25001822  1
  O  O311  1  0.74464291  0.87766616  0.73583994  1
  O  O312  1  0.24456670  0.12700551  0.23286346  1
  O  O313  1  0.26069189  0.13551187  0.75752726  1
  O  O314  1  0.24878260  0.63216922  0.26729624  1
  O  O315  1  0.26555673  0.62642147  0.72837115  1
  O  O316  1  0.77208283  0.12046765  0.26087243  1
  O  O317  1  0.72080881  0.14041526  0.77295024  1
  O  O318  1  0.72939777  0.61825079  0.23689647  1
  O  O319  1  0.77278960  0.61203072  0.73893032  1
  O  O320  1  0.37269754  0.12331167  0.35191396  1
  O  O321  1  0.41713693  0.13606394  0.85604167  1
  O  O322  1  0.35723573  0.63958344  0.39267150  1
  O  O323  1  0.37558149  0.61292059  0.84652828  1
  O  O324  1  0.87067395  0.11759567  0.40573684  1
  O  O325  1  0.86248827  0.12207269  0.87245266  1
  O  O326  1  0.87036232  0.60452756  0.39186366  1
  O  O327  1  0.88131678  0.61275086  0.85991556  1
  O  O328  1  0.13271322  0.38571866  0.12828640  1
  O  O329  1  0.13313391  0.38250043  0.62926225  1
  O  O330  1  0.10077394  0.88670143  0.14321686  1
  O  O331  1  0.13283222  0.89324243  0.62878649  1
  O  O332  1  0.66585150  0.36266769  0.11764791  1
  O  O333  1  0.63431350  0.37535197  0.61659383  1
  O  O334  1  0.61585744  0.89769582  0.12136579  1
  O  O335  1  0.61677268  0.87398124  0.63634851  1
  O  O336  1  0.10154003  0.24366392  0.27110708  1
  O  O337  1  0.13135731  0.26745071  0.75422841  1
  O  O338  1  0.11418413  0.75789187  0.26332917  1
  O  O339  1  0.11455622  0.73722907  0.76338951  1
  O  O340  1  0.63510383  0.24306072  0.27152758  1
  O  O341  1  0.57981577  0.21878637  0.70671880  1
  O  O342  1  0.58849384  0.75946945  0.19643705  1
  O  O343  1  0.61345500  0.76755614  0.75162549  1
  O  O344  1  0.36361840  0.23900425  0.24441446  1
  O  O345  1  0.45274870  0.15295057  0.79426604  1
  O  O346  1  0.37863917  0.74637941  0.24441428  1
  O  O347  1  0.38618175  0.73122980  0.74324619  1
  O  O348  1  0.88048690  0.23677630  0.29514067  1
  O  O349  1  0.87426503  0.24344099  0.73051897  1
  O  O350  1  0.88630334  0.75820187  0.25495289  1
  O  O351  1  0.88926294  0.73346277  0.74783608  1
  O  O352  1  0.36964941  0.48532008  0.49542025  1
  O  O353  1  0.40906370  0.51982558  1.02355694  1
  O  O354  1  0.38259884  1.02264072  0.47046609  1
  O  O355  1  0.38357625  1.03174478  1.01082693  1
  O  O356  1  0.89607385  0.50516539  0.51525760  1
  O  O357  1  0.88166028  0.48699270  0.98871741  1
  O  O358  1  0.86189324  0.97878416  0.50454952  1
  O  O359  1  0.87618096  0.96403517  1.03896244  1
  O  O360  1  0.07546517  0.04587590  0.03631353  1
  O  O361  1  0.13086309  0.01746475  0.49703908  1
  O  O362  1  0.11206932  0.50292086  0.00008374  1
  O  O363  1  0.11495766  0.51718950  0.50230327  1
  O  O364  1  0.61095805  0.01512337  0.01510066  1
  O  O365  1  0.60993632  0.01453027  0.49082231  1
  O  O366  1  0.67019533  0.49107389  0.00880138  1
  O  O367  1  0.63254407  0.51876699  0.49470487  1
  O  O368  1  0.37102329  0.36575052  0.13431431  1
  O  O369  1  0.35983976  0.37588625  0.61516949  1
  O  O370  1  0.36231851  0.87404997  0.14789628  1
  O  O371  1  0.35990687  0.89129617  0.61399135  1
  O  O372  1  0.87222606  0.37209071  0.11125168  1
  O  O373  1  0.88507133  0.36693664  0.61539866  1
  O  O374  1  0.88698555  0.91637239  0.09647969  1
  O  O375  1  0.88458063  0.87121334  0.61662234  1
  O  O376  1  0.12016659  0.13575460  0.39107850  1
  O  O377  1  0.13445459  0.15369368  0.86477569  1
  O  O378  1  0.12911502  0.63617261  0.38585954  1
  O  O379  1  0.12266832  0.62010085  0.88614377  1
  O  O380  1  0.61887008  0.13515521  0.38733900  1
  O  O381  1  0.60124615  0.13945666  0.89473067  1
  O  O382  1  0.61065681  0.63180661  0.39049617  1
  O  O383  1  0.61235978  0.64620918  0.87913477  1
