# generated using pymatgen
data_VZnO4
_symmetry_space_group_name_H-M   'P 1'
_cell_length_a   16.92797117
_cell_length_b   16.95825957
_cell_length_c   16.95137984
_cell_angle_alpha   89.90625672
_cell_angle_beta   89.79934476
_cell_angle_gamma   89.90447893
_symmetry_Int_Tables_number   1
_chemical_formula_structural   VZnO4
_chemical_formula_sum   'V64 Zn64 O256'
_cell_volume   4866.17138575
_cell_formula_units_Z   64
loop_
 _symmetry_equiv_pos_site_id
 _symmetry_equiv_pos_as_xyz
  1  'x, y, z'
loop_
 _atom_site_type_symbol
 _atom_site_label
 _atom_site_symmetry_multiplicity
 _atom_site_fract_x
 _atom_site_fract_y
 _atom_site_fract_z
 _atom_site_occupancy
  V  V0  1  0.85978567  0.86182529  0.50114774  1
  V  V1  1  0.62838044  0.88200428  0.76720358  1
  V  V2  1  0.25859059  0.49905424  0.25664499  1
  V  V3  1  0.49782529  0.62087218  0.13674520  1
  V  V4  1  0.50273553  -0.00868170  -0.01682160  1
  V  V5  1  0.61460331  0.25002523  0.35885029  1
  V  V6  1  0.13114063  0.49565920  0.12893687  1
  V  V7  1  -0.00004123  0.63097494  0.12452760  1
  V  V8  1  0.74785101  0.25756964  -0.00652691  1
  V  V9  1  0.75616674  0.74159479  -0.00408966  1
  V  V10  1  0.12873703  0.63243165  -0.00162131  1
  V  V11  1  0.37666026  0.13865324  0.26740437  1
  V  V12  1  0.72867879  0.62904489  0.37242140  1
  V  V13  1  0.74707461  0.85678577  0.63345797  1
  V  V14  1  0.35751014  0.50328909  0.87095020  1
  V  V15  1  0.23234703  0.12584037  0.88023672  1
  V  V16  1  0.62013380  0.00371719  0.61993365  1
  V  V17  1  0.62816071  0.12319587  -0.01191269  1
  V  V18  1  0.88464728  0.37795427  0.00135517  1
  V  V19  1  0.62433299  0.61547006  -0.00008676  1
  V  V20  1  0.62533170  -0.00161449  0.13222817  1
  V  V21  1  0.12993154  0.00132113  0.62844601  1
  V  V22  1  0.38573156  0.37192240  0.00454278  1
  V  V23  1  0.74113652  0.36715635  0.62883494  1
  V  V24  1  0.00246273  0.88052965  0.85698419  1
  V  V25  1  0.64435543  0.13941747  0.48265144  1
  V  V26  1  0.88610064  0.88435342  -0.00263857  1
  V  V27  1  0.49226569  0.74267426  0.75695969  1
  V  V28  1  0.76441171  0.10807214  0.87485356  1
  V  V29  1  -0.00525810  0.86472426  0.36150591  1
  V  V30  1  -0.00664442  0.12880362  0.61319618  1
  V  V31  1  0.00086009  0.50321518  -0.01023731  1
  V  V32  1  0.13651824  0.50888191  0.63785458  1
  V  V33  1  0.37438640  0.44372164  0.37424335  1
  V  V34  1  0.23496748  0.25510418  0.00759809  1
  V  V35  1  0.17390265  0.72726479  0.36858094  1
  V  V36  1  0.76189386  0.48336574  0.25219696  1
  V  V37  1  0.87493868  0.10881644  0.74463164  1
  V  V38  1  0.50760164  0.78665419  0.26262418  1
  V  V39  1  0.25765645  0.74945550  0.00646435  1
  V  V40  1  0.60473226  0.37384723  0.24551093  1
  V  V41  1  0.49605792  0.47429485  0.49970059  1
  V  V42  1  0.87686421  0.74880003  0.12919167  1
  V  V43  1  0.50624551  0.24527251  0.75889020  1
  V  V44  1  0.38586785  0.87395673  -0.00508244  1
  V  V45  1  0.52272993  0.38178387  0.87283610  1
  V  V46  1  0.24694059  0.89252117  0.12358714  1
  V  V47  1  0.48627822  0.12754469  0.11886339  1
  V  V48  1  0.61986487  0.74712752  0.88155364  1
  V  V49  1  0.25369783  0.00993396  0.27176289  1
  V  V50  1  0.36929237  0.11439272  0.76407105  1
  V  V51  1  0.74439291  0.87537832  0.13235593  1
  V  V52  1  0.25645731  0.87095291  0.63898248  1
  V  V53  1  0.12483542  0.75288172  0.86178160  1
  V  V54  1  0.87882874  0.22494955  0.12124051  1
  V  V55  1  0.35847234  0.25423518  0.63127955  1
  V  V56  1  0.85073347  0.01026883  0.37200360  1
  V  V57  1  0.86478701  0.50864900  0.86076591  1
  V  V58  1  0.36787093  0.90184350  0.48274499  1
  V  V59  1  -0.00153070  -0.00757282  0.49116793  1
  V  V60  1  0.87603222  0.62451145  0.25895496  1
  V  V61  1  -0.00456415  0.25643434  0.76523385  1
  V  V62  1  0.00599229  0.26354363  0.24100488  1
  V  V63  1  0.63667057  0.48585386  0.11859493  1
  Zn  Zn64  1  0.19872467  0.19073610  0.20294596  1
  Zn  Zn65  1  0.18078015  0.17703187  0.69342537  1
  Zn  Zn66  1  0.20658715  0.68514773  0.18456937  1
  Zn  Zn67  1  0.06305503  0.69534515  0.67547906  1
  Zn  Zn68  1  0.68114934  0.19494938  0.16992966  1
  Zn  Zn69  1  0.68992766  0.18058154  0.69292880  1
  Zn  Zn70  1  0.68242429  0.68402035  0.19465937  1
  Zn  Zn71  1  0.64115426  0.68701977  0.67090412  1
  Zn  Zn72  1  0.31809866  0.31781101  0.17357044  1
  Zn  Zn73  1  0.33588799  0.29397125  0.84203273  1
  Zn  Zn74  1  0.33371554  0.81774954  0.29631783  1
  Zn  Zn75  1  0.30596326  0.81480813  0.81494767  1
  Zn  Zn76  1  0.81890468  0.29093248  0.30188530  1
  Zn  Zn77  1  0.82685739  0.30754256  0.81877283  1
  Zn  Zn78  1  0.80576226  0.80803796  0.31917675  1
  Zn  Zn79  1  0.81498645  0.81295896  0.81680982  1
  Zn  Zn80  1  0.19093192  0.53760137  0.43935419  1
  Zn  Zn81  1  0.20518480  0.44936371  0.96577107  1
  Zn  Zn82  1  0.18060006  0.91816867  0.43298770  1
  Zn  Zn83  1  0.20350510  0.92466374  0.91326468  1
  Zn  Zn84  1  0.67454103  0.44657444  0.42886446  1
  Zn  Zn85  1  0.69836033  0.43780657  0.92556108  1
  Zn  Zn86  1  0.68458617  0.94649717  0.46248011  1
  Zn  Zn87  1  0.69390146  0.93306767  0.94632888  1
  Zn  Zn88  1  0.30711635  0.05879959  0.02885776  1
  Zn  Zn89  1  0.34500198  0.03666887  0.59319902  1
  Zn  Zn90  1  0.31942054  0.56214494  0.05186419  1
  Zn  Zn91  1  0.33978256  0.45401899  0.58282355  1
  Zn  Zn92  1  0.80829021  0.05774101  0.05952712  1
  Zn  Zn93  1  0.80730853  0.04802746  0.56520860  1
  Zn  Zn94  1  0.81483702  0.55946219  0.06370520  1
  Zn  Zn95  1  0.85326717  0.58107488  0.51661349  1
  Zn  Zn96  1  0.43500609  0.46440840  0.17848214  1
  Zn  Zn97  1  0.44257316  0.43042133  0.70058486  1
  Zn  Zn98  1  0.42592767  0.94797944  0.18104256  1
  Zn  Zn99  1  0.43682392  0.93248968  0.71157471  1
  Zn  Zn100  1  0.93944713  0.43904950  0.17977733  1
  Zn  Zn101  1  0.93466107  0.44601485  0.66684974  1
  Zn  Zn102  1  0.91165913  0.94187628  0.19633658  1
  Zn  Zn103  1  0.93507811  0.93414321  0.67907495  1
  Zn  Zn104  1  0.08897867  -0.07658779  0.22872293  1
  Zn  Zn105  1  0.05769375  0.06107662  0.80586639  1
  Zn  Zn106  1  0.08753044  0.60904158  0.28962337  1
  Zn  Zn107  1  0.06521142  0.56912502  0.81467196  1
  Zn  Zn108  1  0.55732269  0.06491853  0.30578609  1
  Zn  Zn109  1  0.56664828  0.07082080  0.80607660  1
  Zn  Zn110  1  0.51670007  0.58460041  0.34855312  1
  Zn  Zn111  1  0.57563351  0.56490910  0.80089838  1
  Zn  Zn112  1  0.40934147  0.25208197  0.42250993  1
  Zn  Zn113  1  0.43715449  0.18757428  0.93714121  1
  Zn  Zn114  1  0.46326582  0.71111834  0.44655958  1
  Zn  Zn115  1  0.44163617  0.67996985  0.94311541  1
  Zn  Zn116  1  0.95055596  0.17365883  0.41845257  1
  Zn  Zn117  1  0.93466970  0.19380477  0.92775019  1
  Zn  Zn118  1  0.97939964  0.70271251  0.48448122  1
  Zn  Zn119  1  0.94113882  0.68943401  0.92902234  1
  Zn  Zn120  1  0.05936907  0.31380096  0.06813078  1
  Zn  Zn121  1  0.06125065  0.31428144  0.61907315  1
  Zn  Zn122  1  0.06819427  0.81616004  0.06699518  1
  Zn  Zn123  1  0.08873057  0.82623202  0.54083974  1
  Zn  Zn124  1  0.56139608  0.31060973  0.05568840  1
  Zn  Zn125  1  0.54710203  0.28981971  0.56924271  1
  Zn  Zn126  1  0.56862115  0.79445446  0.08999921  1
  Zn  Zn127  1  0.52844492  0.84606221  0.60773752  1
  O  O128  1  0.02227119  0.07381387  0.16150247  1
  O  O129  1  0.09970142  0.11563741  0.62093460  1
  O  O130  1  0.11607272  0.62554610  0.11696932  1
  O  O131  1  0.14747750  0.61547701  0.63988959  1
  O  O132  1  0.62668280  0.11072566  0.10932601  1
  O  O133  1  0.62342762  0.09143855  0.66660158  1
  O  O134  1  0.62413337  0.61679302  0.11350182  1
  O  O135  1  0.62447230  0.67035881  0.53765971  1
  O  O136  1  0.36558066  0.34514442  0.36693195  1
  O  O137  1  0.38863524  0.38754289  0.88336126  1
  O  O138  1  0.36777275  0.88400864  0.38407255  1
  O  O139  1  0.36345560  0.87843666  0.89715635  1
  O  O140  1  0.86125560  0.33192201  0.40824630  1
  O  O141  1  0.86955856  0.38686969  0.89103066  1
  O  O142  1  0.87068525  0.87761020  0.38591124  1
  O  O143  1  0.89073548  0.86438735  0.88846215  1
  O  O144  1  0.24314042  -0.00801038  0.36844463  1
  O  O145  1  0.24817727  0.02477578  0.91248883  1
  O  O146  1  0.25352582  0.48651067  0.36177505  1
  O  O147  1  0.25577882  0.49766220  0.87587463  1
  O  O148  1  0.75103846  -0.00543737  0.38751240  1
  O  O149  1  0.75285399  0.00969822  0.88174310  1
  O  O150  1  0.74828861  0.50103669  0.35492203  1
  O  O151  1  0.76218058  0.50356390  0.86260715  1
  O  O152  1  0.22850505  0.50426119  0.09904885  1
  O  O153  1  0.24033395  0.49191043  0.62294824  1
  O  O154  1  0.24436944  0.98934214  0.09982094  1
  O  O155  1  0.22648038  1.02555564  0.61118016  1
  O  O156  1  0.74421410  0.50438987  0.13611105  1
  O  O157  1  0.73306238  0.46465540  0.66040208  1
  O  O158  1  0.73992948  0.98627908  0.11845412  1
  O  O159  1  0.72877335  0.97795497  0.61740539  1
  O  O160  1  -0.00796621  0.36362018  0.24611148  1
  O  O161  1  -0.02424620  0.35278083  0.74083211  1
  O  O162  1  -0.02341535  0.86716954  0.25870736  1
  O  O163  1  -0.00934075  0.87114961  0.75861663  1
  O  O164  1  0.50839393  0.38555630  0.24180539  1
  O  O165  1  0.50789196  0.36266560  0.76512155  1
  O  O166  1  0.49934497  0.88750990  0.24414008  1
  O  O167  1  0.52205704  0.86325785  0.75916514  1
  O  O168  1  0.48542216  0.11542836  0.22961366  1
  O  O169  1  0.48232240  0.13679043  0.77387538  1
  O  O170  1  0.50893542  0.61742161  0.23730542  1
  O  O171  1  0.49306256  0.64519149  0.77805456  1
  O  O172  1  1.00475551  0.10200592  0.22890179  1
  O  O173  1  0.98821602  0.12797097  0.73711644  1
  O  O174  1  0.98623842  0.62035795  0.23804948  1
  O  O175  1  1.00572168  0.62508717  0.73993293  1
  O  O176  1  0.37265237  0.26631260  -0.00508193  1
  O  O177  1  0.38196058  0.24295210  0.53205596  1
  O  O178  1  0.36437960  0.75742123  -0.00764745  1
  O  O179  1  0.41285496  0.79156273  0.51463507  1
  O  O180  1  0.87494956  0.25909731  0.00440505  1
  O  O181  1  0.89540016  0.28761647  0.45890169  1
  O  O182  1  0.86698118  0.75126528  0.00862092  1
  O  O183  1  0.87731322  0.76487708  0.50111621  1
  O  O184  1  0.10913694  0.28443077  0.51401130  1
  O  O185  1  0.13561196  0.26611835  1.00155167  1
  O  O186  1  0.15227114  0.79572980  0.44336497  1
  O  O187  1  0.13538162  0.74460322  1.00262854  1
  O  O188  1  0.66867589  0.24894765  0.44508191  1
  O  O189  1  0.64265988  0.23814313  1.00698120  1
  O  O190  1  0.60249209  0.73017918  0.50123820  1
  O  O191  1  0.63709120  0.74079806  1.00035679  1
  O  O192  1  0.50873421  0.22487752  0.11037404  1
  O  O193  1  0.48090018  0.25562495  0.65527294  1
  O  O194  1  0.48599405  0.71621438  0.10110397  1
  O  O195  1  0.52599712  0.74093099  0.65597555  1
  O  O196  1  0.98399350  0.24831314  0.12078794  1
  O  O197  1  0.98141122  0.22630117  0.60437742  1
  O  O198  1  0.98941847  0.74145938  0.11836028  1
  O  O199  1  1.04057156  0.73333768  0.57573041  1
  O  O200  1  -0.00088864  0.22941112  0.33644629  1
  O  O201  1  0.00983692  0.24928471  0.86556038  1
  O  O202  1  -0.00147250  0.76686893  0.38585729  1
  O  O203  1  0.01665236  0.76138583  0.88246683  1
  O  O204  1  0.51874804  0.25972381  0.38115861  1
  O  O205  1  0.49384990  0.26331886  0.86882111  1
  O  O206  1  0.51885473  0.76430502  0.36151723  1
  O  O207  1  0.51668255  0.75251906  0.88598034  1
  O  O208  1  0.23593343  0.15236142  0.45899792  1
  O  O209  1  0.24384498  0.14637153  0.99539370  1
  O  O210  1  0.26186277  0.67532320  0.50998843  1
  O  O211  1  0.24487208  0.64155314  1.00729642  1
  O  O212  1  0.73675547  0.12812271  0.52160994  1
  O  O213  1  0.74774753  0.12710651  0.98890188  1
  O  O214  1  0.75768360  0.60728325  0.46914744  1
  O  O215  1  0.74706816  0.63805190  1.00957573  1
  O  O216  1  0.26559075  0.36114618  -0.00042272  1
  O  O217  1  0.18412472  0.31363124  0.50934462  1
  O  O218  1  0.25275370  0.86559970  0.00685712  1
  O  O219  1  0.26641819  0.89202037  0.51124064  1
  O  O220  1  0.75590180  0.36014025  -0.00445194  1
  O  O221  1  0.73285741  0.39245141  0.52800986  1
  O  O222  1  0.76285850  0.86188026  0.00748413  1
  O  O223  1  0.75114820  0.86430783  0.51095610  1
  O  O224  1  0.13643488  0.51464050  0.23497172  1
  O  O225  1  0.14934771  0.52061156  0.74319825  1
  O  O226  1  0.16072710  1.01514934  0.23364773  1
  O  O227  1  0.11871097  1.00126275  0.72737960  1
  O  O228  1  0.64556884  0.47725398  0.23535656  1
  O  O229  1  0.63889862  0.58390622  0.71210642  1
  O  O230  1  0.62403015  1.00660503  0.23017067  1
  O  O231  1  0.62855685  0.98094988  0.77010411  1
  O  O232  1  0.36248264  0.02420449  0.24252102  1
  O  O233  1  0.38208788  0.01469788  0.76688530  1
  O  O234  1  0.37094170  0.49024335  0.27238001  1
  O  O235  1  0.38142532  0.49585370  0.77181480  1
  O  O236  1  0.85805357  0.00388376  0.27059248  1
  O  O237  1  0.88087014  0.00931218  0.75306592  1
  O  O238  1  0.86796652  0.51351922  0.23784918  1
  O  O239  1  0.89460382  0.49205589  0.76614803  1
  O  O240  1  0.07246651  0.44197077  0.38740736  1
  O  O241  1  0.12184061  0.38370552  0.87000304  1
  O  O242  1  0.09402451  0.89645944  0.34749484  1
  O  O243  1  0.11527363  0.86494591  0.87636911  1
  O  O244  1  0.63494034  0.36633949  0.34967585  1
  O  O245  1  0.62134367  0.36496150  0.88627469  1
  O  O246  1  0.58487780  0.91741218  0.39162407  1
  O  O247  1  0.63877191  0.86000633  0.87524067  1
  O  O248  1  0.38918484  0.11689765  0.10105249  1
  O  O249  1  0.37044742  0.12858638  0.65567102  1
  O  O250  1  0.40424263  0.57790180  0.12395184  1
  O  O251  1  0.37566468  0.63672942  0.63622350  1
  O  O252  1  0.88185376  0.12604761  0.11131308  1
  O  O253  1  0.87710567  0.11131786  0.63694341  1
  O  O254  1  0.88284956  0.63299993  0.12460306  1
  O  O255  1  0.87814186  0.67647680  0.63971833  1
  O  O256  1  0.24869114  0.24577651  0.11426590  1
  O  O257  1  0.25806222  0.23785530  0.63535876  1
  O  O258  1  0.25318955  0.76127224  0.11146601  1
  O  O259  1  0.26545651  0.77653657  0.62754087  1
  O  O260  1  0.76816040  0.23945110  0.10570184  1
  O  O261  1  0.73982793  0.26022416  0.61965430  1
  O  O262  1  0.75492758  0.75870877  0.11627682  1
  O  O263  1  0.72764299  0.75848285  0.63005981  1
  O  O264  1  0.20911611  0.33553178  0.44179559  1
  O  O265  1  0.24584435  0.24191091  0.89068881  1
  O  O266  1  0.27230818  0.73435958  0.35305292  1
  O  O267  1  0.23359402  0.76090259  0.89025056  1
  O  O268  1  0.73994248  0.20576599  0.32067409  1
  O  O269  1  0.76278415  0.23703819  0.89130224  1
  O  O270  1  0.73787234  0.73033129  0.36327339  1
  O  O271  1  0.74782679  0.75062816  0.89281112  1
  O  O272  1  0.00140276  0.09942620  -0.00983870  1
  O  O273  1  -0.01588655  0.10551151  0.50550939  1
  O  O274  1  0.00805977  0.62249920  0.00672694  1
  O  O275  1  -0.04256637  0.59544759  0.48671327  1
  O  O276  1  0.50962413  0.11109160  -0.00153825  1
  O  O277  1  0.57878567  0.18216576  0.54437488  1
  O  O278  1  0.52319362  0.61291732  0.00155025  1
  O  O279  1  0.46677965  0.60130680  0.44973156  1
  O  O280  1  0.50302667  0.37240847  0.50648484  1
  O  O281  1  0.49568832  0.37175679  0.98660720  1
  O  O282  1  0.47300928  0.85469078  0.50793130  1
  O  O283  1  0.49374103  0.87953910  1.00497782  1
  O  O284  1  0.98780033  0.39180149  0.57961597  1
  O  O285  1  0.99061317  0.38590187  1.00073315  1
  O  O286  1  0.98592515  0.88089067  0.49341184  1
  O  O287  1  0.98705903  0.87261651  1.00839446  1
  O  O288  1  0.47788640  0.46710743  0.38186519  1
  O  O289  1  0.52311822  0.48461577  0.86185500  1
  O  O290  1  0.53128562  0.97002471  0.38303134  1
  O  O291  1  0.51189978  0.99644699  0.88598627  1
  O  O292  1  1.00399386  0.43808709  0.41242733  1
  O  O293  1  1.00441264  0.50450381  0.88790528  1
  O  O294  1  0.97489694  0.98870725  0.38779603  1
  O  O295  1  1.01011877  0.97967815  0.87165255  1
  O  O296  1  0.01143237  -0.01037917  0.15278375  1
  O  O297  1  0.00316565  -0.00215952  0.61022337  1
  O  O298  1  0.00710066  0.51410039  0.11434647  1
  O  O299  1  0.03158030  0.51627331  0.64394665  1
  O  O300  1  0.51408973  0.00651005  0.11220462  1
  O  O301  1  0.52117635  -0.03105976  0.63246364  1
  O  O302  1  0.53404922  0.50444057  0.12558981  1
  O  O303  1  0.45548783  0.49117940  0.59908265  1
  O  O304  1  0.25723063  0.40482763  0.21810762  1
  O  O305  1  0.16435251  0.34588970  0.82420788  1
  O  O306  1  0.26978450  0.89697950  0.23114763  1
  O  O307  1  0.25160234  0.88294764  0.74157390  1
  O  O308  1  0.77558982  0.38379005  0.25216094  1
  O  O309  1  0.74957992  0.34673524  0.73262670  1
  O  O310  1  0.75235515  0.86646406  0.23052425  1
  O  O311  1  0.74299845  0.86656071  0.74487234  1
  O  O312  1  0.26295717  0.12429547  0.26581663  1
  O  O313  1  0.25477664  0.12571872  0.77036530  1
  O  O314  1  0.26626777  0.59674078  0.22442026  1
  O  O315  1  0.33891205  0.63409918  0.69819641  1
  O  O316  1  0.74100352  0.15098933  0.26301688  1
  O  O317  1  0.76435929  0.12811814  0.76518675  1
  O  O318  1  0.75770894  0.61581696  0.25318923  1
  O  O319  1  0.84906246  0.68680697  0.70797732  1
  O  O320  1  0.39255897  0.15004541  0.36474599  1
  O  O321  1  0.35856080  0.13295422  0.87321296  1
  O  O322  1  0.28512911  0.60797477  0.48988075  1
  O  O323  1  0.37955258  0.60027515  0.89744890  1
  O  O324  1  0.86293058  0.10855604  0.39167012  1
  O  O325  1  0.87001151  0.11598952  0.87294718  1
  O  O326  1  0.87116909  0.62733866  0.35536000  1
  O  O327  1  0.88221073  0.60863807  0.87919968  1
  O  O328  1  0.11271367  0.39858059  0.12251798  1
  O  O329  1  0.12692126  0.40560910  0.64724092  1
  O  O330  1  0.14078998  0.86950491  0.13674947  1
  O  O331  1  0.14519283  0.89230798  0.61437571  1
  O  O332  1  0.62727468  0.37948656  0.12551591  1
  O  O333  1  0.63552779  0.35489862  0.62527771  1
  O  O334  1  0.63621025  0.88620815  0.11243104  1
  O  O335  1  0.63471649  0.87925784  0.64733549  1
  O  O336  1  0.10343380  0.24438742  0.21570202  1
  O  O337  1  0.09187011  0.25015987  0.71503916  1
  O  O338  1  0.13554815  0.72596449  0.26983832  1
  O  O339  1  0.12677447  0.74429879  0.76347319  1
  O  O340  1  0.62197879  0.26511279  0.24177762  1
  O  O341  1  0.60571794  0.23088232  0.75247739  1
  O  O342  1  0.59633984  0.75777935  0.20714153  1
  O  O343  1  0.62551349  0.75106422  0.77585584  1
  O  O344  1  0.37069440  0.23158295  0.23001779  1
  O  O345  1  0.37665401  0.23998124  0.75142082  1
  O  O346  1  0.41236805  0.75610024  0.24123171  1
  O  O347  1  0.39556427  0.77017545  0.76064756  1
  O  O348  1  0.88611882  0.24053779  0.22592832  1
  O  O349  1  0.88721391  0.22838970  0.75932808  1
  O  O350  1  0.86406673  0.73595815  0.23651189  1
  O  O351  1  0.88676645  0.74524942  0.75153958  1
  O  O352  1  0.35792625  0.46750415  0.47348534  1
  O  O353  1  0.36811702  0.47859885  0.98901056  1
  O  O354  1  0.38871041  1.00069437  0.49334048  1
  O  O355  1  0.39619783  0.98975566  0.99808628  1
  O  O356  1  0.86466895  0.51187676  0.60148116  1
  O  O357  1  0.88145215  0.49342530  0.99459314  1
  O  O358  1  0.87410021  0.98204074  0.49847768  1
  O  O359  1  0.87302690  0.98222367  1.00226906  1
  O  O360  1  0.06808522  0.11229721  0.01831743  1
  O  O361  1  0.10227460  -0.01090274  0.49553256  1
  O  O362  1  0.11636872  0.51407033  0.00436876  1
  O  O363  1  0.13133371  0.51455046  0.53271717  1
  O  O364  1  0.61883037  0.00367366  0.00266257  1
  O  O365  1  0.61679790  0.02803889  0.51490974  1
  O  O366  1  0.65007620  0.50843264  0.00832197  1
  O  O367  1  0.59474318  0.49758340  0.49359396  1
  O  O368  1  0.39312242  0.38058139  0.11021863  1
  O  O369  1  0.36017635  0.36041657  0.64513134  1
  O  O370  1  0.36180418  0.88218193  0.10511401  1
  O  O371  1  0.35869880  0.91549522  0.62657381  1
  O  O372  1  0.87190517  0.37853659  0.10395867  1
  O  O373  1  0.84383293  0.36253937  0.61414562  1
  O  O374  1  0.86449206  0.86850143  0.11683306  1
  O  O375  1  0.85573647  0.87373759  0.61794285  1
  O  O376  1  0.16768139  0.14839472  0.43573682  1
  O  O377  1  0.13277139  0.12479194  0.86412574  1
  O  O378  1  0.13869128  0.62829279  0.39299690  1
  O  O379  1  0.12181866  0.64008695  0.88917852  1
  O  O380  1  0.61131280  0.13348423  0.37688084  1
  O  O381  1  0.64037496  0.12162652  0.88352951  1
  O  O382  1  0.63094191  0.60995493  0.36285228  1
  O  O383  1  0.63168002  0.63673320  0.89161902  1
