# generated using pymatgen
data_VZnO4
_symmetry_space_group_name_H-M   'P 1'
_cell_length_a   16.95816058
_cell_length_b   16.93366758
_cell_length_c   16.94494719
_cell_angle_alpha   89.64046266
_cell_angle_beta   89.71237992
_cell_angle_gamma   90.40781337
_symmetry_Int_Tables_number   1
_chemical_formula_structural   VZnO4
_chemical_formula_sum   'V64 Zn64 O256'
_cell_volume   4865.69487203
_cell_formula_units_Z   64
loop_
 _symmetry_equiv_pos_site_id
 _symmetry_equiv_pos_as_xyz
  1  'x, y, z'
loop_
 _atom_site_type_symbol
 _atom_site_label
 _atom_site_symmetry_multiplicity
 _atom_site_fract_x
 _atom_site_fract_y
 _atom_site_fract_z
 _atom_site_occupancy
  V  V0  1  0.13066442  0.36910729  0.74759055  1
  V  V1  1  0.49372549  0.50829836  0.49246721  1
  V  V2  1  0.49345586  0.62879453  0.63428441  1
  V  V3  1  0.47061042  0.02308383  -0.00920011  1
  V  V4  1  -0.01438950  0.37293429  0.37579607  1
  V  V5  1  0.62187337  -0.00367005  0.61006901  1
  V  V6  1  0.75901033  0.87189598  0.11858968  1
  V  V7  1  0.11368561  0.13494067  0.00731525  1
  V  V8  1  0.62434005  0.50799504  0.13311982  1
  V  V9  1  0.87885659  0.73986770  0.11979048  1
  V  V10  1  -0.00351135  0.37302730  0.88070919  1
  V  V11  1  0.48109247  0.88371592  0.37381314  1
  V  V12  1  0.88824709  0.25539697  0.11057441  1
  V  V13  1  -0.00317840  0.25803859  0.73180765  1
  V  V14  1  0.36857911  0.48891884  0.36648845  1
  V  V15  1  0.23789114  0.14115250  0.86677313  1
  V  V16  1  0.74919276  0.77071023  0.50099717  1
  V  V17  1  0.12346717  0.86764489  0.25836450  1
  V  V18  1  0.10241117  -0.00063425  0.12758236  1
  V  V19  1  -0.00733861  0.11462122  0.62092587  1
  V  V20  1  0.25306247  0.61923553  0.87514387  1
  V  V21  1  0.75606633  0.49805406  0.26622316  1
  V  V22  1  0.25277236  0.24619531  0.49743223  1
  V  V23  1  0.25712010  0.37618381  0.61713088  1
  V  V24  1  0.87380609  -0.01180311  0.37546836  1
  V  V25  1  0.63686415  0.24865227  0.87915239  1
  V  V26  1  0.87313716  0.49569415  0.83637237  1
  V  V27  1  0.37897690  0.63649349  0.23688514  1
  V  V28  1  0.26019470  0.25850618  -0.00316197  1
  V  V29  1  0.87375191  0.11538490  0.76014965  1
  V  V30  1  0.74717592  0.60656143  0.89201097  1
  V  V31  1  0.61541361  0.76652855  0.35149481  1
  V  V32  1  -0.01964248  0.74576371  0.28151906  1
  V  V33  1  0.25954763  0.11758761  0.36502150  1
  V  V34  1  0.24246084  -0.01310955  0.75798778  1
  V  V35  1  0.50261749  0.51840822  0.00948523  1
  V  V36  1  0.11923268  0.25173843  0.35840048  1
  V  V37  1  0.38387538  0.24050707  0.61488555  1
  V  V38  1  0.65382249  0.12373557  0.00368034  1
  V  V39  1  0.37476867  0.75175590  0.59172193  1
  V  V40  1  0.23400921  0.50015694  0.24714146  1
  V  V41  1  0.11451252  0.49977146  0.60931880  1
  V  V42  1  0.89008369  0.13528313  0.25752043  1
  V  V43  1  0.51860633  0.37804390  0.37108300  1
  V  V44  1  0.23978931  0.63876066  0.38242777  1
  V  V45  1  0.50972617  0.26476651  0.74360056  1
  V  V46  1  0.74734413  -0.00700604  0.77176797  1
  V  V47  1  0.74721394  0.36765723  0.12164423  1
  V  V48  1  0.24800772  0.87182410  0.60658362  1
  V  V49  1  -0.00118976  -0.01937652  0.49327955  1
  V  V50  1  0.49895201  0.37100075  0.90647300  1
  V  V51  1  0.48099923  0.01173515  0.50082604  1
  V  V52  1  0.74331196  -0.00261394  0.24954897  1
  V  V53  1  -0.01461142  0.72893184  0.76966004  1
  V  V54  1  0.61678918  0.64359755  0.48740220  1
  V  V55  1  0.38737431  0.12086009  0.75889924  1
  V  V56  1  0.25858969  0.36866862  0.13213532  1
  V  V57  1  0.00617499  0.88310272  0.88258559  1
  V  V58  1  0.87230694  0.50611690  0.39212928  1
  V  V59  1  0.75230237  0.23969489  0.50689582  1
  V  V60  1  0.26310741  -0.00145940  0.23982206  1
  V  V61  1  0.48153859  0.24913009  0.25545889  1
  V  V62  1  0.11152386  0.49435934  0.10748313  1
  V  V63  1  0.12353300  0.11967212  0.50387709  1
  Zn  Zn64  1  0.18901571  0.18286004  0.17988261  1
  Zn  Zn65  1  0.18522645  0.19065417  0.68450497  1
  Zn  Zn66  1  0.13655946  0.66265135  0.21057171  1
  Zn  Zn67  1  0.21267723  0.67307843  0.67439230  1
  Zn  Zn68  1  0.71567219  0.16670336  0.17195002  1
  Zn  Zn69  1  0.68118952  0.16720008  0.69618206  1
  Zn  Zn70  1  0.69716467  0.68526213  0.19259938  1
  Zn  Zn71  1  0.73156239  0.86471373  0.63747061  1
  Zn  Zn72  1  0.30772216  0.30905843  0.31157948  1
  Zn  Zn73  1  0.33816114  0.34496034  0.79071643  1
  Zn  Zn74  1  0.30424067  0.81358776  0.30545518  1
  Zn  Zn75  1  0.17516251  0.80701268  0.81246242  1
  Zn  Zn76  1  0.80285221  0.31588371  0.30911655  1
  Zn  Zn77  1  0.82722220  0.29983849  0.81048701  1
  Zn  Zn78  1  0.80491539  0.81137275  0.31941037  1
  Zn  Zn79  1  0.80647067  0.79622324  0.81465783  1
  Zn  Zn80  1  0.18693431  0.43163919  0.43433761  1
  Zn  Zn81  1  0.18257104  0.43168752  0.93590053  1
  Zn  Zn82  1  0.18691567  0.93850853  0.43046802  1
  Zn  Zn83  1  0.16019731  0.96069686  0.92231942  1
  Zn  Zn84  1  0.68614577  0.44514513  0.46963037  1
  Zn  Zn85  1  0.68764226  0.43422150  0.94326512  1
  Zn  Zn86  1  0.67751030  0.93990759  0.42671152  1
  Zn  Zn87  1  0.84133691  0.93620231  0.94463899  1
  Zn  Zn88  1  0.27267204  0.04218814  0.03989869  1
  Zn  Zn89  1  0.30350703  0.06449705  0.57045042  1
  Zn  Zn90  1  0.31339188  0.55367092  0.06546450  1
  Zn  Zn91  1  0.31576848  0.56648542  0.55295853  1
  Zn  Zn92  1  0.83142092  0.06478632  0.07272041  1
  Zn  Zn93  1  0.81383502  0.04295884  0.56689431  1
  Zn  Zn94  1  0.79829037  0.56986232  0.08534591  1
  Zn  Zn95  1  0.80771807  0.57743333  0.54753588  1
  Zn  Zn96  1  0.43935378  0.43645796  0.18787442  1
  Zn  Zn97  1  0.43569625  0.44028088  0.67566967  1
  Zn  Zn98  1  0.44603119  0.92407200  0.17060953  1
  Zn  Zn99  1  0.41036746  0.95476866  0.66148411  1
  Zn  Zn100  1  0.93809053  0.42463771  0.20264075  1
  Zn  Zn101  1  0.94054092  0.58173266  0.65801724  1
  Zn  Zn102  1  0.93388747  0.92755485  0.20166320  1
  Zn  Zn103  1  0.90272451  0.90059076  0.73993328  1
  Zn  Zn104  1  0.06332885  0.06359832  0.31420057  1
  Zn  Zn105  1  0.06639209  0.06528152  0.80502876  1
  Zn  Zn106  1  0.05142422  0.56091373  0.32426537  1
  Zn  Zn107  1  0.06430650  0.54753131  0.79999842  1
  Zn  Zn108  1  0.53518861  0.03537785  0.28729140  1
  Zn  Zn109  1  0.56962132  0.05106209  0.83492109  1
  Zn  Zn110  1  0.56191406  0.56889931  0.30431176  1
  Zn  Zn111  1  0.55773599  0.54937953  0.81730664  1
  Zn  Zn112  1  0.46483053  0.16309470  0.40288536  1
  Zn  Zn113  1  0.43607245  0.19578097  0.92727501  1
  Zn  Zn114  1  0.43294357  0.68798803  0.41051983  1
  Zn  Zn115  1  0.44608910  0.69487731  0.93768071  1
  Zn  Zn116  1  0.93945635  0.18261668  0.43138123  1
  Zn  Zn117  1  0.93928613  0.19364379  0.93229672  1
  Zn  Zn118  1  0.92542052  0.68581418  0.46816502  1
  Zn  Zn119  1  0.90686215  0.68747245  0.92899674  1
  Zn  Zn120  1  0.07072655  0.31706992  0.06954884  1
  Zn  Zn121  1  0.06654936  0.31132868  0.55534845  1
  Zn  Zn122  1  0.02838913  0.83414809  0.08338361  1
  Zn  Zn123  1  0.04153448  0.86436401  0.64615425  1
  Zn  Zn124  1  0.57601339  0.29710252  0.07477203  1
  Zn  Zn125  1  0.55410764  0.31328912  0.54698467  1
  Zn  Zn126  1  0.61583807  0.95657031  0.07638600  1
  Zn  Zn127  1  0.55125022  0.82437468  0.56315170  1
  O  O128  1  0.11819119  0.11940251  0.11505818  1
  O  O129  1  0.12397173  0.12549795  0.60800185  1
  O  O130  1  0.13001029  0.59502775  0.12342057  1
  O  O131  1  0.15387378  0.59098764  0.63083619  1
  O  O132  1  0.63275780  0.13078239  0.10484729  1
  O  O133  1  0.61653135  0.09265464  0.64330723  1
  O  O134  1  0.63847851  0.60714444  0.12598317  1
  O  O135  1  0.59041561  0.63254693  0.59887228  1
  O  O136  1  0.37086722  0.38745233  0.37083299  1
  O  O137  1  0.40119517  0.35846788  0.88314448  1
  O  O138  1  0.38182246  0.87486432  0.36641312  1
  O  O139  1  0.31038282  0.85062878  0.95265978  1
  O  O140  1  0.88280407  0.36900828  0.37591768  1
  O  O141  1  0.88550752  0.38411629  0.85787608  1
  O  O142  1  0.88005229  0.88973283  0.36847958  1
  O  O143  1  0.89171727  0.87155875  0.86277965  1
  O  O144  1  0.24542438  0.01135844  0.35922481  1
  O  O145  1  0.24572076  0.01812362  0.86382691  1
  O  O146  1  0.25653935  0.49312891  0.36179078  1
  O  O147  1  0.26083156  0.51250817  0.87670644  1
  O  O148  1  0.76405128  -0.00477512  0.36699264  1
  O  O149  1  0.76315560  -0.01227427  0.86831379  1
  O  O150  1  0.75770374  0.48318157  0.37483291  1
  O  O151  1  0.76704620  0.49014389  0.86768253  1
  O  O152  1  0.24273206  0.48919656  0.13437877  1
  O  O153  1  0.26923762  0.47517315  0.61328112  1
  O  O154  1  0.23157318  1.01343477  0.14114164  1
  O  O155  1  0.26947496  0.97797884  0.64221578  1
  O  O156  1  0.74243690  0.48869056  0.14216493  1
  O  O157  1  0.73814274  0.49404072  0.55894727  1
  O  O158  1  0.76574985  0.98926488  0.13924048  1
  O  O159  1  0.73622940  0.98893595  0.63033561  1
  O  O160  1  0.00897473  0.37104720  0.27575360  1
  O  O161  1  0.00872021  0.35958941  0.73202845  1
  O  O162  1  0.01269448  0.85260504  0.25534619  1
  O  O163  1  0.01236891  0.84566256  0.77445546  1
  O  O164  1  0.49651076  0.36696283  0.26444048  1
  O  O165  1  0.51033903  0.36426650  0.73680197  1
  O  O166  1  0.49989885  0.92238049  0.26860488  1
  O  O167  1  0.43253492  0.84600880  0.82619470  1
  O  O168  1  0.50275859  0.14699055  0.29055072  1
  O  O169  1  0.48778785  0.12298985  0.76457447  1
  O  O170  1  0.47856675  0.62643930  0.25294613  1
  O  O171  1  0.50355146  0.60478181  0.73164125  1
  O  O172  1  0.99035924  0.12477402  0.25046376  1
  O  O173  1  0.99772262  0.12599445  0.73437346  1
  O  O174  1  1.02652712  0.65315786  0.25823962  1
  O  O175  1  0.99933699  0.62461077  0.74867781  1
  O  O176  1  0.35802309  0.24433844  -0.00248416  1
  O  O177  1  0.36824602  0.23423301  0.51289620  1
  O  O178  1  0.44162756  0.79072416  0.00452657  1
  O  O179  1  0.37754549  0.75405935  0.49406205  1
  O  O180  1  0.87917868  0.24879857  0.01082948  1
  O  O181  1  0.85740334  0.23205552  0.50689067  1
  O  O182  1  0.87605812  0.74266516  0.01887930  1
  O  O183  1  0.84488797  0.76583669  0.47304876  1
  O  O184  1  0.13831810  0.23658579  0.49308753  1
  O  O185  1  0.13542082  0.23911999  1.00780443  1
  O  O186  1  0.10733557  0.72140422  0.51257751  1
  O  O187  1  0.18576240  0.75667050  1.05207356  1
  O  O188  1  0.64772742  0.24153819  0.50151638  1
  O  O189  1  0.62914968  0.23896236  0.98762346  1
  O  O190  1  0.61112955  0.75048527  0.49203950  1
  O  O191  1  0.61252940  0.82898928  0.94481534  1
  O  O192  1  0.52149136  0.25003253  0.16356649  1
  O  O193  1  0.49252350  0.25238894  0.62491288  1
  O  O194  1  0.41896893  0.77689369  0.08093236  1
  O  O195  1  0.48085122  0.74197229  0.62408031  1
  O  O196  1  0.98741158  0.26383828  0.12555884  1
  O  O197  1  1.00593551  0.23603658  0.62696609  1
  O  O198  1  0.98386795  0.74787797  0.14064126  1
  O  O199  1  1.06707639  0.74340683  0.68525756  1
  O  O200  1  0.01444567  0.25186979  0.37737139  1
  O  O201  1  -0.00898041  0.26707232  0.85304240  1
  O  O202  1  -0.01454190  0.74206937  0.38113505  1
  O  O203  1  -0.00355980  0.72945851  0.87240042  1
  O  O204  1  0.49903805  0.27270005  0.37522275  1
  O  O205  1  0.51142274  0.25980192  0.85998098  1
  O  O206  1  0.50061927  0.77319639  0.36658933  1
  O  O207  1  0.55128539  0.71831495  0.86928118  1
  O  O208  1  0.23947579  0.12387576  0.49259750  1
  O  O209  1  0.23952538  0.13777121  0.98544421  1
  O  O210  1  0.25149613  0.62366974  0.48192952  1
  O  O211  1  0.24944930  0.61517764  0.98113282  1
  O  O212  1  0.75464911  0.13357006  0.50195120  1
  O  O213  1  0.75286991  0.12019394  1.00207471  1
  O  O214  1  0.71934858  0.64482453  0.49435058  1
  O  O215  1  0.74517928  0.60130351  0.99157329  1
  O  O216  1  0.24886349  0.36271667  -0.00146160  1
  O  O217  1  0.24989873  0.35721110  0.50832153  1
  O  O218  1  0.25763130  0.88719682  -0.01335990  1
  O  O219  1  0.24917689  0.88568372  0.50825869  1
  O  O220  1  0.75957962  0.38947330  0.02272472  1
  O  O221  1  0.76419310  0.34035802  0.52644279  1
  O  O222  1  0.76784478  0.88230087  0.01823108  1
  O  O223  1  0.73289583  0.87259693  0.50118377  1
  O  O224  1  0.13511635  0.49472915  0.25392830  1
  O  O225  1  0.12268587  0.47333316  0.73106141  1
  O  O226  1  0.11923617  0.99231804  0.24041194  1
  O  O227  1  0.14530345  1.00655874  0.74207728  1
  O  O228  1  0.62499103  0.49662420  0.24093256  1
  O  O229  1  0.62917867  0.47425618  0.73190882  1
  O  O230  1  0.64465751  1.01399360  0.25363525  1
  O  O231  1  0.64546917  0.99584951  0.76761632  1
  O  O232  1  0.36033629  -0.00747891  0.22464796  1
  O  O233  1  0.36563261  0.01719191  0.74939325  1
  O  O234  1  0.36721067  0.50461135  0.25629898  1
  O  O235  1  0.36775700  0.45311604  0.76077556  1
  O  O236  1  0.88132307  0.00696794  0.26469770  1
  O  O237  1  0.87352335  0.01230609  0.74826434  1
  O  O238  1  0.86132906  0.49405107  0.26309503  1
  O  O239  1  0.87262626  0.51524897  0.73938398  1
  O  O240  1  0.13776486  0.35114835  0.37246120  1
  O  O241  1  0.11220479  0.38055075  0.85453424  1
  O  O242  1  0.12830378  0.87468817  0.35801541  1
  O  O243  1  0.11674181  0.86302196  0.88809318  1
  O  O244  1  0.61611369  0.38866337  0.38189511  1
  O  O245  1  0.61376298  0.35969447  0.88457960  1
  O  O246  1  0.60796503  0.87169560  0.36610957  1
  O  O247  1  0.62652467  0.85531611  0.87861018  1
  O  O248  1  0.36566241  0.14574437  0.12316361  1
  O  O249  1  0.36550185  0.13725742  0.64396424  1
  O  O250  1  0.36461284  0.62166704  0.13735306  1
  O  O251  1  0.37750877  0.64134967  0.61786948  1
  O  O252  1  0.87266016  0.14877646  0.14027459  1
  O  O253  1  0.89052076  0.11426288  0.62643888  1
  O  O254  1  0.86410399  0.64014941  0.14040326  1
  O  O255  1  0.89729077  0.63672155  0.57033440  1
  O  O256  1  0.24873289  0.26041169  0.11465444  1
  O  O257  1  0.25781093  0.24941851  0.61346333  1
  O  O258  1  0.25420809  0.75127000  0.07470555  1
  O  O259  1  0.26562784  0.75718794  0.61986421  1
  O  O260  1  0.75809170  0.26280071  0.12890711  1
  O  O261  1  0.74217427  0.22595066  0.61142822  1
  O  O262  1  0.76563456  0.76199858  0.14062549  1
  O  O263  1  0.74719225  0.75650286  0.60232025  1
  O  O264  1  0.24522057  0.23655652  0.38019084  1
  O  O265  1  0.24615045  0.24495343  0.88332548  1
  O  O266  1  0.24539628  0.73813059  0.37036611  1
  O  O267  1  0.23198886  0.72123073  0.87744340  1
  O  O268  1  0.75282299  0.25321956  0.40497286  1
  O  O269  1  0.73395658  0.26034568  0.85786505  1
  O  O270  1  0.71902555  0.76356592  0.38065775  1
  O  O271  1  0.77003989  0.70584160  0.86898669  1
  O  O272  1  0.01718459  0.13222494  -0.01226831  1
  O  O273  1  0.01153999  0.13169342  0.50771643  1
  O  O274  1  -0.03418105  0.58267049  0.01425790  1
  O  O275  1  0.06393570  0.66317667  0.51053255  1
  O  O276  1  0.49100909  0.12377806  -0.00445633  1
  O  O277  1  0.49847692  0.11294442  0.49704094  1
  O  O278  1  0.50876060  0.61706251  -0.00836278  1
  O  O279  1  0.49000379  0.62067507  0.48995879  1
  O  O280  1  0.49589999  0.39561285  0.48431088  1
  O  O281  1  0.50003694  0.35463194  1.00502067  1
  O  O282  1  0.49526586  0.88950773  0.48338855  1
  O  O283  1  0.50171248  0.96731428  1.07977793  1
  O  O284  1  1.01367046  0.36851163  0.47675813  1
  O  O285  1  1.00556335  0.36644503  0.97750564  1
  O  O286  1  1.01606185  0.88658823  0.49959735  1
  O  O287  1  0.99540928  0.86528954  0.98263580  1
  O  O288  1  0.48649968  0.49310542  0.37008544  1
  O  O289  1  0.51202864  0.48035917  0.89832190  1
  O  O290  1  0.49930818  0.99881619  0.39341143  1
  O  O291  1  0.49352698  0.99168109  0.89631043  1
  O  O292  1  0.98208381  0.48759771  0.37373666  1
  O  O293  1  0.98668791  0.48304033  0.85810158  1
  O  O294  1  0.99354404  1.00286307  0.38759792  1
  O  O295  1  1.01613917  0.98336922  0.86883196  1
  O  O296  1  0.00339711  -0.00103929  0.12896669  1
  O  O297  1  0.00849921  0.01404660  0.60402818  1
  O  O298  1  0.01568033  0.47710314  0.13569112  1
  O  O299  1  0.01554654  0.50596751  0.61592232  1
  O  O300  1  0.42573793  0.11316040  0.14605063  1
  O  O301  1  0.50513649  -0.00976738  0.60876267  1
  O  O302  1  0.51382387  0.49807565  0.12249336  1
  O  O303  1  0.47970030  0.51371658  0.60090440  1
  O  O304  1  0.25264957  0.38138066  0.23894109  1
  O  O305  1  0.23635330  0.35469563  0.73414079  1
  O  O306  1  0.23965983  0.89424058  0.25039923  1
  O  O307  1  0.24856081  0.88607991  0.76966725  1
  O  O308  1  0.74487199  0.38601413  0.24433976  1
  O  O309  1  0.75773701  0.36443846  0.72129811  1
  O  O310  1  0.75892116  0.89192189  0.24869513  1
  O  O311  1  0.77383048  0.88551216  0.74620809  1
  O  O312  1  0.24979080  0.11773945  0.25852211  1
  O  O313  1  0.25007136  0.13180175  0.75943783  1
  O  O314  1  0.24876122  0.60645750  0.25326103  1
  O  O315  1  0.26907833  0.62213222  0.77152272  1
  O  O316  1  0.77337030  0.10400402  0.24641245  1
  O  O317  1  0.76569621  0.10955110  0.74871594  1
  O  O318  1  0.74053132  0.59852539  0.25807203  1
  O  O319  1  0.67299180  0.51819475  0.69210523  1
  O  O320  1  0.35598983  0.12653734  0.37995309  1
  O  O321  1  0.35877060  0.13630130  0.86023231  1
  O  O322  1  0.35655545  0.61601849  0.35781113  1
  O  O323  1  0.35682087  0.63617379  0.88743676  1
  O  O324  1  0.88006870  0.11247291  0.36592855  1
  O  O325  1  0.88514830  0.12664025  0.85802337  1
  O  O326  1  0.87652619  0.60566053  0.39417823  1
  O  O327  1  0.86885572  0.59115573  0.88171855  1
  O  O328  1  0.14540837  0.38448196  0.12069464  1
  O  O329  1  0.13956319  0.37640053  0.62468151  1
  O  O330  1  0.11664276  0.89349591  0.12942857  1
  O  O331  1  0.15098559  0.87095843  0.63103630  1
  O  O332  1  0.64167942  0.37599040  0.12791608  1
  O  O333  1  0.63744670  0.38374172  0.56283491  1
  O  O334  1  0.65600563  0.87025945  0.12927734  1
  O  O335  1  0.61549469  0.88785974  0.63348224  1
  O  O336  1  0.13149030  0.23893689  0.26061169  1
  O  O337  1  0.11003913  0.25556603  0.74288977  1
  O  O338  1  0.14612496  0.77226665  0.23440196  1
  O  O339  1  0.13134398  0.72772761  0.74026581  1
  O  O340  1  0.66050821  0.22661464  0.28017619  1
  O  O341  1  0.61180683  0.23915698  0.75216406  1
  O  O342  1  0.62313237  0.74953114  0.25417056  1
  O  O343  1  0.56551560  0.76160724  0.81061157  1
  O  O344  1  0.38189450  0.24961406  0.24820430  1
  O  O345  1  0.39510874  0.24465190  0.74122787  1
  O  O346  1  0.36043888  0.73536781  0.24632334  1
  O  O347  1  0.40187314  0.77946647  0.83432472  1
  O  O348  1  0.87035616  0.23556554  0.26523006  1
  O  O349  1  0.88850909  0.23304021  0.73921774  1
  O  O350  1  0.88033460  0.74469088  0.26261583  1
  O  O351  1  0.88933454  0.73967055  0.74650356  1
  O  O352  1  0.38062431  0.50870563  0.47388425  1
  O  O353  1  0.40233903  0.50238198  1.01321021  1
  O  O354  1  0.38082358  1.00567783  0.51142794  1
  O  O355  1  0.37091371  1.01138205  1.00048216  1
  O  O356  1  0.86837882  0.48300813  0.48859118  1
  O  O357  1  0.92009058  0.52703719  1.02893659  1
  O  O358  1  0.88789814  0.99882466  0.49003936  1
  O  O359  1  0.89707204  1.01266297  1.00188438  1
  O  O360  1  0.13745812  0.01710477  0.01710782  1
  O  O361  1  0.11487073  0.01495278  0.48689176  1
  O  O362  1  0.11549397  0.48928214  0.00550223  1
  O  O363  1  0.13427086  0.49066627  0.51021515  1
  O  O364  1  0.62239217  0.02462224  -0.01255969  1
  O  O365  1  0.62328865  0.00373747  0.50801084  1
  O  O366  1  0.61493080  0.48911516  0.01954157  1
  O  O367  1  0.59809177  0.52671989  0.47825942  1
  O  O368  1  0.35782659  0.38375277  0.12251995  1
  O  O369  1  0.36415900  0.35127654  0.62807185  1
  O  O370  1  0.38322816  0.83792175  0.11395935  1
  O  O371  1  0.36805369  0.85492456  0.62866244  1
  O  O372  1  0.86568691  0.36012661  0.13979356  1
  O  O373  1  0.79488083  0.40410686  0.67121540  1
  O  O374  1  0.87390118  0.85910114  0.13538381  1
  O  O375  1  0.93326515  0.87258671  0.63646610  1
  O  O376  1  0.13237083  0.13383322  0.38348254  1
  O  O377  1  0.13310736  0.12571605  0.88175256  1
  O  O378  1  0.14133832  0.61419063  0.36921086  1
  O  O379  1  0.14991727  0.60063222  0.86525393  1
  O  O380  1  0.64412259  0.17483265  0.33013754  1
  O  O381  1  0.62577468  0.14134342  0.88213594  1
  O  O382  1  0.60116742  0.65025612  0.37969872  1
  O  O383  1  0.65332348  0.59442881  0.85521084  1
