# generated using pymatgen
data_VZnO4
_symmetry_space_group_name_H-M   'P 1'
_cell_length_a   17.03372307
_cell_length_b   17.04186573
_cell_length_c   17.04043175
_cell_angle_alpha   89.54378515
_cell_angle_beta   89.50270067
_cell_angle_gamma   90.18305059
_symmetry_Int_Tables_number   1
_chemical_formula_structural   VZnO4
_chemical_formula_sum   'V64 Zn64 O256'
_cell_volume   4946.23647778
_cell_formula_units_Z   64
loop_
 _symmetry_equiv_pos_site_id
 _symmetry_equiv_pos_as_xyz
  1  'x, y, z'
loop_
 _atom_site_type_symbol
 _atom_site_label
 _atom_site_symmetry_multiplicity
 _atom_site_fract_x
 _atom_site_fract_y
 _atom_site_fract_z
 _atom_site_occupancy
  V  V0  1  0.73979817  0.01658741  0.25302016  1
  V  V1  1  0.25802218  0.75106152  -0.01136278  1
  V  V2  1  0.73951844  0.25063007  0.49184591  1
  V  V3  1  -0.00846997  0.12956390  0.13126395  1
  V  V4  1  0.03704154  0.49843653  0.01367975  1
  V  V5  1  0.77000866  0.75616583  0.49659344  1
  V  V6  1  0.74001507  0.51877387  0.72151746  1
  V  V7  1  0.24484238  0.35119833  0.60645788  1
  V  V8  1  0.87103789  0.24843204  0.63631842  1
  V  V9  1  0.49959554  0.51054487  0.00873248  1
  V  V10  1  0.38256724  0.12907240  0.24648153  1
  V  V11  1  0.36535884  0.15314097  0.74169575  1
  V  V12  1  0.37319769  0.77356421  0.61942388  1
  V  V13  1  0.63238727  0.09591929  0.49122912  1
  V  V14  1  0.13949458  0.40554880  0.74616605  1
  V  V15  1  0.51001830  0.76858667  0.25715559  1
  V  V16  1  0.35263761  0.63809823  0.74321965  1
  V  V17  1  0.50993081  0.12797566  0.61646955  1
  V  V18  1  0.73678594  0.84416134  0.13468107  1
  V  V19  1  -0.00786766  0.12214506  0.63253171  1
  V  V20  1  -0.04637140  0.41848913  0.32920049  1
  V  V21  1  0.25310222  0.12430362  0.38795883  1
  V  V22  1  0.12538978  0.64371343  0.48616403  1
  V  V23  1  0.25351431  0.87925951  0.12094983  1
  V  V24  1  0.03012743  -0.01906948  -0.02510717  1
  V  V25  1  0.88428516  0.75370592  0.63741068  1
  V  V26  1  0.87452312  0.88861331  0.01258056  1
  V  V27  1  0.75261518  0.60275176  0.37858362  1
  V  V28  1  0.87060124  0.37907020  0.50465229  1
  V  V29  1  0.50544438  0.63971188  0.63870976  1
  V  V30  1  0.20457613  0.87584916  0.59466790  1
  V  V31  1  0.00397084  0.62327550  0.62769562  1
  V  V32  1  0.84770356  0.48479052  0.85426163  1
  V  V33  1  0.12856713  0.13709951  0.00924702  1
  V  V34  1  0.25692443  0.39911927  0.13500970  1
  V  V35  1  0.37239055  0.38364399  -0.00494463  1
  V  V36  1  0.61247027  0.75311123  0.86420638  1
  V  V37  1  0.24570950  -0.01277440  0.77817340  1
  V  V38  1  0.62298995  0.64332789  0.50080103  1
  V  V39  1  0.50283083  0.01563759  0.00291972  1
  V  V40  1  0.76189511  0.72957396  -0.00491338  1
  V  V41  1  0.25506896  -0.00809320  0.25734429  1
  V  V42  1  0.51463332  0.87786608  0.39198243  1
  V  V43  1  0.60523247  0.63572447  0.02541396  1
  V  V44  1  0.25226366  0.14044063  0.88045406  1
  V  V45  1  0.75290570  0.11365442  0.88354115  1
  V  V46  1  0.55319214  0.45815116  0.67303221  1
  V  V47  1  0.37836135  0.62567807  0.25618385  1
  V  V48  1  -0.00234007  0.23693974  0.25951128  1
  V  V49  1  0.36272931  0.52478037  0.87415283  1
  V  V50  1  0.25481933  0.25532696  0.02397962  1
  V  V51  1  0.50106227  0.26799999  0.25954522  1
  V  V52  1  0.49941151  0.50327322  0.48224617  1
  V  V53  1  -0.03509692  -0.00011910  0.49553615  1
  V  V54  1  0.01816212  0.48867080  0.49809158  1
  V  V55  1  0.12793837  0.25034744  0.38825290  1
  V  V56  1  0.12288377  0.00231767  0.13716924  1
  V  V57  1  0.75274916  0.34698343  0.11172699  1
  V  V58  1  0.26116644  0.63070324  0.38023659  1
  V  V59  1  0.13289260  0.37299834  0.25279635  1
  V  V60  1  0.12324981  0.11096169  0.50769836  1
  V  V61  1  0.37468359  -0.01178721  0.39597918  1
  V  V62  1  -0.00122140  0.73744490  0.24590472  1
  V  V63  1  0.38280900  0.75786164  0.13101481  1
  Zn  Zn64  1  0.19114094  0.18346664  0.20104928  1
  Zn  Zn65  1  0.17394777  0.18572335  0.69049276  1
  Zn  Zn66  1  0.20191913  0.69220546  0.18753725  1
  Zn  Zn67  1  0.19291592  0.68954631  0.65422003  1
  Zn  Zn68  1  0.68358245  0.18043271  0.20002972  1
  Zn  Zn69  1  0.68932051  0.18043078  0.68669010  1
  Zn  Zn70  1  0.73150281  0.63543244  0.17040332  1
  Zn  Zn71  1  0.69540966  0.70876043  0.68341913  1
  Zn  Zn72  1  0.30828305  0.30008099  0.30840697  1
  Zn  Zn73  1  0.28230642  0.32345717  0.82344888  1
  Zn  Zn74  1  0.31372226  0.80785595  0.32316988  1
  Zn  Zn75  1  0.35379851  0.83012586  0.81436670  1
  Zn  Zn76  1  0.80967025  0.30533465  0.31241800  1
  Zn  Zn77  1  0.95307781  0.32737332  0.80572665  1
  Zn  Zn78  1  0.80865836  0.79644747  0.31956793  1
  Zn  Zn79  1  0.92594917  0.81867786  0.82288256  1
  Zn  Zn80  1  0.20364913  0.44348097  0.43073924  1
  Zn  Zn81  1  0.16737352  0.47103066  0.92116810  1
  Zn  Zn82  1  0.15963543  0.93632846  0.42032946  1
  Zn  Zn83  1  0.20051359  0.94299863  0.94723251  1
  Zn  Zn84  1  0.69379722  0.45746892  0.51788220  1
  Zn  Zn85  1  0.70145733  0.55771465  0.91292070  1
  Zn  Zn86  1  0.70581706  0.93153296  0.42794122  1
  Zn  Zn87  1  0.74512315  0.89244160  0.89337663  1
  Zn  Zn88  1  0.31530861  0.06540278  0.06820889  1
  Zn  Zn89  1  0.31099157  0.05448463  0.58271611  1
  Zn  Zn90  1  0.31361534  0.57302969  0.06873581  1
  Zn  Zn91  1  0.31474707  0.56281596  0.55566673  1
  Zn  Zn92  1  0.80218531  0.05492900  0.09359155  1
  Zn  Zn93  1  0.80537115  0.07089459  0.56841188  1
  Zn  Zn94  1  0.85586072  0.58470792  0.02825087  1
  Zn  Zn95  1  0.81766252  0.57220897  0.56239385  1
  Zn  Zn96  1  0.43865582  0.44241530  0.19050315  1
  Zn  Zn97  1  0.36727920  0.43556094  0.69204200  1
  Zn  Zn98  1  0.43429286  0.93870524  0.19941710  1
  Zn  Zn99  1  0.41936849  0.96224730  0.69690419  1
  Zn  Zn100  1  0.89148650  0.48904200  0.15795949  1
  Zn  Zn101  1  0.93467935  0.44225482  0.67541173  1
  Zn  Zn102  1  0.89814653  0.91115812  0.21077669  1
  Zn  Zn103  1  0.99279520  0.91472308  0.66188075  1
  Zn  Zn104  1  0.06176660  0.05548831  0.31967435  1
  Zn  Zn105  1  0.06662724  -0.04010639  0.80630539  1
  Zn  Zn106  1  0.11109385  0.57669632  0.28180492  1
  Zn  Zn107  1  0.02750885  0.52024648  0.79934842  1
  Zn  Zn108  1  0.56157006  0.05010448  0.31297125  1
  Zn  Zn109  1  0.56179460  0.08341507  0.79801381  1
  Zn  Zn110  1  0.56174521  0.60094578  0.32236430  1
  Zn  Zn111  1  0.54750417  0.56903878  0.82353505  1
  Zn  Zn112  1  0.46328137  0.16229454  0.42003942  1
  Zn  Zn113  1  0.41961992  0.19296408  0.94125904  1
  Zn  Zn114  1  0.43491860  0.70002655  0.44328545  1
  Zn  Zn115  1  0.43344921  0.69780853  0.93696694  1
  Zn  Zn116  1  0.93918836  0.19361145  0.44874895  1
  Zn  Zn117  1  0.96427680  0.12609879  0.83699967  1
  Zn  Zn118  1  0.93289519  0.66771894  0.43392678  1
  Zn  Zn119  1  0.95741517  0.64660741  0.91173728  1
  Zn  Zn120  1  0.06368943  0.31790398  0.07447399  1
  Zn  Zn121  1  0.06192854  0.31147604  0.57263191  1
  Zn  Zn122  1  0.06076425  0.80498763  -0.05468071  1
  Zn  Zn123  1  0.03653326  0.81304775  0.53992832  1
  Zn  Zn124  1  0.53843563  0.31540262  0.06933243  1
  Zn  Zn125  1  0.54437083  0.31289514  0.55576633  1
  Zn  Zn126  1  0.55791951  0.81977388  0.05770632  1
  Zn  Zn127  1  0.56513908  0.81653037  0.57214626  1
  O  O128  1  0.13962395  0.11496991  0.12319250  1
  O  O129  1  0.10882130  0.12942194  0.61278597  1
  O  O130  1  0.12849526  0.61169904  0.17574050  1
  O  O131  1  0.11542404  0.63100885  0.59833908  1
  O  O132  1  0.70103331  0.10893392  0.11833916  1
  O  O133  1  0.61408148  0.11632290  0.61637420  1
  O  O134  1  0.61567196  0.62806866  0.12284224  1
  O  O135  1  0.60743694  0.64458728  0.62876448  1
  O  O136  1  0.36509718  0.34753035  0.41063798  1
  O  O137  1  0.35472388  0.39347988  0.89429522  1
  O  O138  1  0.36792717  0.88831337  0.38187274  1
  O  O139  1  0.43340338  0.90364311  0.79091639  1
  O  O140  1  0.88495464  0.36444738  0.38915899  1
  O  O141  1  0.88541552  0.39346753  0.86877124  1
  O  O142  1  0.88416801  0.87853423  0.31912056  1
  O  O143  1  0.85944745  0.86973233  0.90555959  1
  O  O144  1  0.25473109  0.00406472  0.36943419  1
  O  O145  1  0.25048245  0.02057268  0.87996275  1
  O  O146  1  0.25933077  0.52501890  0.38178634  1
  O  O147  1  0.26535070  0.52224032  0.89694086  1
  O  O148  1  0.76351045  -0.02754586  0.34043947  1
  O  O149  1  0.75603712  0.00557253  0.87640789  1
  O  O150  1  0.73220433  0.50893910  0.41131556  1
  O  O151  1  0.73651869  0.48753322  0.82848358  1
  O  O152  1  0.25376607  0.49693841  0.13618387  1
  O  O153  1  0.28369287  0.47347987  0.61891258  1
  O  O154  1  0.25809103  0.99370914  0.13968025  1
  O  O155  1  0.24749743  0.96253811  0.62478311  1
  O  O156  1  0.71553218  0.44247288  0.10859038  1
  O  O157  1  0.74097449  0.49999834  0.61865911  1
  O  O158  1  0.74516993  0.95895253  0.14866558  1
  O  O159  1  0.74473963  1.00396070  0.64610403  1
  O  O160  1  0.01653312  0.35529371  0.26590151  1
  O  O161  1  0.01645198  0.40844225  0.75253820  1
  O  O162  1  -0.00368947  0.83891461  0.22489876  1
  O  O163  1  -0.02104079  0.90576463  0.77041519  1
  O  O164  1  0.48822629  0.36749895  0.25647957  1
  O  O165  1  0.48021630  0.41268672  0.72347416  1
  O  O166  1  0.49693979  0.87475994  0.26520247  1
  O  O167  1  0.57539967  0.94764979  0.68181198  1
  O  O168  1  0.48224076  0.11384379  0.26055951  1
  O  O169  1  0.46826643  0.12526677  0.73852022  1
  O  O170  1  0.48614514  0.65340045  0.25925891  1
  O  O171  1  0.48888896  0.62442517  0.73835458  1
  O  O172  1  1.00971495  0.12906436  0.24409355  1
  O  O173  1  0.99937561  0.10970517  0.73082846  1
  O  O174  1  1.00649932  0.63516658  0.27216702  1
  O  O175  1  1.01873183  0.61158865  0.72393128  1
  O  O176  1  0.36739299  0.27331133  0.00193995  1
  O  O177  1  0.38064263  0.29632967  0.46121138  1
  O  O178  1  0.38012022  0.75516273  0.02761601  1
  O  O179  1  0.36988771  0.75101810  0.52234015  1
  O  O180  1  1.00576431  0.23454443  -0.14335426  1
  O  O181  1  0.86376852  0.25572323  0.50679329  1
  O  O182  1  0.85710178  0.69918566  -0.01442829  1
  O  O183  1  0.87380928  0.74037002  0.50021013  1
  O  O184  1  0.11370767  0.23928708  0.48943540  1
  O  O185  1  0.13571094  0.24099380  1.01911165  1
  O  O186  1  0.10500700  0.74028671  0.48058093  1
  O  O187  1  0.15857090  0.76648516  0.98266393  1
  O  O188  1  0.64182400  0.26420518  0.50859499  1
  O  O189  1  0.56602690  0.25218180  0.96969797  1
  O  O190  1  0.64518633  0.74768088  0.52271873  1
  O  O191  1  0.60517298  0.73728900  0.99922664  1
  O  O192  1  0.50060022  0.24941271  0.14875270  1
  O  O193  1  0.48875699  0.22715040  0.60784561  1
  O  O194  1  0.48684663  0.77381304  0.14054882  1
  O  O195  1  0.48579509  0.74556243  0.62750343  1
  O  O196  1  1.01076810  0.23755763  0.14472705  1
  O  O197  1  0.98746148  0.23172841  0.61485574  1
  O  O198  1  0.99869606  0.70884484  0.14762997  1
  O  O199  1  0.99693617  0.73070709  0.61422738  1
  O  O200  1  0.01842122  0.23457009  0.36901328  1
  O  O201  1  0.08765015  0.23734196  0.83092055  1
  O  O202  1  -0.01131382  0.74917113  0.35130567  1
  O  O203  1  -0.00717171  0.74605029  0.88176516  1
  O  O204  1  0.50347319  0.24615831  0.36042677  1
  O  O205  1  0.52190066  0.24078740  0.90939828  1
  O  O206  1  0.49054588  0.77177616  0.36936503  1
  O  O207  1  0.51011897  0.75489292  0.87523122  1
  O  O208  1  0.23378303  0.11281147  0.49847981  1
  O  O209  1  0.25153358  0.13576793  1.00499945  1
  O  O210  1  0.23485680  0.62881181  0.49740683  1
  O  O211  1  0.26418825  0.65214616  1.00525363  1
  O  O212  1  0.73378812  0.13895832  0.50794422  1
  O  O213  1  0.76961774  0.09667770  0.98382804  1
  O  O214  1  0.73880000  0.63329024  0.50334781  1
  O  O215  1  0.71547298  0.62746266  1.00740513  1
  O  O216  1  0.25419628  0.37241723  0.02494288  1
  O  O217  1  0.22767937  0.36876193  0.50889277  1
  O  O218  1  0.26243444  0.88091189  0.01873147  1
  O  O219  1  0.21093229  0.87376849  0.49507199  1
  O  O220  1  0.77760452  0.33420357  0.01358032  1
  O  O221  1  0.76473547  0.36538119  0.50597663  1
  O  O222  1  0.76406343  0.84492424  0.01296501  1
  O  O223  1  0.76070101  0.85466172  0.48845354  1
  O  O224  1  0.12052537  0.46818613  0.27276012  1
  O  O225  1  0.14182864  0.50298404  0.74457532  1
  O  O226  1  0.14937661  1.01770932  0.24095177  1
  O  O227  1  0.15001281  1.01033801  0.75133646  1
  O  O228  1  0.62903733  0.42780769  0.31741781  1
  O  O229  1  0.62026517  0.50762044  0.73744249  1
  O  O230  1  0.63758980  1.00511450  0.24633759  1
  O  O231  1  0.59879640  0.97877020  0.75190399  1
  O  O232  1  0.36434322  0.00791304  0.26228093  1
  O  O233  1  0.33351714  0.03194868  0.74103222  1
  O  O234  1  0.38881634  0.52830145  0.24637214  1
  O  O235  1  0.36411015  0.52006597  0.76869778  1
  O  O236  1  0.84486374  0.00823892  0.20205759  1
  O  O237  1  0.79692610  -0.03465030  0.69320743  1
  O  O238  1  0.89381150  0.46622574  0.26782942  1
  O  O239  1  0.84149207  0.47951081  0.73482711  1
  O  O240  1  0.14239108  0.35286957  0.37124167  1
  O  O241  1  0.15955471  0.38202478  0.84728487  1
  O  O242  1  0.07873706  0.94833715  0.34953668  1
  O  O243  1  0.09747765  0.91366475  0.91006885  1
  O  O244  1  0.62412930  0.37061202  0.36087349  1
  O  O245  1  0.61189687  0.37220276  0.85539465  1
  O  O246  1  0.61151274  0.88640410  0.37795705  1
  O  O247  1  0.64195902  0.85211536  0.88226524  1
  O  O248  1  0.36862996  0.12288015  0.14861981  1
  O  O249  1  0.33787288  0.14738526  0.64412620  1
  O  O250  1  0.36570986  0.64855009  0.14466810  1
  O  O251  1  0.37776914  0.63355325  0.63612124  1
  O  O252  1  0.89641812  0.12831610  0.11592083  1
  O  O253  1  0.88232785  0.13545261  0.62514655  1
  O  O254  1  0.81988603  0.56869851  0.13296967  1
  O  O255  1  0.89542056  0.63068732  0.61883017  1
  O  O256  1  0.25371856  0.24828611  0.12476583  1
  O  O257  1  0.22971660  0.25259839  0.61823837  1
  O  O258  1  0.25462753  0.76869794  0.12393021  1
  O  O259  1  0.25408620  0.78493343  0.62930367  1
  O  O260  1  0.76629307  0.24360355  0.13560341  1
  O  O261  1  0.76531550  0.23964781  0.62601192  1
  O  O262  1  0.74503102  0.73459333  0.10752644  1
  O  O263  1  0.77658625  0.74764946  0.61426292  1
  O  O264  1  0.23977396  0.23281250  0.37657798  1
  O  O265  1  0.24830776  0.24375551  0.90389898  1
  O  O266  1  0.25055925  0.73482335  0.38026471  1
  O  O267  1  0.30103315  0.77379479  0.89938466  1
  O  O268  1  0.74974855  0.25426435  0.39233885  1
  O  O269  1  0.73096738  0.20750390  0.91018956  1
  O  O270  1  0.75968648  0.72977911  0.39332631  1
  O  O271  1  0.72902570  0.73769825  0.90021656  1
  O  O272  1  0.02367778  0.12224413  0.02502817  1
  O  O273  1  0.00543554  0.11520206  0.50406160  1
  O  O274  1  -0.03022233  0.58265054  0.00587860  1
  O  O275  1  0.01415372  0.60841529  0.48959354  1
  O  O276  1  0.48433721  0.11815779  0.01318357  1
  O  O277  1  0.52272261  0.11877877  0.50441059  1
  O  O278  1  0.49343723  0.62036722  0.00850984  1
  O  O279  1  0.51365203  0.64431179  0.50861550  1
  O  O280  1  0.50713772  0.40361198  0.49524172  1
  O  O281  1  0.47811749  0.38813786  1.00414900  1
  O  O282  1  0.50593813  0.86990424  0.49162098  1
  O  O283  1  0.51815277  0.91430189  0.98875710  1
  O  O284  1  0.99604841  0.38393676  0.50458597  1
  O  O285  1  1.01436902  0.39339646  1.00951632  1
  O  O286  1  0.99505146  0.90516270  0.48449831  1
  O  O287  1  0.98519133  0.88486826  1.00612892  1
  O  O288  1  0.51681161  0.51703894  0.38239794  1
  O  O289  1  0.47316548  0.51046511  0.89322804  1
  O  O290  1  0.48237133  0.98745148  0.37861086  1
  O  O291  1  0.51139295  1.02928736  0.90059762  1
  O  O292  1  0.99796950  0.48910781  0.38718310  1
  O  O293  1  1.05937394  0.50927913  0.90598674  1
  O  O294  1  0.95277848  1.04228568  0.38373493  1
  O  O295  1  0.99575468  1.03187278  0.89482514  1
  O  O296  1  0.02063691  0.01275392  0.14038447  1
  O  O297  1  -0.01528428  0.01467049  0.60526206  1
  O  O298  1  -0.00710523  0.47961744  0.11538005  1
  O  O299  1  -0.00362367  0.51119913  0.60263940  1
  O  O300  1  0.48606880  -0.00598625  0.10565492  1
  O  O301  1  0.45604117  0.03844553  0.61887626  1
  O  O302  1  0.49748123  0.49609014  0.10830259  1
  O  O303  1  0.49880186  0.52717529  0.61281965  1
  O  O304  1  0.24682708  0.36941845  0.24445552  1
  O  O305  1  0.24659752  0.37441434  0.72734758  1
  O  O306  1  0.25126033  0.89045747  0.25381706  1
  O  O307  1  0.25385174  0.88873005  0.78749349  1
  O  O308  1  0.75165745  0.34989228  0.21989340  1
  O  O309  1  0.65221054  0.33853239  0.80633523  1
  O  O310  1  0.74702504  0.82493688  0.23202029  1
  O  O311  1  0.77013992  0.90561598  0.73118394  1
  O  O312  1  0.26354880  0.11955997  0.26876627  1
  O  O313  1  0.23884860  0.14817553  0.77774523  1
  O  O314  1  0.26576553  0.63521101  0.26614285  1
  O  O315  1  0.25441806  0.63331158  0.73370243  1
  O  O316  1  0.74917848  0.11791628  0.26667414  1
  O  O317  1  0.75166813  0.13250214  0.77873336  1
  O  O318  1  0.72417018  0.60620703  0.27962944  1
  O  O319  1  0.75036098  0.61532037  0.72885598  1
  O  O320  1  0.36807980  0.11113043  0.37827066  1
  O  O321  1  0.35770960  0.13161535  0.87122997  1
  O  O322  1  0.37174479  0.63818354  0.36877869  1
  O  O323  1  0.37542134  0.63131683  0.85878156  1
  O  O324  1  0.90046364  0.10088284  0.37934361  1
  O  O325  1  0.85472520  0.12275424  0.86430565  1
  O  O326  1  0.85447140  0.60608085  0.38286429  1
  O  O327  1  0.92073934  0.55851852  0.84316027  1
  O  O328  1  0.14016681  0.36867295  0.14737735  1
  O  O329  1  0.13127915  0.37065797  0.64047499  1
  O  O330  1  0.14606708  0.89895219  0.13157265  1
  O  O331  1  0.10406410  0.86981422  0.62008054  1
  O  O332  1  0.65214017  0.32277046  0.09405561  1
  O  O333  1  0.60594199  0.39125772  0.61917157  1
  O  O334  1  0.63932531  0.86079815  0.11940794  1
  O  O335  1  0.61247289  0.88189403  0.66237488  1
  O  O336  1  0.12241220  0.25101234  0.26548479  1
  O  O337  1  0.09557819  0.25768852  0.75440378  1
  O  O338  1  0.10262881  0.74937793  0.24912939  1
  O  O339  1  0.13253553  0.75176749  0.75584827  1
  O  O340  1  0.60303328  0.24145298  0.23933944  1
  O  O341  1  0.60708111  0.18143871  0.76045183  1
  O  O342  1  0.60361104  0.75303342  0.25302505  1
  O  O343  1  0.63109940  0.74574901  0.76547334  1
  O  O344  1  0.38640276  0.23565518  0.25969965  1
  O  O345  1  0.36215570  0.24957478  0.76735795  1
  O  O346  1  0.37777900  0.75228713  0.24505436  1
  O  O347  1  0.36679738  0.74283583  0.73629618  1
  O  O348  1  0.89957232  0.24871605  0.26787317  1
  O  O349  1  0.88463239  0.26358029  0.73350175  1
  O  O350  1  0.89425971  0.73326215  0.24566076  1
  O  O351  1  0.88157551  0.75274509  0.73647486  1
  O  O352  1  0.40209933  0.52831443  0.49215237  1
  O  O353  1  0.37586368  0.50019871  1.00149526  1
  O  O354  1  0.36157878  1.00240769  0.49210578  1
  O  O355  1  0.39557043  1.00642497  0.99984554  1
  O  O356  1  0.87585173  0.48004763  0.50664875  1
  O  O357  1  0.81168314  0.51569456  0.94818138  1
  O  O358  1  0.86597466  0.99974073  0.50435437  1
  O  O359  1  0.86871131  0.98671865  1.02310311  1
  O  O360  1  0.12958286  0.01205555  0.02221208  1
  O  O361  1  0.11304013  0.01322504  0.50107458  1
  O  O362  1  0.13481225  0.50943522  0.03216360  1
  O  O363  1  0.11652463  0.49505789  0.49396332  1
  O  O364  1  0.60026596  0.03414271  0.02596275  1
  O  O365  1  0.65200487  -0.00028525  0.50488025  1
  O  O366  1  0.60194242  0.51842878  -0.00903920  1
  O  O367  1  0.60997508  0.53380743  0.51210877  1
  O  O368  1  0.36058488  0.38572370  0.12215877  1
  O  O369  1  0.35247936  0.35970315  0.60993118  1
  O  O370  1  0.36086701  0.87014714  0.14130185  1
  O  O371  1  0.39096854  0.86972886  0.62774401  1
  O  O372  1  0.85228677  0.37874703  0.12168501  1
  O  O373  1  0.88608225  0.35821049  0.61033214  1
  O  O374  1  0.86374107  0.85689647  0.11452658  1
  O  O375  1  0.90855801  0.84952125  0.61476377  1
  O  O376  1  0.13364986  0.12747435  0.38861864  1
  O  O377  1  0.14041883  0.12229110  0.90926862  1
  O  O378  1  0.13997772  0.62037637  0.38168724  1
  O  O379  1  0.12850367  0.71290755  0.81769997  1
  O  O380  1  0.62269244  0.10727702  0.39277922  1
  O  O381  1  0.64948677  0.09175436  0.87660660  1
  O  O382  1  0.63153692  0.64587228  0.39853392  1
  O  O383  1  0.61686077  0.63333906  0.88510143  1
