# generated using pymatgen
data_VZnO4
_symmetry_space_group_name_H-M   'P 1'
_cell_length_a   16.96825792
_cell_length_b   17.02505556
_cell_length_c   16.90951058
_cell_angle_alpha   90.02341780
_cell_angle_beta   89.65719269
_cell_angle_gamma   90.04125538
_symmetry_Int_Tables_number   1
_chemical_formula_structural   VZnO4
_chemical_formula_sum   'V64 Zn64 O256'
_cell_volume   4884.82388806
_cell_formula_units_Z   64
loop_
 _symmetry_equiv_pos_site_id
 _symmetry_equiv_pos_as_xyz
  1  'x, y, z'
loop_
 _atom_site_type_symbol
 _atom_site_label
 _atom_site_symmetry_multiplicity
 _atom_site_fract_x
 _atom_site_fract_y
 _atom_site_fract_z
 _atom_site_occupancy
  V  V0  1  0.09816042  0.52572911  0.13074544  1
  V  V1  1  0.37910799  0.87411890  0.50390416  1
  V  V2  1  0.51398008  0.75664550  0.76092795  1
  V  V3  1  0.63936114  0.64242278  0.00668649  1
  V  V4  1  0.12644167  0.86084663  0.75365324  1
  V  V5  1  0.64019520  0.91235564  0.25251819  1
  V  V6  1  0.62180798  0.00599703  0.64486870  1
  V  V7  1  0.37474400  0.50914978  0.89050462  1
  V  V8  1  0.10826608  0.38832497  0.24455636  1
  V  V9  1  0.12931473  0.14262849  -0.00706416  1
  V  V10  1  0.88509198  0.49549918  0.87688506  1
  V  V11  1  0.37855461  0.62730232  0.76218927  1
  V  V12  1  0.52641060  0.50266964  0.00327990  1
  V  V13  1  0.14262237  0.11847050  0.50479656  1
  V  V14  1  0.25746286  0.48261798  0.74365964  1
  V  V15  1  0.87215970  0.11538908  0.75956738  1
  V  V16  1  0.48585079  0.63607549  0.13078531  1
  V  V17  1  0.86456347  0.25545820  0.61584889  1
  V  V18  1  0.49232392  0.01351536  0.50932056  1
  V  V19  1  0.75791334  0.25283630  -0.00678699  1
  V  V20  1  0.11108962  0.00057726  0.63531037  1
  V  V21  1  0.49723352  -0.03717850  0.01499816  1
  V  V22  1  0.75827654  0.49010905  0.27592011  1
  V  V23  1  0.25726942  0.64429598  0.39372700  1
  V  V24  1  0.21842525  0.62976362  0.86699842  1
  V  V25  1  0.00207874  0.26627013  0.75428061  1
  V  V26  1  -0.00064778  0.12213382  0.13818196  1
  V  V27  1  0.12459946  -0.01536740  0.13051601  1
  V  V28  1  0.86039926  0.75742236  0.61401604  1
  V  V29  1  0.25117058  0.11819634  0.35628154  1
  V  V30  1  0.73800659  0.64426295  0.39024730  1
  V  V31  1  0.25645804  0.89162865  0.63339972  1
  V  V32  1  0.49325679  0.48251394  0.48531651  1
  V  V33  1  0.84611212  0.12021956  0.25443795  1
  V  V34  1  -0.00435988  0.85831171  0.86862911  1
  V  V35  1  0.36101110  0.48516893  0.36093290  1
  V  V36  1  0.33955216  0.37326341  -0.00118681  1
  V  V37  1  0.87591962  0.63429917  0.25176830  1
  V  V38  1  0.73103135  0.37062081  0.61743630  1
  V  V39  1  0.28076175  0.79782765  0.05802796  1
  V  V40  1  0.75201373  0.38195285  0.12182755  1
  V  V41  1  -0.00338514  0.00459899  -0.02130275  1
  V  V42  1  0.87853045  0.62054622  0.73402933  1
  V  V43  1  0.73609625  0.49017750  0.74480634  1
  V  V44  1  0.52540473  0.75296311  0.26533704  1
  V  V45  1  -0.00902759  0.92959173  0.39537910  1
  V  V46  1  0.76280274  0.86060709  0.12055191  1
  V  V47  1  0.01655358  0.62877457  0.61229063  1
  V  V48  1  0.74858251  0.63279214  0.87152702  1
  V  V49  1  0.36702113  0.74163481  0.62629983  1
  V  V50  1  0.74986534  0.11108580  0.87697442  1
  V  V51  1  0.51075598  0.62346860  0.60922729  1
  V  V52  1  0.61162662  0.37364934  0.25248668  1
  V  V53  1  0.37630444  0.24667550  0.63686027  1
  V  V54  1  0.61685039  0.27024102  0.86981491  1
  V  V55  1  0.36831551  -0.01007009  0.36598016  1
  V  V56  1  0.63265360  0.13576097  0.50537888  1
  V  V57  1  0.64312600  0.24542544  0.37165914  1
  V  V58  1  0.11324352  0.74513591  0.37772796  1
  V  V59  1  0.88202678  0.25109350  0.12316035  1
  V  V60  1  -0.00796980  0.12233557  0.62329769  1
  V  V61  1  0.37592209  -0.03311665  0.87686960  1
  V  V62  1  -0.01384511  0.48868969  0.50585715  1
  V  V63  1  0.60748825  0.12656621  0.00363154  1
  Zn  Zn64  1  0.20959559  0.15184473  0.15251699  1
  Zn  Zn65  1  0.15907457  0.24635175  0.63764611  1
  Zn  Zn66  1  0.16588688  0.70236991  0.20164620  1
  Zn  Zn67  1  0.19028408  0.68299476  0.68688369  1
  Zn  Zn68  1  0.68035408  0.19124491  0.17931302  1
  Zn  Zn69  1  0.68317154  0.18566473  0.69368308  1
  Zn  Zn70  1  0.70111697  0.67876962  0.19266311  1
  Zn  Zn71  1  0.68853216  0.68165289  0.68347788  1
  Zn  Zn72  1  0.25488691  0.31658460  0.33387820  1
  Zn  Zn73  1  0.44468605  0.33270319  0.81924191  1
  Zn  Zn74  1  0.33072307  0.73750238  0.27916819  1
  Zn  Zn75  1  0.30540810  0.80387585  0.81196825  1
  Zn  Zn76  1  0.80893801  0.30129903  0.30352949  1
  Zn  Zn77  1  0.82095068  0.31480086  0.80609242  1
  Zn  Zn78  1  0.80108772  0.81282852  0.30358602  1
  Zn  Zn79  1  0.83141603  0.79854170  0.81259536  1
  Zn  Zn80  1  0.16135234  0.46526159  0.40588599  1
  Zn  Zn81  1  0.22981607  0.51726741  1.02423452  1
  Zn  Zn82  1  0.18220619  0.92176982  0.44525156  1
  Zn  Zn83  1  0.18718266  0.95013101  0.93231425  1
  Zn  Zn84  1  0.67063707  0.42911257  0.43940476  1
  Zn  Zn85  1  0.70119124  0.44329743  0.93366421  1
  Zn  Zn86  1  0.67555247  0.93936213  0.45655528  1
  Zn  Zn87  1  0.69781957  0.95730962  0.99292028  1
  Zn  Zn88  1  0.30086668  0.04034041  0.03312965  1
  Zn  Zn89  1  0.31629643  0.06080110  0.57515685  1
  Zn  Zn90  1  0.29776589  0.56977159  0.19942203  1
  Zn  Zn91  1  0.29352146  0.53331017  0.54486194  1
  Zn  Zn92  1  0.82010070  0.06090224  0.06254029  1
  Zn  Zn93  1  0.79663103  0.07173731  0.57903927  1
  Zn  Zn94  1  0.82242422  0.56681393  0.05982751  1
  Zn  Zn95  1  0.80505287  0.55172877  0.55321983  1
  Zn  Zn96  1  0.43542503  0.44344137  0.17376877  1
  Zn  Zn97  1  0.41660176  0.45444616  0.66946705  1
  Zn  Zn98  1  0.44007163  0.89881022  0.19745343  1
  Zn  Zn99  1  0.44410437  0.94380553  0.69917786  1
  Zn  Zn100  1  0.93765838  0.43042900  0.19324117  1
  Zn  Zn101  1  0.93132523  0.43808161  0.67618867  1
  Zn  Zn102  1  0.93086483  0.94455832  0.18979168  1
  Zn  Zn103  1  0.93419724  0.93115578  0.69591925  1
  Zn  Zn104  1  0.07000174  0.05312310  0.32148993  1
  Zn  Zn105  1  0.07087936  0.07738541  0.80814502  1
  Zn  Zn106  1  0.05897094  0.57185313  0.32687150  1
  Zn  Zn107  1  0.06763566  0.51703322  0.78176516  1
  Zn  Zn108  1  0.55737438  0.05904234  0.32897057  1
  Zn  Zn109  1  0.56615317  0.04734465  0.84662675  1
  Zn  Zn110  1  0.56020827  0.55916317  0.31401330  1
  Zn  Zn111  1  0.56024996  0.57071564  0.81557348  1
  Zn  Zn112  1  0.41578808  0.17784160  0.43954063  1
  Zn  Zn113  1  0.45157752  0.23254395  0.98763980  1
  Zn  Zn114  1  0.43702551  0.69256346  0.43524219  1
  Zn  Zn115  1  0.44470636  0.70690828  0.95378714  1
  Zn  Zn116  1  0.91696150  0.12344693  0.43886059  1
  Zn  Zn117  1  0.94386014  0.19048762  0.93620383  1
  Zn  Zn118  1  0.92092817  0.67697734  0.43684707  1
  Zn  Zn119  1  1.00535273  0.64486416  0.86254294  1
  Zn  Zn120  1  0.16329917  0.32806482  0.06240574  1
  Zn  Zn121  1  0.02859110  0.28480467  0.53054573  1
  Zn  Zn122  1  0.10217002  0.83366398  0.02646056  1
  Zn  Zn123  1  0.04145062  0.80569505  0.53660471  1
  Zn  Zn124  1  0.57512017  0.31831016  0.06333526  1
  Zn  Zn125  1  0.55714461  0.31273156  0.55970875  1
  Zn  Zn126  1  0.58563480  0.81133294  0.07639615  1
  Zn  Zn127  1  0.54579633  0.83000712  0.59726917  1
  O  O128  1  0.10325930  0.12424270  0.11578329  1
  O  O129  1  0.11182513  0.11211881  0.62300330  1
  O  O130  1  0.09561727  0.62326181  0.16172941  1
  O  O131  1  0.11604217  0.62938844  0.62000042  1
  O  O132  1  0.62280432  0.13290263  0.10178192  1
  O  O133  1  0.61883487  0.13184395  0.61126068  1
  O  O134  1  0.64650720  0.62386533  0.10609486  1
  O  O135  1  0.60813982  0.62116330  0.62627220  1
  O  O136  1  0.34255919  0.38683760  0.35901363  1
  O  O137  1  0.38271871  0.40101158  0.89473959  1
  O  O138  1  0.36820748  0.88212532  0.40292644  1
  O  O139  1  0.36568441  0.86763656  0.88007057  1
  O  O140  1  0.89760278  0.34380844  0.38221149  1
  O  O141  1  0.87934889  0.39608974  0.86420773  1
  O  O142  1  0.90019092  0.87965188  0.34540067  1
  O  O143  1  0.89669058  0.87546773  0.85815507  1
  O  O144  1  0.26103954  -0.00245491  0.38247545  1
  O  O145  1  0.28183633  0.01026709  0.91069307  1
  O  O146  1  0.25941807  0.52388959  0.36839775  1
  O  O147  1  0.26809421  0.51965320  0.85623075  1
  O  O148  1  0.79439740  -0.06401090  0.47697432  1
  O  O149  1  0.74348894  0.01458662  0.88999828  1
  O  O150  1  0.75230682  0.47974607  0.37470071  1
  O  O151  1  0.76417431  0.50639953  0.85976614  1
  O  O152  1  0.22122830  0.51896245  0.13778971  1
  O  O153  1  0.30575260  0.48949976  0.64652862  1
  O  O154  1  0.22441191  0.99768536  0.11433594  1
  O  O155  1  0.25041151  0.99273476  0.63900556  1
  O  O156  1  0.75733773  0.48059890  0.12010225  1
  O  O157  1  0.74792051  0.48437767  0.63400107  1
  O  O158  1  0.74611230  0.98603357  0.09407823  1
  O  O159  1  0.72252879  1.01858864  0.64253873  1
  O  O160  1  0.01187096  0.36162806  0.25230662  1
  O  O161  1  -0.00456250  0.36612413  0.73881474  1
  O  O162  1  -0.03347402  0.88272144  0.29128285  1
  O  O163  1  0.01751480  0.88154308  0.75947923  1
  O  O164  1  0.51554145  0.37939811  0.23167021  1
  O  O165  1  0.47975797  0.38104785  0.72537085  1
  O  O166  1  0.54036535  0.86407959  0.25091073  1
  O  O167  1  0.50254520  0.85543375  0.73925261  1
  O  O168  1  0.48727614  0.16042951  0.29255925  1
  O  O169  1  0.47661885  0.13744895  0.79708504  1
  O  O170  1  0.51203342  0.63393289  0.23589913  1
  O  O171  1  0.48993125  0.63091153  0.74049255  1
  O  O172  1  0.99969062  0.12721853  0.23746668  1
  O  O173  1  0.98623890  0.13038894  0.74334099  1
  O  O174  1  0.97125350  0.61052600  0.27255670  1
  O  O175  1  0.98647486  0.61432384  0.72813989  1
  O  O176  1  0.34660490  0.27426077  -0.01718654  1
  O  O177  1  0.37016484  0.23619441  0.52966251  1
  O  O178  1  0.35687647  0.75176208  0.00881799  1
  O  O179  1  0.38411182  0.76568750  0.51802212  1
  O  O180  1  0.86484108  0.24677155  0.00555282  1
  O  O181  1  0.87251491  0.22936367  0.51990552  1
  O  O182  1  0.88848118  0.74681034  0.02351844  1
  O  O183  1  0.87214724  0.74808645  0.51356595  1
  O  O184  1  0.12369546  0.22371643  0.52328558  1
  O  O185  1  0.12001160  0.24253212  1.00140300  1
  O  O186  1  0.13167156  0.80832635  0.46318374  1
  O  O187  1  0.08909316  0.70779482  1.01441754  1
  O  O188  1  0.61035556  0.24187836  0.48558915  1
  O  O189  1  0.63745298  0.24300715  0.98779277  1
  O  O190  1  0.63406158  0.77291229  0.51377480  1
  O  O191  1  0.63532998  0.73971176  0.99736183  1
  O  O192  1  0.48875325  0.25660275  0.09116553  1
  O  O193  1  0.48040492  0.24508942  0.62365327  1
  O  O194  1  0.51181115  0.73693308  0.12688475  1
  O  O195  1  0.49048511  0.73871467  0.63534565  1
  O  O196  1  0.98227032  0.23672754  0.11484299  1
  O  O197  1  0.98135365  0.23932219  0.63097213  1
  O  O198  1  0.92964838  0.74606638  0.08238502  1
  O  O199  1  0.99388869  0.73307335  0.61194313  1
  O  O200  1  -0.04331966  0.30010064  0.38890860  1
  O  O201  1  -0.00770782  0.25175663  0.85482701  1
  O  O202  1  0.01340253  0.73238743  0.39225184  1
  O  O203  1  0.00270767  0.75897035  0.87292164  1
  O  O204  1  0.47945724  0.21693147  0.34365858  1
  O  O205  1  0.51094088  0.27000350  0.88743856  1
  O  O206  1  0.51267951  0.74052258  0.36405364  1
  O  O207  1  0.49848972  0.74258150  0.86010501  1
  O  O208  1  0.24212876  0.12133116  0.51335454  1
  O  O209  1  0.22772742  0.13310727  1.03180491  1
  O  O210  1  0.25329896  0.62553071  0.49407988  1
  O  O211  1  0.22553033  0.61748444  0.96529339  1
  O  O212  1  0.73153087  0.12663516  0.49973623  1
  O  O213  1  0.75075946  0.13756172  0.98874961  1
  O  O214  1  0.74490382  0.62243084  0.48989625  1
  O  O215  1  0.75063899  0.62103782  0.98179399  1
  O  O216  1  0.23853379  0.39457151  0.00168422  1
  O  O217  1  0.20301843  0.37762558  0.54793963  1
  O  O218  1  0.21414666  0.85045847  -0.00487018  1
  O  O219  1  0.26505267  0.88410101  0.52467925  1
  O  O220  1  0.74469524  0.36415048  0.01132235  1
  O  O221  1  0.73756133  0.37855415  0.51734326  1
  O  O222  1  0.74582599  0.86060393  0.01495967  1
  O  O223  1  0.69197511  0.81722876  0.50237441  1
  O  O224  1  0.10942509  0.49200894  0.25545295  1
  O  O225  1  0.15689644  0.48648231  0.72783555  1
  O  O226  1  0.11481151  1.00911334  0.22803794  1
  O  O227  1  0.12801796  1.00353641  0.73728817  1
  O  O228  1  0.63729297  0.47647708  0.26148021  1
  O  O229  1  0.63795677  0.50218002  0.75963118  1
  O  O230  1  0.61523405  1.00982443  0.24496858  1
  O  O231  1  0.59599167  1.02352657  0.74119120  1
  O  O232  1  0.38222994  -0.02538815  0.26948734  1
  O  O233  1  0.37659734  -0.00980800  0.77684142  1
  O  O234  1  0.37569621  0.50234910  0.25415818  1
  O  O235  1  0.38828597  0.51940635  0.76828557  1
  O  O236  1  0.87364311  0.02454833  0.24807112  1
  O  O237  1  0.87666801  0.01703291  0.74905705  1
  O  O238  1  0.85803878  0.48378375  0.25766699  1
  O  O239  1  0.86524765  0.50769275  0.74505955  1
  O  O240  1  0.15562065  0.37057897  0.34352787  1
  O  O241  1  0.10042084  0.38971202  0.88073087  1
  O  O242  1  0.09148283  0.93478192  0.37242941  1
  O  O243  1  0.12674643  0.88114750  0.85694347  1
  O  O244  1  0.61461434  0.35423445  0.36494319  1
  O  O245  1  0.63680916  0.36730757  0.87699092  1
  O  O246  1  0.64902770  0.90286199  0.35591391  1
  O  O247  1  0.67524222  0.88325984  0.80554270  1
  O  O248  1  0.38763073  0.10716155  0.10568803  1
  O  O249  1  0.37104734  0.14117174  0.64050048  1
  O  O250  1  0.38798099  0.63181729  0.13201280  1
  O  O251  1  0.37852712  0.63973912  0.63154172  1
  O  O252  1  0.88098588  0.13207474  0.12861804  1
  O  O253  1  0.87353473  0.12944817  0.63958224  1
  O  O254  1  0.86298672  0.61456710  0.15036032  1
  O  O255  1  0.86764449  0.62553313  0.62764233  1
  O  O256  1  0.35510751  0.17195773  0.13938620  1
  O  O257  1  0.27304424  0.24765595  0.64712240  1
  O  O258  1  0.21938714  0.72921653  0.10000115  1
  O  O259  1  0.26521843  0.75626128  0.63090072  1
  O  O260  1  0.75708131  0.25222530  0.10828194  1
  O  O261  1  0.75609389  0.25818284  0.63540317  1
  O  O262  1  0.75726950  0.76077385  0.13662878  1
  O  O263  1  0.76045842  0.74901526  0.62970452  1
  O  O264  1  0.26517613  0.21557856  0.37961840  1
  O  O265  1  0.25412712  0.23208268  0.84803288  1
  O  O266  1  0.25058797  0.74587162  0.38543603  1
  O  O267  1  0.23617854  0.72827949  0.85761914  1
  O  O268  1  0.74018414  0.25617671  0.38321959  1
  O  O269  1  0.75105354  0.25501187  0.88651993  1
  O  O270  1  0.74369442  0.74470013  0.37609971  1
  O  O271  1  0.75710522  0.73131645  0.86270624  1
  O  O272  1  0.00871323  0.11920436  -0.00058669  1
  O  O273  1  -0.00328790  0.12391441  0.51852735  1
  O  O274  1  0.03097887  0.66449605  0.00009030  1
  O  O275  1  -0.00680911  0.61209788  0.51111747  1
  O  O276  1  0.50906574  0.13379023  -0.01281839  1
  O  O277  1  0.49672511  0.11640975  0.49773125  1
  O  O278  1  0.51945544  0.63098783  0.01210178  1
  O  O279  1  0.50321464  0.64027062  0.50999557  1
  O  O280  1  0.49141997  0.38362311  0.49929325  1
  O  O281  1  0.52029650  0.40399669  1.00403437  1
  O  O282  1  0.48422630  0.88872748  0.51486520  1
  O  O283  1  0.51954388  0.86730956  0.99801052  1
  O  O284  1  1.00590772  0.38980166  0.51811463  1
  O  O285  1  1.05535768  0.38716209  0.93737720  1
  O  O286  1  0.98373445  0.89258484  0.48892384  1
  O  O287  1  1.01310291  0.88763733  0.97360943  1
  O  O288  1  0.47802203  0.50027856  0.37362149  1
  O  O289  1  0.48723854  0.52330121  0.89924447  1
  O  O290  1  0.48050745  1.00098027  0.39527722  1
  O  O291  1  0.48220949  0.99032796  0.89316181  1
  O  O292  1  1.05138877  0.50263736  0.42044782  1
  O  O293  1  0.98776982  0.52492266  0.86086187  1
  O  O294  1  0.97359443  1.03168815  0.38869992  1
  O  O295  1  1.00622374  1.00624171  0.87738362  1
  O  O296  1  -0.00119865  0.01387067  0.11759051  1
  O  O297  1  0.00599882  0.00359449  0.63358292  1
  O  O298  1  -0.00210944  0.50051804  0.13279162  1
  O  O299  1  -0.00070392  0.51163018  0.61416798  1
  O  O300  1  0.49272802  -0.03258338  0.11593218  1
  O  O301  1  0.49897306  0.00761154  0.61650288  1
  O  O302  1  0.50070493  0.52148297  0.10856929  1
  O  O303  1  0.48081910  0.51790395  0.59714261  1
  O  O304  1  0.19121006  0.29915102  0.22944344  1
  O  O305  1  0.27669381  0.39123649  0.76728251  1
  O  O306  1  0.28366280  0.84339184  0.16191693  1
  O  O307  1  0.23961987  0.87011220  0.74030999  1
  O  O308  1  0.74681748  0.37827057  0.24203733  1
  O  O309  1  0.75200360  0.38627758  0.74355504  1
  O  O310  1  0.74762777  0.88969719  0.23896808  1
  O  O311  1  0.73536127  0.87895579  0.76391876  1
  O  O312  1  0.24131927  0.11744757  0.25754702  1
  O  O313  1  0.25639568  0.16729025  0.81702264  1
  O  O314  1  0.25665225  0.65701252  0.25861324  1
  O  O315  1  0.26835816  0.62028312  0.74771613  1
  O  O316  1  0.74753692  0.12193305  0.23804215  1
  O  O317  1  0.75958117  0.12963190  0.76698084  1
  O  O318  1  0.75335725  0.59899728  0.26216139  1
  O  O319  1  0.75444510  0.61055712  0.75132526  1
  O  O320  1  0.35970725  0.10081321  0.37644161  1
  O  O321  1  0.41535621  0.14105622  0.83682849  1
  O  O322  1  0.36281796  0.63821026  0.37079167  1
  O  O323  1  0.37739724  0.63190090  0.86587112  1
  O  O324  1  0.85538276  0.14746154  0.35321272  1
  O  O325  1  0.86414372  0.12942589  0.86763380  1
  O  O326  1  0.84772489  0.62283779  0.36692377  1
  O  O327  1  0.86758617  0.61730531  0.85090949  1
  O  O328  1  0.12073553  0.39954816  0.13915567  1
  O  O329  1  0.15803527  0.36684055  0.60995747  1
  O  O330  1  0.10119609  0.88604447  0.12719657  1
  O  O331  1  0.13520576  0.88925894  0.63499117  1
  O  O332  1  0.64472305  0.36330056  0.14086569  1
  O  O333  1  0.63274218  0.35776002  0.63078343  1
  O  O334  1  0.64672195  0.88008177  0.14017897  1
  O  O335  1  0.62077401  0.90584047  0.62738552  1
  O  O336  1  0.21483912  0.26888130  0.15370145  1
  O  O337  1  0.10026803  0.24459241  0.73310575  1
  O  O338  1  0.12628977  0.77810790  0.28326990  1
  O  O339  1  0.12324459  0.76354959  0.73986194  1
  O  O340  1  0.63096089  0.25596164  0.26240671  1
  O  O341  1  0.62665704  0.24567551  0.77263165  1
  O  O342  1  0.62579860  0.74374196  0.24912724  1
  O  O343  1  0.61208755  0.74069960  0.74501124  1
  O  O344  1  0.39720040  0.21189142  0.18673224  1
  O  O345  1  0.38990705  0.25031692  0.73875114  1
  O  O346  1  0.41916705  0.78864033  0.24273753  1
  O  O347  1  0.38184555  0.74173538  0.74253502  1
  O  O348  1  0.86500865  0.23687456  0.22826731  1
  O  O349  1  0.88126257  0.24074655  0.74054727  1
  O  O350  1  0.86980715  0.73418779  0.25414013  1
  O  O351  1  0.87521114  0.72707855  0.73524365  1
  O  O352  1  0.37772031  0.50044429  0.47227780  1
  O  O353  1  0.35424987  0.51540937  0.98901007  1
  O  O354  1  0.38137537  0.99450305  0.50951728  1
  O  O355  1  0.39245925  0.97736834  1.00138584  1
  O  O356  1  0.88718972  0.49457065  0.49222864  1
  O  O357  1  0.87484049  0.50980311  0.97607097  1
  O  O358  1  0.84098004  0.99364662  0.49883556  1
  O  O359  1  0.89801648  1.00823596  0.99436497  1
  O  O360  1  0.11092050  0.00849335  0.00888470  1
  O  O361  1  0.13379200  0.00855599  0.52410353  1
  O  O362  1  0.11111297  0.52297119  0.02883052  1
  O  O363  1  0.20037269  0.45474398  0.51778913  1
  O  O364  1  0.60071424  0.01573739  -0.01304071  1
  O  O365  1  0.60946684  0.01776156  0.50640679  1
  O  O366  1  0.62723799  0.51454944  -0.00787622  1
  O  O367  1  0.59301498  0.50009830  0.47994076  1
  O  O368  1  0.37743646  0.39043023  0.09027875  1
  O  O369  1  0.37261344  0.34854380  0.62224435  1
  O  O370  1  0.34375784  0.87702355  0.11719578  1
  O  O371  1  0.36606473  0.87145618  0.63146819  1
  O  O372  1  0.86375143  0.35858186  0.12997607  1
  O  O373  1  0.86479637  0.35875404  0.62045500  1
  O  O374  1  0.86385261  0.88001465  0.13013522  1
  O  O375  1  0.87990881  0.85430817  0.63820012  1
  O  O376  1  0.14172584  0.11070009  0.39526098  1
  O  O377  1  0.13103919  0.12242699  0.89323136  1
  O  O378  1  0.14201075  0.64049002  0.37526546  1
  O  O379  1  0.11973603  0.61552223  0.83885519  1
  O  O380  1  0.62142674  0.13906626  0.38493783  1
  O  O381  1  0.63940103  0.13459386  0.88394275  1
  O  O382  1  0.64242756  0.61578877  0.36714152  1
  O  O383  1  0.64305696  0.62221113  0.88012442  1
