# generated using pymatgen
data_VZnO4
_symmetry_space_group_name_H-M   'P 1'
_cell_length_a   16.93882649
_cell_length_b   16.87434281
_cell_length_c   16.90516986
_cell_angle_alpha   89.76905992
_cell_angle_beta   89.98303326
_cell_angle_gamma   90.17216984
_symmetry_Int_Tables_number   1
_chemical_formula_structural   VZnO4
_chemical_formula_sum   'V64 Zn64 O256'
_cell_volume   4831.96986111
_cell_formula_units_Z   64
loop_
 _symmetry_equiv_pos_site_id
 _symmetry_equiv_pos_as_xyz
  1  'x, y, z'
loop_
 _atom_site_type_symbol
 _atom_site_label
 _atom_site_symmetry_multiplicity
 _atom_site_fract_x
 _atom_site_fract_y
 _atom_site_fract_z
 _atom_site_occupancy
  V  V0  1  0.74495549  0.85126989  0.12697630  1
  V  V1  1  0.11092976  0.00522423  0.62703080  1
  V  V2  1  0.86541048  0.86577556  0.00580078  1
  V  V3  1  0.38146815  0.25592270  0.12104841  1
  V  V4  1  0.12484707  0.62370997  0.49898392  1
  V  V5  1  0.87265548  0.62439448  0.74611081  1
  V  V6  1  0.27443207  0.74735197  0.00284199  1
  V  V7  1  0.12609562  0.74229557  0.88901103  1
  V  V8  1  -0.00865371  0.88844890  0.88317057  1
  V  V9  1  0.13364694  0.24122893  0.36727151  1
  V  V10  1  0.12444932  0.88566962  0.25739034  1
  V  V11  1  0.51163406  0.00376241  0.51224804  1
  V  V12  1  0.48991318  0.23305887  0.74686367  1
  V  V13  1  -0.00071507  0.61468346  0.61652449  1
  V  V14  1  0.51073899  0.12253472  0.13918877  1
  V  V15  1  0.73938304  0.49515839  0.75510369  1
  V  V16  1  0.24602770  0.11739153  0.89243315  1
  V  V17  1  0.36794855  0.11848011  0.25250186  1
  V  V18  1  0.75604230  0.36771923  0.62602157  1
  V  V19  1  0.49460474  0.63186787  0.62092441  1
  V  V20  1  0.13818299  0.87359258  0.75322376  1
  V  V21  1  0.76376617  0.26018778  0.49424859  1
  V  V22  1  0.36061523  0.48200784  0.37564111  1
  V  V23  1  0.24390177  0.48735956  0.24285130  1
  V  V24  1  0.74948024  0.23654336  -0.02003790  1
  V  V25  1  0.61825034  0.49104592  0.61908670  1
  V  V26  1  0.48338422  0.48295471  0.50622812  1
  V  V27  1  0.01168554  0.25107766  0.72428382  1
  V  V28  1  0.36697439  0.49251194  0.86300954  1
  V  V29  1  0.72750372  0.64464831  0.86791954  1
  V  V30  1  0.76688268  -0.00059116  0.25534883  1
  V  V31  1  0.51874848  0.88076329  0.37232112  1
  V  V32  1  0.63002388  -0.00818271  0.13087595  1
  V  V33  1  0.87023845  0.37043004  -0.00074967  1
  V  V34  1  -0.00948138  0.75376264  0.75133672  1
  V  V35  1  0.26506307  0.65130588  0.38705804  1
  V  V36  1  0.62279880  0.12046660  -0.01184727  1
  V  V37  1  0.77199728  0.75336157  0.50565140  1
  V  V38  1  0.62778487  0.24936452  0.36286267  1
  V  V39  1  0.00619959  0.09984658  0.11240715  1
  V  V40  1  0.39046697  -0.01063264  0.88887617  1
  V  V41  1  0.26022881  0.01118518  0.74652451  1
  V  V42  1  0.86737329  0.49926418  0.88010131  1
  V  V43  1  0.01313897  0.36711465  0.87173928  1
  V  V44  1  0.27552692  0.87262558  0.13008987  1
  V  V45  1  0.87634102  0.22857295  0.13487986  1
  V  V46  1  0.37896042  -0.00265034  0.37587827  1
  V  V47  1  0.77073061  0.61234010  0.37704218  1
  V  V48  1  0.87847047  0.13223879  0.75282442  1
  V  V49  1  0.61376897  0.50915305  0.14253185  1
  V  V50  1  0.61065218  0.36460406  0.76617299  1
  V  V51  1  0.73104949  0.36973907  0.12417418  1
  V  V52  1  0.62828044  0.13101067  0.50980691  1
  V  V53  1  0.61903323  0.73226200  0.39914097  1
  V  V54  1  0.75135813  0.89307871  0.62503209  1
  V  V55  1  0.75139481  0.00675460  0.77513227  1
  V  V56  1  0.36354606  0.25506357  0.60907803  1
  V  V57  1  0.02014642  0.50455529  0.00176014  1
  V  V58  1  0.25011045  0.25337806  0.00391040  1
  V  V59  1  0.36000581  0.63499526  0.73916973  1
  V  V60  1  0.50665870  0.36895077  0.36398444  1
  V  V61  1  0.49730338  0.73678996  0.25386275  1
  V  V62  1  0.11362361  0.77703595  0.38709827  1
  V  V63  1  0.13824337  -0.00713897  0.09607965  1
  Zn  Zn64  1  0.19778670  0.17048958  0.17363270  1
  Zn  Zn65  1  0.18807807  0.18692079  0.68860946  1
  Zn  Zn66  1  0.31488689  0.68673513  0.19941183  1
  Zn  Zn67  1  0.16207669  0.65030277  0.71903000  1
  Zn  Zn68  1  0.70121246  0.18087063  0.18627092  1
  Zn  Zn69  1  0.68635087  0.18585698  0.69928864  1
  Zn  Zn70  1  0.66525346  0.67555986  0.20565469  1
  Zn  Zn71  1  0.69371092  0.66803548  0.66114506  1
  Zn  Zn72  1  0.31734531  0.30864832  0.30228514  1
  Zn  Zn73  1  0.35936577  0.28167323  0.84318179  1
  Zn  Zn74  1  0.32478273  0.83191237  0.31466939  1
  Zn  Zn75  1  0.31829128  0.80790848  0.81805578  1
  Zn  Zn76  1  0.80708926  0.31623273  0.30013202  1
  Zn  Zn77  1  0.81753819  0.30966402  0.80635734  1
  Zn  Zn78  1  0.76634063  0.78083557  0.29139429  1
  Zn  Zn79  1  0.81024557  0.82248687  0.80671144  1
  Zn  Zn80  1  0.08837819  0.45290705  0.38360393  1
  Zn  Zn81  1  0.19948599  0.42127151  0.93414899  1
  Zn  Zn82  1  0.18470843  0.97631839  0.43953342  1
  Zn  Zn83  1  0.20526211  0.91761243  0.92999976  1
  Zn  Zn84  1  0.68733599  0.43665932  0.43518499  1
  Zn  Zn85  1  0.68445890  0.43464589  0.94904328  1
  Zn  Zn86  1  0.69326758  0.93694939  0.44123692  1
  Zn  Zn87  1  0.68837588  0.93548955  0.95190618  1
  Zn  Zn88  1  0.32751855  0.05397846  0.06233901  1
  Zn  Zn89  1  0.29234310  0.08542020  0.56018135  1
  Zn  Zn90  1  0.22757905  0.54398865  0.03374766  1
  Zn  Zn91  1  0.30532076  0.56104434  0.56660289  1
  Zn  Zn92  1  0.81287175  0.05029853  0.05827481  1
  Zn  Zn93  1  0.80178466  0.09245318  0.58580263  1
  Zn  Zn94  1  0.74993261  0.60151329  0.07166661  1
  Zn  Zn95  1  0.81987029  0.56395449  0.54954027  1
  Zn  Zn96  1  0.43333324  0.44447063  0.19092018  1
  Zn  Zn97  1  0.42431227  0.42476391  0.69371085  1
  Zn  Zn98  1  0.45469832  0.93750485  0.19694164  1
  Zn  Zn99  1  0.43285673  1.06834221  0.68128891  1
  Zn  Zn100  1  0.88629125  0.50961188  0.12927890  1
  Zn  Zn101  1  0.93951637  0.43790861  0.69173010  1
  Zn  Zn102  1  0.91280831  0.87343569  0.22625645  1
  Zn  Zn103  1  0.92260874  0.94087855  0.68676964  1
  Zn  Zn104  1  0.06186693  0.07094977  0.28338170  1
  Zn  Zn105  1  0.06465700  0.07010452  0.81018865  1
  Zn  Zn106  1  0.12831207  0.61917560  0.27493501  1
  Zn  Zn107  1  0.05078020  0.56921996  0.83319411  1
  Zn  Zn108  1  0.58457803  0.06468804  0.31526448  1
  Zn  Zn109  1  0.56913818  0.05213761  0.80585272  1
  Zn  Zn110  1  0.56476424  0.55452718  0.32022947  1
  Zn  Zn111  1  0.54274895  0.56021305  0.80890461  1
  Zn  Zn112  1  0.44138018  0.18405405  0.43915824  1
  Zn  Zn113  1  0.43863508  0.16634406  0.93802076  1
  Zn  Zn114  1  0.46008070  0.65753504  0.41745931  1
  Zn  Zn115  1  0.41860697  0.64366254  0.93170981  1
  Zn  Zn116  1  0.91415722  0.39236500  0.46638670  1
  Zn  Zn117  1  0.93717827  0.17377219  0.93719832  1
  Zn  Zn118  1  0.91413384  0.72568672  0.37481849  1
  Zn  Zn119  1  0.93205740  0.68626763  0.93570641  1
  Zn  Zn120  1  0.04053907  0.27324071  0.02642101  1
  Zn  Zn121  1  0.06816049  0.31816390  0.54098519  1
  Zn  Zn122  1  0.06441854  0.82422193  0.06484126  1
  Zn  Zn123  1  0.08237490  0.79260860  0.58339936  1
  Zn  Zn124  1  0.56261696  0.29491142  0.05874002  1
  Zn  Zn125  1  0.56104449  0.30502400  0.56583836  1
  Zn  Zn126  1  0.55988668  0.80135644  0.07235350  1
  Zn  Zn127  1  0.57237360  0.82397276  0.57013537  1
  O  O128  1  0.12959126  0.09822691  0.11714592  1
  O  O129  1  0.12554859  0.10554666  0.62984086  1
  O  O130  1  0.05511874  0.69287020  0.15339143  1
  O  O131  1  0.11415240  0.63274324  0.60978059  1
  O  O132  1  0.62153999  0.11830842  0.12395299  1
  O  O133  1  0.63609376  0.13337214  0.60896173  1
  O  O134  1  0.63076443  0.60967957  0.11932325  1
  O  O135  1  0.60665491  0.60037233  0.63797100  1
  O  O136  1  0.38639770  0.37657619  0.37162870  1
  O  O137  1  0.37510620  0.39235057  0.86718948  1
  O  O138  1  0.40221461  0.88958452  0.37993209  1
  O  O139  1  0.37250326  0.88937750  0.87018606  1
  O  O140  1  0.88292583  0.38998998  0.35121891  1
  O  O141  1  0.87130461  0.38074633  0.88294484  1
  O  O142  1  0.89188243  0.93948914  0.46499460  1
  O  O143  1  0.88518689  0.87030425  0.88301502  1
  O  O144  1  0.28168629  -0.02059720  0.37643154  1
  O  O145  1  0.25908308  0.00126673  0.86937859  1
  O  O146  1  0.26294781  0.48058085  0.38287085  1
  O  O147  1  0.19177452  0.48536030  0.77397082  1
  O  O148  1  0.74869629  -0.01667041  0.35460766  1
  O  O149  1  0.74519994  -0.00520246  0.87440755  1
  O  O150  1  0.74629127  0.51359321  0.37839984  1
  O  O151  1  0.74790575  0.49890934  0.86609629  1
  O  O152  1  0.23798819  0.51829820  0.14614653  1
  O  O153  1  0.22750055  0.47956495  0.60335666  1
  O  O154  1  0.24610443  0.98442831  0.11423997  1
  O  O155  1  0.24215311  1.00424872  0.64469953  1
  O  O156  1  0.69734043  0.47159898  0.07709370  1
  O  O157  1  0.73216962  0.49352933  0.63688069  1
  O  O158  1  0.74218679  0.98741513  0.12957577  1
  O  O159  1  0.75110701  0.99288742  0.60623256  1
  O  O160  1  0.06065182  0.39401584  0.18693042  1
  O  O161  1  -0.00853021  0.36035485  0.76477541  1
  O  O162  1  0.02589374  0.87824628  0.24874930  1
  O  O163  1  -0.00448389  0.86095876  0.76041071  1
  O  O164  1  0.50133895  0.38282388  0.26629884  1
  O  O165  1  0.50795465  0.36905182  0.75595499  1
  O  O166  1  0.50596275  0.86054411  0.26807833  1
  O  O167  1  0.54415550  0.85842526  0.77169097  1
  O  O168  1  0.51075566  0.12384569  0.24055235  1
  O  O169  1  0.50871462  0.13025781  0.74242526  1
  O  O170  1  0.49009378  0.63631261  0.28328224  1
  O  O171  1  0.47879127  0.61838679  0.73092940  1
  O  O172  1  1.01213147  0.13693532  0.20709926  1
  O  O173  1  0.99991683  0.14464372  0.75029393  1
  O  O174  1  1.03248474  0.64527253  0.21529292  1
  O  O175  1  0.98978482  0.63239255  0.75179239  1
  O  O176  1  0.37844553  0.23627012  0.01600965  1
  O  O177  1  0.38278814  0.25028398  0.50782987  1
  O  O178  1  0.37142571  0.73840243  -0.02174950  1
  O  O179  1  0.42399385  0.85131263  0.61046389  1
  O  O180  1  0.86236869  0.25201303  0.00227464  1
  O  O181  1  0.86018722  0.28148123  0.48671724  1
  O  O182  1  0.88190317  0.76227760  -0.00246991  1
  O  O183  1  0.86797210  0.75923986  0.48390192  1
  O  O184  1  0.12495658  0.23619508  0.47027826  1
  O  O185  1  0.15037030  0.25152048  1.01393473  1
  O  O186  1  0.12946036  0.74878333  0.49492340  1
  O  O187  1  0.11081884  0.75064906  0.98846491  1
  O  O188  1  0.63122908  0.24477864  0.49279619  1
  O  O189  1  0.64041991  0.23423932  0.99911934  1
  O  O190  1  0.62385056  0.74655929  0.49999004  1
  O  O191  1  0.56782117  0.70249616  0.99590872  1
  O  O192  1  0.49342632  0.23161279  0.12461213  1
  O  O193  1  0.48959239  0.25339268  0.63761753  1
  O  O194  1  0.51156430  0.74115537  0.15326408  1
  O  O195  1  0.51047094  0.72917629  0.61185535  1
  O  O196  1  0.96468102  0.27370115  0.11706464  1
  O  O197  1  1.00888040  0.27051553  0.62496140  1
  O  O198  1  1.00091429  0.74691542  0.13305823  1
  O  O199  1  1.00245001  0.73817283  0.64630153  1
  O  O200  1  0.03397319  0.25925774  0.34714052  1
  O  O201  1  0.00104745  0.26803572  0.89752998  1
  O  O202  1  0.01564100  0.77395118  0.38834496  1
  O  O203  1  0.00892929  0.75113203  0.86525875  1
  O  O204  1  0.51338533  0.26015090  0.37553489  1
  O  O205  1  0.47516627  0.24182211  0.85472436  1
  O  O206  1  0.50575278  0.75987844  0.38972910  1
  O  O207  1  0.52739059  0.70672797  0.93181787  1
  O  O208  1  0.22675620  0.07783952  0.47448081  1
  O  O209  1  0.25524071  0.12029793  0.99696190  1
  O  O210  1  0.23795956  0.62356383  0.49332687  1
  O  O211  1  0.24064653  0.65319104  1.01351162  1
  O  O212  1  0.75118870  0.15137722  0.50101730  1
  O  O213  1  0.74540818  0.13170584  1.00458925  1
  O  O214  1  0.75867717  0.63720119  0.48894879  1
  O  O215  1  0.73636534  0.63218881  0.96773351  1
  O  O216  1  0.26647110  0.35222282  -0.00411726  1
  O  O217  1  0.21286158  0.41366893  0.56120888  1
  O  O218  1  0.24936872  0.85728054  0.01909443  1
  O  O219  1  0.27903116  0.85728944  0.54196859  1
  O  O220  1  0.75100750  0.35244143  -0.00104254  1
  O  O221  1  0.73753744  0.37129905  0.51799277  1
  O  O222  1  0.75539968  0.86275756  0.00929807  1
  O  O223  1  0.74630049  0.86193327  0.51197823  1
  O  O224  1  0.14545473  0.50240533  0.28657435  1
  O  O225  1  0.12408246  0.53206300  0.74576334  1
  O  O226  1  0.13503993  0.98900769  0.26262053  1
  O  O227  1  0.13219418  0.98604417  0.75070367  1
  O  O228  1  0.62858201  0.50389488  0.24197375  1
  O  O229  1  0.62252154  0.48455661  0.74841648  1
  O  O230  1  0.63725835  0.99916495  0.23502652  1
  O  O231  1  0.65497351  1.02168306  0.74199726  1
  O  O232  1  0.39396662  0.00863257  0.26438748  1
  O  O233  1  0.36251380  0.00334897  0.74980488  1
  O  O234  1  0.36051307  0.49999756  0.26606619  1
  O  O235  1  0.36772593  0.50201588  0.75698350  1
  O  O236  1  0.86507571  -0.02207836  0.24089166  1
  O  O237  1  0.86063559  0.01321777  0.75034631  1
  O  O238  1  0.92614644  0.43993751  0.29644968  1
  O  O239  1  0.86145909  0.50289829  0.75937186  1
  O  O240  1  0.14194803  0.34731911  0.36729798  1
  O  O241  1  0.11203792  0.38113027  0.87581140  1
  O  O242  1  0.14072998  0.88239205  0.37795123  1
  O  O243  1  0.11146054  0.86596027  0.86594198  1
  O  O244  1  0.61375810  0.36889694  0.37737937  1
  O  O245  1  0.63132981  0.37253037  0.86309741  1
  O  O246  1  0.61985099  0.86134209  0.38265151  1
  O  O247  1  0.59675744  0.86027825  0.92425575  1
  O  O248  1  0.39609287  0.11333180  0.13786628  1
  O  O249  1  0.37476289  0.13388078  0.61301194  1
  O  O250  1  0.37961450  0.60314531  0.11894123  1
  O  O251  1  0.38842712  0.61943736  0.61886851  1
  O  O252  1  0.89038495  0.12348058  0.11311241  1
  O  O253  1  0.88789927  0.12232556  0.64597288  1
  O  O254  1  0.81283845  0.58172858  0.15719543  1
  O  O255  1  0.88416678  0.61815824  0.63835859  1
  O  O256  1  0.27084874  0.23619252  0.11459046  1
  O  O257  1  0.26177906  0.23657263  0.61990964  1
  O  O258  1  0.27646917  0.75981329  0.11815571  1
  O  O259  1  0.28046592  0.79238423  0.57528827  1
  O  O260  1  0.76384377  0.25600233  0.11579868  1
  O  O261  1  0.74617499  0.26293152  0.61780411  1
  O  O262  1  0.72051886  0.75385436  0.13020314  1
  O  O263  1  0.75993200  0.73859773  0.60892585  1
  O  O264  1  0.24158278  0.24319750  0.37146062  1
  O  O265  1  0.26751983  0.22927047  0.89249108  1
  O  O266  1  0.28192876  0.74884912  0.39084690  1
  O  O267  1  0.23465843  0.76755519  0.89412917  1
  O  O268  1  0.73874712  0.27525063  0.38682789  1
  O  O269  1  0.75545457  0.24315272  0.88143318  1
  O  O270  1  0.73111038  0.74703218  0.39700500  1
  O  O271  1  0.73810453  0.74344671  0.84902059  1
  O  O272  1  0.01340277  0.15199357  0.01983402  1
  O  O273  1  -0.04005654  0.13956488  0.50259965  1
  O  O274  1  0.00076616  0.60049165  -0.02909468  1
  O  O275  1  0.00380487  0.63025458  0.51586001  1
  O  O276  1  0.51923435  0.12706504  0.01252479  1
  O  O277  1  0.52146215  0.12095848  0.49618030  1
  O  O278  1  0.43399664  0.62011042  0.06980025  1
  O  O279  1  0.49664649  0.59763816  0.51166767  1
  O  O280  1  0.50348567  0.38114014  0.49360264  1
  O  O281  1  0.51834722  0.38110518  0.98511288  1
  O  O282  1  0.51859238  0.89682737  0.49457725  1
  O  O283  1  0.53491305  0.86242223  0.96961907  1
  O  O284  1  1.02637276  0.38720190  0.46371305  1
  O  O285  1  0.99003518  0.38810227  0.98873267  1
  O  O286  1  0.96297281  0.92651027  0.46486868  1
  O  O287  1  0.99436185  0.87502667  0.98756824  1
  O  O288  1  0.49369212  0.48802313  0.38983966  1
  O  O289  1  0.46063540  0.53585704  0.89511380  1
  O  O290  1  0.51618551  0.98841722  0.37179859  1
  O  O291  1  0.48858732  0.99979372  0.86246268  1
  O  O292  1  0.97773831  0.48696987  0.32868453  1
  O  O293  1  0.98638470  0.48344801  0.87538058  1
  O  O294  1  0.96601141  1.04669667  0.35533552  1
  O  O295  1  1.00441308  0.98529006  0.86562204  1
  O  O296  1  0.02074065  -0.00176287  0.11292876  1
  O  O297  1  0.01167360  -0.00683043  0.64326716  1
  O  O298  1  -0.00581919  0.50603442  0.09913708  1
  O  O299  1  0.00356259  0.51528481  0.63539576  1
  O  O300  1  0.51977845  0.00694985  0.12911760  1
  O  O301  1  0.50218420  0.00263965  0.61069627  1
  O  O302  1  0.51601306  0.48897511  0.12630094  1
  O  O303  1  0.50268757  0.48684566  0.61772756  1
  O  O304  1  0.25496528  0.38746037  0.24155276  1
  O  O305  1  0.19793804  0.41806668  0.74329394  1
  O  O306  1  0.24912665  0.86979991  0.23458941  1
  O  O307  1  0.23959710  0.88018572  0.75972265  1
  O  O308  1  0.75613932  0.38465230  0.21938782  1
  O  O309  1  0.73741407  0.37670271  0.74357478  1
  O  O310  1  0.74024265  0.87602105  0.22916839  1
  O  O311  1  0.75456353  0.90119722  0.74505207  1
  O  O312  1  0.27019654  0.10763233  0.24192513  1
  O  O313  1  0.24542785  0.11303973  0.76386581  1
  O  O314  1  0.25092622  0.62613711  0.27799597  1
  O  O315  1  0.26645269  0.61700854  0.69708939  1
  O  O316  1  0.76001108  0.10100002  0.24213217  1
  O  O317  1  0.76651131  0.12604984  0.75289242  1
  O  O318  1  0.74585892  0.65286893  0.28345280  1
  O  O319  1  0.75315391  0.61335184  0.74864291  1
  O  O320  1  0.38692435  0.11765974  0.35996369  1
  O  O321  1  0.36305832  0.10242443  0.87855842  1
  O  O322  1  0.36069987  0.60474825  0.39325182  1
  O  O323  1  0.34594181  0.62016463  0.84278695  1
  O  O324  1  0.91076939  0.09512125  0.36066435  1
  O  O325  1  0.88891696  0.11798322  0.85714804  1
  O  O326  1  0.87150797  0.61883753  0.37415784  1
  O  O327  1  0.85990548  0.61733830  0.86204215  1
  O  O328  1  0.10806407  0.37125984  0.13682099  1
  O  O329  1  0.16294094  0.36433538  0.59692377  1
  O  O330  1  0.13388882  0.88472625  0.13738670  1
  O  O331  1  0.12180643  0.87291673  0.65080651  1
  O  O332  1  0.63212004  0.34819934  0.13156930  1
  O  O333  1  0.62748231  0.38100661  0.63773302  1
  O  O334  1  0.62991801  0.88523443  0.11013670  1
  O  O335  1  0.65293111  0.85752004  0.63993396  1
  O  O336  1  0.15220081  0.23533390  0.26151271  1
  O  O337  1  0.11053529  0.25240690  0.74399630  1
  O  O338  1  0.13893225  0.76943386  0.28430225  1
  O  O339  1  0.11896680  0.75641381  0.75976376  1
  O  O340  1  0.64173185  0.24524343  0.26456029  1
  O  O341  1  0.61099977  0.25785928  0.74718157  1
  O  O342  1  0.60777674  0.74257356  0.28007520  1
  O  O343  1  0.53040191  0.78805976  0.78355643  1
  O  O344  1  0.37264549  0.23014500  0.23614317  1
  O  O345  1  0.38438008  0.24286074  0.73486824  1
  O  O346  1  0.38964477  0.75271647  0.25852708  1
  O  O347  1  0.36352157  0.73678555  0.74412990  1
  O  O348  1  0.86227569  0.24058602  0.23366603  1
  O  O349  1  0.88946744  0.24241698  0.75072442  1
  O  O350  1  0.87653720  0.78846364  0.29012621  1
  O  O351  1  0.88488093  0.74064126  0.75854705  1
  O  O352  1  0.37973975  0.48705903  0.49583102  1
  O  O353  1  0.28191924  0.50423814  0.92964038  1
  O  O354  1  0.40758645  1.01674200  0.47964414  1
  O  O355  1  0.38884350  0.99207055  0.99071277  1
  O  O356  1  0.87870994  0.47663613  0.52589795  1
  O  O357  1  0.86801793  0.49377015  0.98410717  1
  O  O358  1  1.00882992  1.08666797  0.49752832  1
  O  O359  1  0.87223480  0.97006043  1.00628160  1
  O  O360  1  0.13317683  -0.01736782  -0.00126132  1
  O  O361  1  0.12127421  -0.03017344  0.53138319  1
  O  O362  1  0.12365354  0.49500105  -0.00022733  1
  O  O363  1  0.11262805  0.52984820  0.46955264  1
  O  O364  1  0.63683321  0.01524265  0.01671030  1
  O  O365  1  0.62565679  0.02019329  0.49193126  1
  O  O366  1  0.56048852  0.44466507  -0.01854145  1
  O  O367  1  0.61795644  0.49116283  0.51752838  1
  O  O368  1  0.38824151  0.35482099  0.13060330  1
  O  O369  1  0.36650858  0.35795536  0.62606136  1
  O  O370  1  0.37359484  0.88870279  0.13187722  1
  O  O371  1  0.39627300  0.87672713  0.67219999  1
  O  O372  1  0.85304671  0.39526642  0.10071023  1
  O  O373  1  0.85421814  0.37952630  0.63857098  1
  O  O374  1  0.85499996  0.85680198  0.11893121  1
  O  O375  1  0.85258600  0.86800765  0.63451567  1
  O  O376  1  0.11919921  0.13745933  0.36375876  1
  O  O377  1  0.14559135  0.11454917  0.87991511  1
  O  O378  1  0.14293613  0.65845043  0.38703939  1
  O  O379  1  0.13270297  0.64291870  0.86821760  1
  O  O380  1  0.63139518  0.14479854  0.38349257  1
  O  O381  1  0.62113170  0.11583247  0.89023709  1
  O  O382  1  0.61640254  0.63005564  0.39349713  1
  O  O383  1  0.63095039  0.62141673  0.84849188  1
