# generated using pymatgen
data_VZnO4
_symmetry_space_group_name_H-M   'P 1'
_cell_length_a   17.02570505
_cell_length_b   16.87200048
_cell_length_c   17.05265512
_cell_angle_alpha   89.65551858
_cell_angle_beta   89.78149582
_cell_angle_gamma   89.79512731
_symmetry_Int_Tables_number   1
_chemical_formula_structural   VZnO4
_chemical_formula_sum   'V64 Zn64 O256'
_cell_volume   4898.35147959
_cell_formula_units_Z   64
loop_
 _symmetry_equiv_pos_site_id
 _symmetry_equiv_pos_as_xyz
  1  'x, y, z'
loop_
 _atom_site_type_symbol
 _atom_site_label
 _atom_site_symmetry_multiplicity
 _atom_site_fract_x
 _atom_site_fract_y
 _atom_site_fract_z
 _atom_site_occupancy
  V  V0  1  0.12013312  0.63845729  0.51608532  1
  V  V1  1  0.51689261  0.15274861  0.12967606  1
  V  V2  1  0.11546243  0.36220971  0.75208157  1
  V  V3  1  0.11826457  0.10866212  -0.00795319  1
  V  V4  1  0.84204299  0.53454036  0.88726633  1
  V  V5  1  0.00942466  0.62517246  0.13292563  1
  V  V6  1  0.62708071  0.24916668  0.35695451  1
  V  V7  1  0.01983250  0.26127455  0.25197936  1
  V  V8  1  0.24140239  0.38575287  0.13092835  1
  V  V9  1  0.26380017  0.62288767  0.87119766  1
  V  V10  1  -0.00349604  0.50737989  -0.00507006  1
  V  V11  1  0.37471792  0.74174469  0.11158152  1
  V  V12  1  -0.00424496  -0.03119819  0.50836871  1
  V  V13  1  0.63991475  -0.00757283  0.62219174  1
  V  V14  1  0.49504904  0.49965431  0.50637819  1
  V  V15  1  0.13544467  0.87028246  0.74864253  1
  V  V16  1  0.87963792  -0.00935497  0.38526556  1
  V  V17  1  0.86347446  0.74409498  0.13723986  1
  V  V18  1  0.75685176  0.50552205  0.72214835  1
  V  V19  1  0.10518844  0.14352922  0.49510927  1
  V  V20  1  0.76494513  0.75129629  0.49777382  1
  V  V21  1  0.01202691  0.37786543  0.38334921  1
  V  V22  1  0.61752934  0.62083537  0.49942040  1
  V  V23  1  0.13922220  0.62456852  0.00337033  1
  V  V24  1  0.76167325  0.26763984  -0.00557220  1
  V  V25  1  0.49687250  0.49629750  0.03754319  1
  V  V26  1  0.49508346  0.37758169  0.35556886  1
  V  V27  1  0.63439308  0.11926237  0.49475534  1
  V  V28  1  0.24372405  0.35921405  0.61216110  1
  V  V29  1  -0.03334556  0.75629876  0.76692761  1
  V  V30  1  0.26387484  0.76205524  0.51254571  1
  V  V31  1  0.80238587  0.92651841  0.06771966  1
  V  V32  1  0.88340838  0.26126860  0.13802283  1
  V  V33  1  -0.00047183  0.75458505  0.25988887  1
  V  V34  1  0.13113093  0.76334509  0.88956362  1
  V  V35  1  0.14998926  0.74793997  0.37283423  1
  V  V36  1  0.61483564  0.75764204  0.37556050  1
  V  V37  1  0.13004183  -0.00501304  0.62990190  1
  V  V38  1  0.48164619  0.01124402  0.50324979  1
  V  V39  1  0.36190275  0.50179846  0.36834338  1
  V  V40  1  -0.01655633  0.13190471  0.63272235  1
  V  V41  1  0.40203670  0.62432175  0.24171250  1
  V  V42  1  0.74416088  0.37733547  0.14985629  1
  V  V43  1  0.38387985  0.74259439  0.64914793  1
  V  V44  1  0.62953674  0.14287991  -0.01549517  1
  V  V45  1  0.74736213  0.62424920  0.34931331  1
  V  V46  1  0.37270577  0.11028767  0.21341560  1
  V  V47  1  0.62596439  0.00474533  0.12299309  1
  V  V48  1  0.24217827  0.50966052  0.72934545  1
  V  V49  1  0.63210765  0.87624516  0.24760952  1
  V  V50  1  0.23535787  0.24266364  0.02584270  1
  V  V51  1  0.48431037  0.89037910  0.37418929  1
  V  V52  1  0.37559450  0.35486300  -0.00783987  1
  V  V53  1  0.00350250  0.10878063  0.13251169  1
  V  V54  1  0.62961590  0.87338502  0.74447519  1
  V  V55  1  0.77286804  0.13023213  0.86613938  1
  V  V56  1  0.13045599  0.88825375  0.24762550  1
  V  V57  1  0.24314392  0.10926091  0.39723551  1
  V  V58  1  0.73278353  0.71504531  0.01680372  1
  V  V59  1  0.75938565  0.01465015  0.25762151  1
  V  V60  1  0.75733997  0.26221412  0.49793583  1
  V  V61  1  0.86830040  0.49122715  0.35641757  1
  V  V62  1  0.49934196  -0.00583185  -0.01083735  1
  V  V63  1  0.28009676  0.13049780  0.82194623  1
  Zn  Zn64  1  0.17808540  0.15373432  0.20181529  1
  Zn  Zn65  1  0.17603886  0.18687775  0.67687720  1
  Zn  Zn66  1  0.17012549  0.74764805  0.15293555  1
  Zn  Zn67  1  0.19676547  0.69764284  0.68850629  1
  Zn  Zn68  1  0.69354616  0.19376052  0.18219974  1
  Zn  Zn69  1  0.81630401  0.20092172  0.68318675  1
  Zn  Zn70  1  0.65758607  0.68962750  0.17696403  1
  Zn  Zn71  1  0.67983255  0.69161813  0.66989967  1
  Zn  Zn72  1  0.28568289  0.26392036  0.27425884  1
  Zn  Zn73  1  0.26231966  0.33413847  0.83154100  1
  Zn  Zn74  1  0.31398635  0.81459915  0.28906006  1
  Zn  Zn75  1  0.31162302  0.81886456  0.82040462  1
  Zn  Zn76  1  0.81726325  0.30461122  0.32031994  1
  Zn  Zn77  1  0.80792694  0.34625154  0.82749366  1
  Zn  Zn78  1  0.80965806  0.81304688  0.31548058  1
  Zn  Zn79  1  0.76072697  0.78768420  0.82610262  1
  Zn  Zn80  1  0.17744077  0.45403719  0.44474379  1
  Zn  Zn81  1  0.18487025  0.44006546  0.94151266  1
  Zn  Zn82  1  0.17749024  0.92858619  0.43765838  1
  Zn  Zn83  1  0.21738055  0.95086417  0.90973728  1
  Zn  Zn84  1  0.67919076  0.43515608  0.42364882  1
  Zn  Zn85  1  0.69497489  0.47644040  1.00563633  1
  Zn  Zn86  1  0.69867126  0.93628987  0.43564117  1
  Zn  Zn87  1  0.68486041  0.95385338  0.92413801  1
  Zn  Zn88  1  0.30540056  0.06121626  0.06555887  1
  Zn  Zn89  1  0.32975867  0.04509959  0.65099330  1
  Zn  Zn90  1  0.32412573  0.55476094  0.05882066  1
  Zn  Zn91  1  0.31452257  0.58139696  0.55217788  1
  Zn  Zn92  1  0.82653415  0.09427201  0.05437421  1
  Zn  Zn93  1  0.81139673  0.06711772  0.55284558  1
  Zn  Zn94  1  0.82758851  0.55584240  0.09172335  1
  Zn  Zn95  1  0.80424920  0.55283008  0.52362978  1
  Zn  Zn96  1  0.40004764  0.41598147  0.19267066  1
  Zn  Zn97  1  0.40073143  0.46356600  0.66831004  1
  Zn  Zn98  1  0.45046576  0.93375587  0.18532232  1
  Zn  Zn99  1  0.46172650  0.92047424  0.67854507  1
  Zn  Zn100  1  0.94315476  0.43986140  0.18935787  1
  Zn  Zn101  1  0.98274847  0.39645217  0.87448209  1
  Zn  Zn102  1  0.93648312  0.92579730  0.19461236  1
  Zn  Zn103  1  0.98316949  0.89218954  0.66060217  1
  Zn  Zn104  1  0.03644663  0.06093329  0.32107957  1
  Zn  Zn105  1  0.05773136  0.06312416  0.81102773  1
  Zn  Zn106  1  0.05725073  0.56852430  0.32848237  1
  Zn  Zn107  1  0.06724611  0.58015900  0.81014886  1
  Zn  Zn108  1  0.56114281  0.06013801  0.31226786  1
  Zn  Zn109  1  0.39333253  -0.00867519  0.84077480  1
  Zn  Zn110  1  0.55672988  0.56921475  0.31574681  1
  Zn  Zn111  1  0.66442980  0.62055943  0.87573854  1
  Zn  Zn112  1  0.43469040  0.17771607  0.39038634  1
  Zn  Zn113  1  0.41164409  0.15279255  0.96092371  1
  Zn  Zn114  1  0.43426866  0.68633358  0.42826550  1
  Zn  Zn115  1  0.45436126  0.65692036  0.94725030  1
  Zn  Zn116  1  0.93765081  0.17752168  0.42592459  1
  Zn  Zn117  1  0.94307317  0.18734884  0.95043028  1
  Zn  Zn118  1  0.93088634  0.65035557  0.42734085  1
  Zn  Zn119  1  0.94256915  0.71047804  0.95356422  1
  Zn  Zn120  1  0.06789497  0.32250865  0.06210300  1
  Zn  Zn121  1  0.05201723  0.32184947  0.57183140  1
  Zn  Zn122  1  0.04702350  0.82375024  0.06419501  1
  Zn  Zn123  1  -0.03850999  0.75373241  0.55316957  1
  Zn  Zn124  1  0.57339972  0.33316531  0.05125198  1
  Zn  Zn125  1  0.53369752  0.28741188  0.51085734  1
  Zn  Zn126  1  0.55366204  0.81305167  0.07261354  1
  Zn  Zn127  1  0.55715138  0.82072971  0.55597420  1
  O  O128  1  0.11036417  0.11726849  0.11770712  1
  O  O129  1  0.10610293  0.11108079  0.61466338  1
  O  O130  1  0.11767657  0.64674115  0.11208155  1
  O  O131  1  0.12475578  0.64872283  0.61569167  1
  O  O132  1  0.62736781  0.12281245  0.11593549  1
  O  O133  1  0.62432664  0.10390283  0.59722260  1
  O  O134  1  0.62054239  0.56118555  0.15565564  1
  O  O135  1  0.61922436  0.63227963  0.59748494  1
  O  O136  1  0.38740322  0.39717311  0.37580158  1
  O  O137  1  0.34554939  0.37291088  0.89635139  1
  O  O138  1  0.39017014  0.87142290  0.35437440  1
  O  O139  1  0.32416421  0.91089922  0.88475595  1
  O  O140  1  0.87444760  0.39017657  0.37235938  1
  O  O141  1  0.86922932  0.42927236  0.87773874  1
  O  O142  1  0.87860312  0.89214592  0.36066534  1
  O  O143  1  0.88392942  0.91740678  0.87572346  1
  O  O144  1  0.23433416  0.01135503  0.37930001  1
  O  O145  1  0.22508741  0.05295124  0.85555887  1
  O  O146  1  0.26480165  0.50143917  0.38262214  1
  O  O147  1  0.24787892  0.52269941  0.88578861  1
  O  O148  1  0.76799434  0.00663108  0.36660076  1
  O  O149  1  0.74958441  0.03284006  0.87495580  1
  O  O150  1  0.75490414  0.51190793  0.37309220  1
  O  O151  1  0.73759206  0.53165909  0.91012899  1
  O  O152  1  0.25523341  0.48520280  0.11781329  1
  O  O153  1  0.24735443  0.51838015  0.62925343  1
  O  O154  1  0.27410456  0.93337886  0.08756086  1
  O  O155  1  0.22680636  1.00221063  0.61863835  1
  O  O156  1  0.75170436  0.47695840  0.11040351  1
  O  O157  1  0.77843153  0.52353000  0.62589069  1
  O  O158  1  0.74350949  0.99572841  0.12765049  1
  O  O159  1  0.73605462  0.99120489  0.59283458  1
  O  O160  1  0.00191574  0.36641866  0.25496014  1
  O  O161  1  0.01970306  0.39157245  0.76595277  1
  O  O162  1  0.00828185  0.85965298  0.25171126  1
  O  O163  1  0.01391863  0.85996750  0.76702584  1
  O  O164  1  0.48323910  0.36349354  0.25984421  1
  O  O165  1  0.58910159  0.38526667  0.67977901  1
  O  O166  1  0.52443755  0.89877973  0.26995915  1
  O  O167  1  0.53288673  0.86510044  0.75873711  1
  O  O168  1  0.51133364  0.12617200  0.22865520  1
  O  O169  1  0.53607976  0.16812136  0.74638045  1
  O  O170  1  0.50160700  0.63207346  0.23832475  1
  O  O171  1  0.49973704  0.62815372  0.74674548  1
  O  O172  1  1.01083348  0.14394535  0.23444027  1
  O  O173  1  0.99647080  0.11633250  0.73105253  1
  O  O174  1  1.01621884  0.63112179  0.23686377  1
  O  O175  1  0.99638935  0.65741237  0.76173264  1
  O  O176  1  0.34303648  0.24311387  -0.00843009  1
  O  O177  1  0.41575207  0.20608484  0.59836806  1
  O  O178  1  0.40008138  0.73403361  0.01475440  1
  O  O179  1  0.36156261  0.74470056  0.48976420  1
  O  O180  1  0.86641198  0.25299980  0.01610761  1
  O  O181  1  0.85126814  0.24211666  0.46126309  1
  O  O182  1  0.83439984  0.74397170  0.02590071  1
  O  O183  1  0.86626978  0.73270693  0.48586155  1
  O  O184  1  0.10174657  0.24197482  0.49896174  1
  O  O185  1  0.13343991  0.24338695  1.00399451  1
  O  O186  1  0.14477925  0.75389981  0.48034434  1
  O  O187  1  0.12863428  0.75025787  0.99307643  1
  O  O188  1  0.63404294  0.23704605  0.49120586  1
  O  O189  1  0.64466953  0.24757087  1.00615514  1
  O  O190  1  0.62726914  0.74709716  0.48407714  1
  O  O191  1  0.64188877  0.73900131  1.06816076  1
  O  O192  1  0.52302693  0.25033170  0.12569448  1
  O  O193  1  0.47655083  0.25812246  0.60774534  1
  O  O194  1  0.48009763  0.76830919  0.14616844  1
  O  O195  1  0.48940564  0.75367555  0.61987228  1
  O  O196  1  0.99326899  0.26528522  0.13489842  1
  O  O197  1  0.99239604  0.23202090  0.62129244  1
  O  O198  1  0.98983124  0.74084373  0.13941608  1
  O  O199  1  0.95082318  0.77465524  0.66229305  1
  O  O200  1  -0.00443408  0.26265917  0.35870590  1
  O  O201  1  -0.04418347  0.27604565  0.86864423  1
  O  O202  1  -0.01352521  0.73278280  0.35552649  1
  O  O203  1  0.02731248  0.75049224  0.87110269  1
  O  O204  1  0.50126944  0.26759630  0.39518526  1
  O  O205  1  0.45569665  0.34227187  0.74830987  1
  O  O206  1  0.51134288  0.76653092  0.37788905  1
  O  O207  1  0.52853399  0.67807991  0.79049446  1
  O  O208  1  0.21056522  0.12536211  0.49821837  1
  O  O209  1  0.23155498  0.13199856  1.00915162  1
  O  O210  1  0.23598894  0.64943685  0.50401320  1
  O  O211  1  0.24195732  0.62283092  1.00109970  1
  O  O212  1  0.73766949  0.13248322  0.48910423  1
  O  O213  1  0.74465850  0.14263614  0.99402681  1
  O  O214  1  0.73083105  0.63180854  0.47518573  1
  O  O215  1  0.73599859  0.61765560  1.03975944  1
  O  O216  1  0.24031237  0.35798313  0.01265671  1
  O  O217  1  0.22271425  0.38214786  0.51614834  1
  O  O218  1  0.25631692  0.89384315  0.02850801  1
  O  O219  1  0.25144499  0.86080943  0.49190656  1
  O  O220  1  0.74685121  0.36654555  0.00089342  1
  O  O221  1  0.74098216  0.36299995  0.48735436  1
  O  O222  1  0.73981199  0.88162515  0.00425655  1
  O  O223  1  0.75462445  0.85178967  0.48651325  1
  O  O224  1  0.15166099  0.51205148  0.25946643  1
  O  O225  1  0.13888524  0.50778784  0.75843501  1
  O  O226  1  0.10441725  0.98527441  0.25986323  1
  O  O227  1  0.11409472  0.99311343  0.73716481  1
  O  O228  1  0.61625981  0.51548479  0.21401235  1
  O  O229  1  0.65237350  0.52969552  0.74125453  1
  O  O230  1  0.64005053  1.00133053  0.24337512  1
  O  O231  1  0.64234978  0.98654896  0.72404760  1
  O  O232  1  0.39808444  0.01795040  0.24423413  1
  O  O233  1  0.39501646  -0.00514792  0.72760717  1
  O  O234  1  0.37208168  0.51361145  0.25730029  1
  O  O235  1  0.34187321  0.49618854  0.75654940  1
  O  O236  1  0.85712054  -0.00645225  0.24195699  1
  O  O237  1  0.92090365  -0.02219043  0.85207614  1
  O  O238  1  0.87392616  0.50458094  0.25630758  1
  O  O239  1  0.83416509  0.54608544  0.78087442  1
  O  O240  1  0.11029817  0.38939621  0.37626272  1
  O  O241  1  0.15150553  0.37264271  0.85607276  1
  O  O242  1  0.12489905  0.85694107  0.36065803  1
  O  O243  1  0.13995439  0.86906820  0.87161849  1
  O  O244  1  0.60670619  0.36326013  0.36833494  1
  O  O245  1  0.59198267  0.31097589  0.84557921  1
  O  O246  1  0.62643162  0.86775620  0.36950649  1
  O  O247  1  0.67988043  0.88107766  0.83828892  1
  O  O248  1  0.40917599  0.13700622  0.11680581  1
  O  O249  1  0.41743943  0.14693142  0.64653073  1
  O  O250  1  0.37670436  0.62611134  0.13393746  1
  O  O251  1  0.37611235  0.64250563  0.62692977  1
  O  O252  1  0.89546630  0.14562287  0.12443512  1
  O  O253  1  0.87730792  0.12067658  0.62591637  1
  O  O254  1  0.89313925  0.63794342  0.13029747  1
  O  O255  1  0.96063994  0.54481589  0.63510479  1
  O  O256  1  0.24071682  0.24719396  0.12512611  1
  O  O257  1  0.24177597  0.25865271  0.61665543  1
  O  O258  1  0.27414496  0.75015002  0.11617981  1
  O  O259  1  0.27122415  0.76013145  0.61968933  1
  O  O260  1  0.76541373  0.26135565  0.12267506  1
  O  O261  1  0.76557149  0.25243630  0.59792259  1
  O  O262  1  0.76677645  0.73688393  0.15657380  1
  O  O263  1  0.75582138  0.73244954  0.59522570  1
  O  O264  1  0.22540672  0.17204354  0.31008689  1
  O  O265  1  0.24883348  0.22142434  0.85383198  1
  O  O266  1  0.24898001  0.74698841  0.36383001  1
  O  O267  1  0.23835192  0.73862374  0.87276729  1
  O  O268  1  0.72840603  0.25417290  0.37268547  1
  O  O269  1  0.76576147  0.25641906  0.89032084  1
  O  O270  1  0.73771719  0.74120697  0.37325333  1
  O  O271  1  0.71621568  0.71880643  0.91407621  1
  O  O272  1  0.00933431  0.12781562  0.02112313  1
  O  O273  1  -0.00241782  0.11282642  0.51078859  1
  O  O274  1  0.01245648  0.62479968  0.01335234  1
  O  O275  1  0.01491689  0.66533871  0.50555203  1
  O  O276  1  0.51985693  0.13476941  0.00719155  1
  O  O277  1  0.50593015  0.11343088  0.48899530  1
  O  O278  1  0.51299659  0.59561971  0.02549035  1
  O  O279  1  0.51230994  0.61812631  0.48207598  1
  O  O280  1  0.50233197  0.39770006  0.49275249  1
  O  O281  1  0.47355142  0.33521537  0.98980582  1
  O  O282  1  0.50176086  0.89044119  0.47892309  1
  O  O283  1  0.50934509  0.89463697  1.00591300  1
  O  O284  1  0.99597636  0.37028191  0.48177036  1
  O  O285  1  1.01573302  0.40111619  0.99317370  1
  O  O286  1  0.98129664  0.87091671  0.52954581  1
  O  O287  1  0.96758565  0.81535797  0.99153304  1
  O  O288  1  0.50430288  0.48687998  0.37018582  1
  O  O289  1  0.56748749  0.37918866  0.83972069  1
  O  O290  1  0.48851310  0.99969063  0.38444128  1
  O  O291  1  0.50161079  1.00111200  0.89022122  1
  O  O292  1  0.98797779  0.48582009  0.35818103  1
  O  O293  1  1.00298546  0.52033312  0.89196652  1
  O  O294  1  0.99866293  0.97422821  0.40456536  1
  O  O295  1  0.99328869  0.98831990  0.88320222  1
  O  O296  1  -0.01050297  0.01069889  0.13796546  1
  O  O297  1  -0.00525583  0.00188725  0.61623275  1
  O  O298  1  -0.00110898  0.51858930  0.11941823  1
  O  O299  1  0.01483347  0.50052893  0.61832441  1
  O  O300  1  0.51977119  0.00829994  0.11771618  1
  O  O301  1  0.52676653  -0.01350699  0.59820635  1
  O  O302  1  0.48654148  0.47270411  0.13345117  1
  O  O303  1  0.48626117  0.50315830  0.60559928  1
  O  O304  1  0.27985099  0.36509166  0.22965145  1
  O  O305  1  0.23413860  0.39003114  0.72921164  1
  O  O306  1  0.23143639  0.88091854  0.24701040  1
  O  O307  1  0.23374498  0.88050575  0.74734098  1
  O  O308  1  0.75460580  0.37686419  0.24788112  1
  O  O309  1  0.75611774  0.40663899  0.74410721  1
  O  O310  1  0.73584862  0.89024838  0.25865385  1
  O  O311  1  0.80429298  0.90520604  0.72019413  1
  O  O312  1  0.27727144  0.09247087  0.17575456  1
  O  O313  1  0.26992838  0.12846119  0.71808380  1
  O  O314  1  0.20134157  0.56182120  0.23850536  1
  O  O315  1  0.24539429  0.62087488  0.76370462  1
  O  O316  1  0.75112084  0.11315286  0.24182082  1
  O  O317  1  0.76364266  0.15277376  0.76857841  1
  O  O318  1  0.71796630  0.62423716  0.25471338  1
  O  O319  1  0.69020880  0.60634641  0.75772798  1
  O  O320  1  0.34019775  0.12765267  0.41628780  1
  O  O321  1  0.37709531  0.11446519  0.85789531  1
  O  O322  1  0.38940660  0.61274515  0.35381330  1
  O  O323  1  0.36176936  0.63586793  0.88381474  1
  O  O324  1  0.91826751  0.08598112  0.35430593  1
  O  O325  1  0.87168541  0.12792973  0.88650906  1
  O  O326  1  0.84699806  0.63329228  0.34231353  1
  O  O327  1  0.87590764  0.62763110  0.90589572  1
  O  O328  1  0.14107111  0.37688913  0.13171957  1
  O  O329  1  0.12370000  0.37682770  0.64015507  1
  O  O330  1  0.11975175  0.85766419  0.14102667  1
  O  O331  1  0.11398881  0.88480867  0.64212708  1
  O  O332  1  0.64677055  0.36295713  0.13554492  1
  O  O333  1  0.62524192  0.34342570  0.63330998  1
  O  O334  1  0.62116691  0.88806961  0.14337366  1
  O  O335  1  0.62937435  0.87811467  0.62813145  1
  O  O336  1  0.11675600  0.25568255  0.24318725  1
  O  O337  1  0.11802474  0.26008894  0.74610626  1
  O  O338  1  0.11527210  0.75388681  0.25937145  1
  O  O339  1  0.13214237  0.76378913  0.75864978  1
  O  O340  1  0.62431705  0.24360293  0.25909049  1
  O  O341  1  0.58495321  0.21777989  0.72906139  1
  O  O342  1  0.62542200  0.76913458  0.25826643  1
  O  O343  1  0.67868409  0.77587311  0.74082437  1
  O  O344  1  0.37966657  0.19208063  0.27795517  1
  O  O345  1  0.42264221  0.28147378  0.77089865  1
  O  O346  1  0.36552771  0.72136735  0.24494830  1
  O  O347  1  0.37339851  0.75537416  0.74793989  1
  O  O348  1  0.88017712  0.24944420  0.23994361  1
  O  O349  1  0.94695375  0.24901319  0.79184903  1
  O  O350  1  0.88704194  0.76228608  0.24203377  1
  O  O351  1  0.87241609  0.76599913  0.80608332  1
  O  O352  1  0.39076155  0.52115491  0.47970942  1
  O  O353  1  0.39855545  0.48089788  0.99954264  1
  O  O354  1  0.38935262  1.01394130  0.53510252  1
  O  O355  1  0.39937073  1.02866270  1.00568812  1
  O  O356  1  0.88965963  0.54127731  0.45459673  1
  O  O357  1  0.89236936  0.51173696  1.00304715  1
  O  O358  1  0.87990661  0.99698503  0.49022351  1
  O  O359  1  0.85973172  0.99117222  1.01798935  1
  O  O360  1  0.13727831  0.01025723  -0.01148277  1
  O  O361  1  0.10495033  -0.01920187  0.51638826  1
  O  O362  1  0.11936424  0.52061186  0.00267671  1
  O  O363  1  0.11939917  0.53917460  0.49408548  1
  O  O364  1  0.62021154  0.01767873  0.00243386  1
  O  O365  1  0.62663565  0.01302552  0.47771755  1
  O  O366  1  0.58509194  0.44736272  0.00185984  1
  O  O367  1  0.61476078  0.51345660  0.48900577  1
  O  O368  1  0.35562396  0.36382520  0.09915219  1
  O  O369  1  0.34415364  0.38031612  0.61834732  1
  O  O370  1  0.38868589  0.85108133  0.14254689  1
  O  O371  1  0.40526808  0.84678496  0.61314108  1
  O  O372  1  0.86914400  0.36698109  0.13153905  1
  O  O373  1  0.88240726  0.28107076  0.75522316  1
  O  O374  1  0.86640958  0.86295712  0.12370690  1
  O  O375  1  0.83805514  0.89274760  0.65704615  1
  O  O376  1  0.10457508  0.11768870  0.39535658  1
  O  O377  1  0.09083144  0.13008261  0.89676463  1
  O  O378  1  0.12024799  0.64597344  0.37840685  1
  O  O379  1  0.13528940  0.63863679  0.89276178  1
  O  O380  1  0.60887802  0.14190652  0.37880673  1
  O  O381  1  0.63503880  0.14269236  0.88817237  1
  O  O382  1  0.62308413  0.64319972  0.37306439  1
  O  O383  1  0.55129048  0.64388671  0.88009853  1
