# generated using pymatgen
data_VZnO4
_symmetry_space_group_name_H-M   'P 1'
_cell_length_a   16.84825501
_cell_length_b   16.91143425
_cell_length_c   16.97644940
_cell_angle_alpha   89.83787374
_cell_angle_beta   89.89859983
_cell_angle_gamma   90.09769792
_symmetry_Int_Tables_number   1
_chemical_formula_structural   VZnO4
_chemical_formula_sum   'V64 Zn64 O256'
_cell_volume   4837.03442321
_cell_formula_units_Z   64
loop_
 _symmetry_equiv_pos_site_id
 _symmetry_equiv_pos_as_xyz
  1  'x, y, z'
loop_
 _atom_site_type_symbol
 _atom_site_label
 _atom_site_symmetry_multiplicity
 _atom_site_fract_x
 _atom_site_fract_y
 _atom_site_fract_z
 _atom_site_occupancy
  V  V0  1  0.24769279  0.70590119  0.02272812  1
  V  V1  1  0.86340842  0.73889160  0.12293834  1
  V  V2  1  0.25983259  0.50076333  0.24659519  1
  V  V3  1  0.50770109  0.87321619  0.88037007  1
  V  V4  1  0.24957121  0.13245376  0.86931299  1
  V  V5  1  0.47451331  0.24564799  0.24305009  1
  V  V6  1  0.38021821  0.89507480  0.50340303  1
  V  V7  1  0.10808289  0.12755722  0.49495297  1
  V  V8  1  0.00022688  0.86862383  0.85594808  1
  V  V9  1  0.25245292  0.37911791  0.64940178  1
  V  V10  1  0.77882538  0.88021751  0.62157782  1
  V  V11  1  0.63743085  0.64579136  0.01348916  1
  V  V12  1  0.87530437  0.72372168  0.62484527  1
  V  V13  1  0.25178323  0.14076326  0.38602318  1
  V  V14  1  0.10496024  0.24908081  0.86389601  1
  V  V15  1  0.61380000  0.11899181  0.01427736  1
  V  V16  1  0.38038627  0.50864177  0.38565265  1
  V  V17  1  0.37275267  -0.01198881  0.87955337  1
  V  V18  1  0.73777527  0.12843945  0.86982278  1
  V  V19  1  0.86846239  0.00125637  0.86726259  1
  V  V20  1  0.88610926  0.61700756  0.25115232  1
  V  V21  1  0.74355678  0.25218670  0.00661815  1
  V  V22  1  0.49948345  0.76306555  0.74703693  1
  V  V23  1  0.11500451  0.38965874  0.76227159  1
  V  V24  1  0.85666771  0.86742042  0.00397857  1
  V  V25  1  -0.00140279  0.12079246  0.12869647  1
  V  V26  1  0.36618030  0.74999663  0.61174783  1
  V  V27  1  0.12078307  0.12503019  -0.00230817  1
  V  V28  1  0.61809241  -0.01062370  0.13203040  1
  V  V29  1  0.12190709  0.51359560  0.12452921  1
  V  V30  1  0.10128052  0.59712768  0.53023087  1
  V  V31  1  0.50931713  0.37801485  0.38103664  1
  V  V32  1  0.48256066  0.75348544  0.23580699  1
  V  V33  1  0.86110275  0.50897433  0.87523936  1
  V  V34  1  0.87739551  0.24461234  0.13553055  1
  V  V35  1  0.74243446  0.60184660  0.37797380  1
  V  V36  1  0.36557251  0.36778662  0.50957742  1
  V  V37  1  0.77026922  0.24778381  0.49090261  1
  V  V38  1  -0.00394361  0.72148153  0.74305399  1
  V  V39  1  0.23518265  0.62714222  0.39222706  1
  V  V40  1  0.51078548  0.87558103  0.37133915  1
  V  V41  1  0.74725679  -0.00351877  0.74355811  1
  V  V42  1  0.23324953  0.87813979  0.61903513  1
  V  V43  1  0.00688745  0.77277740  0.24996540  1
  V  V44  1  0.50708924  0.36609107  0.89001165  1
  V  V45  1  -0.00000273  0.12267522  0.64332857  1
  V  V46  1  0.36968399  0.00928643  0.36115694  1
  V  V47  1  0.60638767  0.00127389  0.61926967  1
  V  V48  1  0.62414291  0.36773736  0.24058777  1
  V  V49  1  0.51042600  0.62300367  0.61345262  1
  V  V50  1  0.35126383  0.62624275  0.74762812  1
  V  V51  1  0.60308347  0.50715622  0.12015837  1
  V  V52  1  0.87941000  0.25760224  0.65024401  1
  V  V53  1  0.13355137  0.73680067  0.86808495  1
  V  V54  1  0.12933700  0.36026955  0.25934885  1
  V  V55  1  0.00183636  0.52152577  0.00320504  1
  V  V56  1  0.35829254  0.49954446  0.87249535  1
  V  V57  1  0.75181855  0.49748293  0.22666122  1
  V  V58  1  0.38367830  0.13128036  0.73488790  1
  V  V59  1  0.23564944  -0.00631660  0.74297744  1
  V  V60  1  0.00106507  -0.01349863  0.00191473  1
  V  V61  1  0.89280033  0.36572048  -0.00436056  1
  V  V62  1  0.74768453  0.75110665  0.48930215  1
  V  V63  1  0.61164213  0.13075876  0.49571656  1
  Zn  Zn64  1  0.27170197  0.20661433  0.21156903  1
  Zn  Zn65  1  0.19282046  0.19138572  0.68618608  1
  Zn  Zn66  1  0.19017920  0.68563058  0.20544125  1
  Zn  Zn67  1  0.16828643  0.68356021  0.66295080  1
  Zn  Zn68  1  0.74790768  0.01778979  0.23615502  1
  Zn  Zn69  1  0.70095260  0.17927696  0.67166961  1
  Zn  Zn70  1  0.67862271  0.69045565  0.19759424  1
  Zn  Zn71  1  0.68134312  0.70291124  0.68633652  1
  Zn  Zn72  1  0.31297271  0.32885364  0.32554249  1
  Zn  Zn73  1  0.32799754  0.31205972  0.81713583  1
  Zn  Zn74  1  0.30996246  0.80928496  0.32680564  1
  Zn  Zn75  1  0.31432966  0.81295633  0.80099032  1
  Zn  Zn76  1  0.68895014  0.19633291  0.32625713  1
  Zn  Zn77  1  0.81007986  0.31424054  0.82518714  1
  Zn  Zn78  1  0.86015585  0.80687544  0.33958585  1
  Zn  Zn79  1  0.81970052  0.81397828  0.80219501  1
  Zn  Zn80  1  0.18669242  0.43334394  0.43596875  1
  Zn  Zn81  1  0.17899736  0.43053785  0.94998556  1
  Zn  Zn82  1  0.18790883  0.95213828  0.44455284  1
  Zn  Zn83  1  0.17930181  0.93553542  0.92244620  1
  Zn  Zn84  1  0.73284467  0.38506613  0.39095171  1
  Zn  Zn85  1  0.68284270  0.43686014  0.94753138  1
  Zn  Zn86  1  0.66726452  0.91771917  0.47505522  1
  Zn  Zn87  1  0.67797349  0.93948890  0.94104171  1
  Zn  Zn88  1  0.31675486  0.07469985  0.04968541  1
  Zn  Zn89  1  0.30207952  0.07049869  0.56101609  1
  Zn  Zn90  1  0.34340845  0.53268466  0.06248353  1
  Zn  Zn91  1  0.31538617  0.55367916  0.56498928  1
  Zn  Zn92  1  0.80771034  0.06312778  0.05818113  1
  Zn  Zn93  1  0.82341392  0.07470112  0.55934359  1
  Zn  Zn94  1  0.81310556  0.56191075  0.05303332  1
  Zn  Zn95  1  0.78539695  0.56444140  0.56743895  1
  Zn  Zn96  1  0.43211085  0.42894490  0.18562252  1
  Zn  Zn97  1  0.43513300  0.44807746  0.68863299  1
  Zn  Zn98  1  0.44178512  0.94438427  0.19518205  1
  Zn  Zn99  1  0.42373927  0.94498611  0.69054289  1
  Zn  Zn100  1  0.94273655  0.42591894  0.18500419  1
  Zn  Zn101  1  0.91772101  0.42156285  0.71239632  1
  Zn  Zn102  1  0.93458336  0.92918408  0.17969017  1
  Zn  Zn103  1  1.01207223  0.96243518  0.53253702  1
  Zn  Zn104  1  0.11682667  0.15896269  0.27575367  1
  Zn  Zn105  1  0.05718556  0.05715225  0.81294230  1
  Zn  Zn106  1  0.07603268  0.55732442  0.31169974  1
  Zn  Zn107  1  0.05828799  0.55546801  0.82088971  1
  Zn  Zn108  1  0.55765221  0.06104259  0.31295997  1
  Zn  Zn109  1  0.56091232  0.05365775  0.80571788  1
  Zn  Zn110  1  0.56047732  0.56609773  0.30587246  1
  Zn  Zn111  1  0.56414994  0.58718446  0.80340041  1
  Zn  Zn112  1  0.44096372  0.19504160  0.43231194  1
  Zn  Zn113  1  0.45053503  0.17980076  0.90968912  1
  Zn  Zn114  1  0.43910037  0.69397783  0.43458289  1
  Zn  Zn115  1  0.42236691  0.69320847  0.93131009  1
  Zn  Zn116  1  0.98045232  0.24231862  0.49673094  1
  Zn  Zn117  1  0.93421394  0.18035232  0.93563761  1
  Zn  Zn118  1  0.93873777  0.68270887  0.43464557  1
  Zn  Zn119  1  0.93290171  0.68878596  0.93505839  1
  Zn  Zn120  1  0.06626322  0.30306565  0.06556200  1
  Zn  Zn121  1  0.10708550  0.29098072  0.59118990  1
  Zn  Zn122  1  0.06398777  0.78371772  0.05659814  1
  Zn  Zn123  1  0.06455984  0.78539350  0.54453436  1
  Zn  Zn124  1  0.55684593  0.30924586  0.06520495  1
  Zn  Zn125  1  0.61888736  0.34146129  0.53437351  1
  Zn  Zn126  1  0.55783558  0.81875971  0.06654142  1
  Zn  Zn127  1  0.55993173  0.81168545  0.56273941  1
  O  O128  1  0.11463978  0.12047607  0.09897854  1
  O  O129  1  0.11117935  0.14607452  0.61053336  1
  O  O130  1  0.11718391  0.61027533  0.13865924  1
  O  O131  1  0.10343920  0.58287224  0.63022706  1
  O  O132  1  0.61423427  0.12161408  0.11196926  1
  O  O133  1  0.63173151  0.10926554  0.61472192  1
  O  O134  1  0.62527861  0.61708279  0.11987377  1
  O  O135  1  0.61159542  0.63396746  0.62633237  1
  O  O136  1  0.38904788  0.38610103  0.39039469  1
  O  O137  1  0.38879690  0.39556429  0.86361899  1
  O  O138  1  0.36699186  0.89129574  0.39125838  1
  O  O139  1  0.36701978  0.88551303  0.87354230  1
  O  O140  1  0.88582288  0.36935145  0.33693295  1
  O  O141  1  0.87318132  0.38315023  0.89232800  1
  O  O142  1  0.90799339  0.91627188  0.39675415  1
  O  O143  1  0.88113059  0.87530892  0.88270602  1
  O  O144  1  0.26572529  0.01327993  0.38499523  1
  O  O145  1  0.25380670  -0.00032122  0.86230516  1
  O  O146  1  0.26423229  0.50270421  0.37335440  1
  O  O147  1  0.26118384  0.48586920  0.89341240  1
  O  O148  1  0.85850835  -0.04173510  0.43671068  1
  O  O149  1  0.75357191  -0.00072887  0.86661867  1
  O  O150  1  0.75337770  0.50165825  0.37993526  1
  O  O151  1  0.76213084  0.49450750  0.89199256  1
  O  O152  1  0.23778496  0.50774924  0.14407590  1
  O  O153  1  0.25180944  0.47738037  0.62091889  1
  O  O154  1  0.28879710  0.98296246  0.12840595  1
  O  O155  1  0.24520050  0.99355069  0.63487351  1
  O  O156  1  0.74400434  0.49657918  0.12711997  1
  O  O157  1  0.72622122  0.49569699  0.63925468  1
  O  O158  1  0.73538528  1.01069238  0.12428447  1
  O  O159  1  0.76643728  0.99186644  0.62823679  1
  O  O160  1  0.03169963  0.36261214  0.22720755  1
  O  O161  1  0.01498810  0.38744306  0.75938817  1
  O  O162  1  0.00634322  0.87415516  0.24758544  1
  O  O163  1  -0.00549765  0.87205988  0.76023763  1
  O  O164  1  0.50745137  0.36902480  0.25216635  1
  O  O165  1  0.51507877  0.42496150  0.77374758  1
  O  O166  1  0.49541925  0.87002320  0.26438339  1
  O  O167  1  0.47920321  0.86674974  0.75436171  1
  O  O168  1  0.49421785  0.14969219  0.26585061  1
  O  O169  1  0.48275653  0.12123884  0.75833307  1
  O  O170  1  0.50638810  0.65051740  0.25361689  1
  O  O171  1  0.48890177  0.64432518  0.73608652  1
  O  O172  1  1.02344268  0.11503438  0.22518460  1
  O  O173  1  1.00668645  0.12850826  0.74290791  1
  O  O174  1  0.98527205  0.60600652  0.25775327  1
  O  O175  1  0.99121834  0.62372753  0.75517200  1
  O  O176  1  0.35559566  0.22845884  -0.00767926  1
  O  O177  1  0.39148989  0.27197292  0.50166235  1
  O  O178  1  0.33510502  0.74347139  -0.01594157  1
  O  O179  1  0.37010272  0.76055414  0.51040789  1
  O  O180  1  0.87043520  0.25643510  -0.00638857  1
  O  O181  1  0.87174184  0.26403079  0.49341912  1
  O  O182  1  0.87769177  0.75740554  0.01031956  1
  O  O183  1  0.86641245  0.73705170  0.51818565  1
  O  O184  1  0.09361570  0.25006466  0.48804380  1
  O  O185  1  0.11613628  0.23067070  0.98397221  1
  O  O186  1  0.13732836  0.70344384  0.54881786  1
  O  O187  1  0.14349364  0.74286563  0.98347948  1
  O  O188  1  0.64151399  0.23073740  0.51404717  1
  O  O189  1  0.63875355  0.24066372  1.01210688  1
  O  O190  1  0.64780764  0.75731806  0.50541738  1
  O  O191  1  0.63447686  0.74483937  1.02183991  1
  O  O192  1  0.49653974  0.25536166  0.14549180  1
  O  O193  1  0.62275849  0.25800523  0.71727737  1
  O  O194  1  0.48236888  0.77299919  0.13704698  1
  O  O195  1  0.48294403  0.75275087  0.62849976  1
  O  O196  1  0.99261055  0.22898761  0.11491319  1
  O  O197  1  0.98836873  0.24563923  0.62149791  1
  O  O198  1  0.98889760  0.75899843  0.13769246  1
  O  O199  1  0.98558037  0.73618504  0.63440672  1
  O  O200  1  -0.05881169  0.33380430  0.36870607  1
  O  O201  1  0.00566943  0.24179058  0.86917504  1
  O  O202  1  -0.03289709  0.75995575  0.35205680  1
  O  O203  1  -0.00295245  0.75398028  0.86173089  1
  O  O204  1  0.49468383  0.27240441  0.35995268  1
  O  O205  1  0.48854368  0.27079209  0.85807663  1
  O  O206  1  0.49361856  0.77262021  0.37553165  1
  O  O207  1  0.48733877  0.76272532  0.85738804  1
  O  O208  1  0.23176424  0.12739108  0.49442975  1
  O  O209  1  0.22876369  0.10792245  0.97814299  1
  O  O210  1  0.24538507  0.60952461  0.49336377  1
  O  O211  1  0.25811098  0.60661753  1.01975985  1
  O  O212  1  0.75940331  0.14137091  0.49122659  1
  O  O213  1  0.73856380  0.12814109  0.98720799  1
  O  O214  1  0.75366226  0.63332204  0.48311140  1
  O  O215  1  0.73548941  0.62504159  0.99873489  1
  O  O216  1  0.20532379  0.37162870  0.05017278  1
  O  O217  1  0.26566157  0.37003392  0.49564594  1
  O  O218  1  0.21042587  0.88463346  0.03139985  1
  O  O219  1  0.25960125  0.88782384  0.51474863  1
  O  O220  1  0.75495393  0.35439980  0.00044243  1
  O  O221  1  0.73038500  0.35614981  0.50363049  1
  O  O222  1  0.75916484  0.87147775  -0.01266786  1
  O  O223  1  0.76249938  0.86416656  0.51193472  1
  O  O224  1  0.12745126  0.48290192  0.23849695  1
  O  O225  1  0.13698183  0.48552140  0.78081610  1
  O  O226  1  0.17554796  0.90546638  0.28607497  1
  O  O227  1  0.13660197  0.99556795  0.75854751  1
  O  O228  1  0.63310776  0.50200193  0.23428653  1
  O  O229  1  0.68399699  0.61990755  0.77710637  1
  O  O230  1  0.63170398  1.01084021  0.24003250  1
  O  O231  1  0.63731621  1.00250517  0.73019895  1
  O  O232  1  0.36900351  0.00674956  0.26233658  1
  O  O233  1  0.35859980  0.01165999  0.75826920  1
  O  O234  1  0.36402058  0.49390639  0.26322356  1
  O  O235  1  0.36611225  0.51979479  0.75210147  1
  O  O236  1  0.84239680  -0.04944154  0.25507008  1
  O  O237  1  0.86527720  -0.00247375  0.76709048  1
  O  O238  1  0.86344544  0.50435667  0.23268487  1
  O  O239  1  0.87244491  0.49869350  0.77487244  1
  O  O240  1  0.12623649  0.36728560  0.35896170  1
  O  O241  1  0.13117658  0.35469598  0.87463938  1
  O  O242  1  0.15794725  0.87601746  0.35843244  1
  O  O243  1  0.10539109  0.85974876  0.87593357  1
  O  O244  1  0.61357483  0.38958620  0.35433248  1
  O  O245  1  0.60946196  0.37453081  0.89102552  1
  O  O246  1  0.61014323  0.88836025  0.38281359  1
  O  O247  1  0.60725993  0.88551698  0.86890060  1
  O  O248  1  0.34597941  0.24304495  0.06489673  1
  O  O249  1  0.37132652  0.11728895  0.63647307  1
  O  O250  1  0.39728830  0.60867483  0.12684105  1
  O  O251  1  0.37406805  0.63932880  0.62530415  1
  O  O252  1  0.88980987  0.12550798  0.11890215  1
  O  O253  1  0.89213884  0.13802193  0.62642583  1
  O  O254  1  0.87135489  0.63143850  0.13017846  1
  O  O255  1  0.85642587  0.62620417  0.63386318  1
  O  O256  1  0.32319847  0.16740528  0.11502050  1
  O  O257  1  0.23204877  0.27694478  0.61943153  1
  O  O258  1  0.24143509  0.73469461  0.11921579  1
  O  O259  1  0.26180414  0.76942607  0.63198826  1
  O  O260  1  0.77129290  0.23216013  0.10598510  1
  O  O261  1  0.77714846  0.24058024  0.61342053  1
  O  O262  1  0.76494613  0.74619239  0.13876961  1
  O  O263  1  0.76307363  0.76030765  0.62654215  1
  O  O264  1  0.26835784  0.23942248  0.38295746  1
  O  O265  1  0.24810205  0.23275666  0.87181465  1
  O  O266  1  0.25389406  0.72513651  0.37954115  1
  O  O267  1  0.23007389  0.75448396  0.85136271  1
  O  O268  1  0.75442938  0.26605526  0.38642922  1
  O  O269  1  0.75084100  0.23249654  0.88541266  1
  O  O270  1  0.76451868  0.75820782  0.38972691  1
  O  O271  1  0.72439262  0.74115193  0.82211492  1
  O  O272  1  0.00326661  0.10793917  -0.00308102  1
  O  O273  1  0.00478437  0.12424177  0.49727522  1
  O  O274  1  -0.00664610  0.62007759  0.00994985  1
  O  O275  1  0.00466980  0.61822787  0.49856247  1
  O  O276  1  0.51601566  0.13373269  -0.01304228  1
  O  O277  1  0.51231047  0.13680637  0.50137724  1
  O  O278  1  0.52274943  0.63421077  -0.02876928  1
  O  O279  1  0.49796523  0.64046429  0.51464733  1
  O  O280  1  0.51993254  0.37677150  0.48190718  1
  O  O281  1  0.48997661  0.36241063  0.99045168  1
  O  O282  1  0.48516703  0.87450936  0.49143459  1
  O  O283  1  0.49641534  0.86376230  0.97865404  1
  O  O284  1  1.00420195  0.43863295  0.42720167  1
  O  O285  1  0.99371502  0.36679077  0.99765594  1
  O  O286  1  1.01475728  0.86268645  0.48893131  1
  O  O287  1  0.99512280  0.88084363  0.99556017  1
  O  O288  1  0.48777705  0.49239353  0.36208072  1
  O  O289  1  0.50733133  0.48616309  0.83373747  1
  O  O290  1  0.48142792  0.98903361  0.37080445  1
  O  O291  1  0.48238926  0.98446064  0.86186880  1
  O  O292  1  0.98484306  0.48988988  0.37779156  1
  O  O293  1  0.98995821  0.50374844  0.90005823  1
  O  O294  1  0.90024874  1.07974738  0.32099191  1
  O  O295  1  0.98571520  0.98721527  0.87824064  1
  O  O296  1  -0.00793966  0.00343707  0.10779929  1
  O  O297  1  0.00128321  0.02344267  0.62606224  1
  O  O298  1  0.01281237  0.49059799  0.11544812  1
  O  O299  1  -0.06958196  0.47351522  0.54461053  1
  O  O300  1  0.51442774  0.00006561  0.13102864  1
  O  O301  1  0.50808331  -0.00280525  0.62919558  1
  O  O302  1  0.50540761  0.50855104  0.13586069  1
  O  O303  1  0.49251784  0.52407601  0.62475270  1
  O  O304  1  0.24287673  0.39230883  0.25766182  1
  O  O305  1  0.25363656  0.37477107  0.75095657  1
  O  O306  1  0.23555392  0.86904077  0.25067841  1
  O  O307  1  0.25404037  0.88781982  0.73448402  1
  O  O308  1  0.73509373  0.39610808  0.25857749  1
  O  O309  1  0.72506445  0.34226720  0.74484376  1
  O  O310  1  0.80127225  0.88089898  0.27210790  1
  O  O311  1  0.75634153  0.88394351  0.73240565  1
  O  O312  1  0.23257372  0.12328694  0.27918815  1
  O  O313  1  0.24671660  0.11397462  0.75657214  1
  O  O314  1  0.23773195  0.60476046  0.27311065  1
  O  O315  1  0.25382820  0.63581760  0.72891088  1
  O  O316  1  0.76946702  0.11539264  0.29399737  1
  O  O317  1  0.74759545  0.11535937  0.76347918  1
  O  O318  1  0.75331781  0.60726054  0.25628019  1
  O  O319  1  0.72324864  0.66317319  0.83846977  1
  O  O320  1  0.36762923  0.11672564  0.38773575  1
  O  O321  1  0.35873937  0.11587334  0.86724876  1
  O  O322  1  0.37282454  0.61084666  0.38668717  1
  O  O323  1  0.36409112  0.62513602  0.85197858  1
  O  O324  1  0.84540041  0.12458329  0.34114490  1
  O  O325  1  0.86035535  0.10500985  0.88552190  1
  O  O326  1  0.86158915  0.62549182  0.35483356  1
  O  O327  1  0.86909589  0.60933699  0.88988108  1
  O  O328  1  0.14306821  0.38238816  0.10470634  1
  O  O329  1  0.13351763  0.38284238  0.65543483  1
  O  O330  1  0.15565281  0.87978876  0.08349251  1
  O  O331  1  0.13631691  0.86682460  0.61679843  1
  O  O332  1  0.61625098  0.38862796  0.13577001  1
  O  O333  1  0.62430388  0.40895286  0.63226697  1
  O  O334  1  0.62813069  0.88984322  0.12280698  1
  O  O335  1  0.63385369  0.89725357  0.60222595  1
  O  O336  1  0.16070902  0.26074041  0.23135489  1
  O  O337  1  0.12639767  0.25691130  0.76269668  1
  O  O338  1  0.10269267  0.74288594  0.25414458  1
  O  O339  1  0.10241545  0.74106708  0.75089281  1
  O  O340  1  0.63497894  0.26817276  0.24871269  1
  O  O341  1  0.65130369  0.31672402  0.76137007  1
  O  O342  1  0.59894000  0.74492883  0.25311243  1
  O  O343  1  0.59818526  0.76780053  0.73339131  1
  O  O344  1  0.36971722  0.26314318  0.24640266  1
  O  O345  1  0.36323881  0.22962249  0.74837720  1
  O  O346  1  0.38262956  0.75640531  0.25912339  1
  O  O347  1  0.37649872  0.74244005  0.73509758  1
  O  O348  1  0.87490756  0.24477271  0.23026931  1
  O  O349  1  0.87339242  0.25382381  0.75026448  1
  O  O350  1  0.88602930  0.73153616  0.23469176  1
  O  O351  1  0.88547211  0.74648867  0.73851215  1
  O  O352  1  0.38136323  0.48788584  0.49100211  1
  O  O353  1  0.40193834  0.52189562  0.95934349  1
  O  O354  1  0.37865498  0.99512395  0.50781376  1
  O  O355  1  0.37093975  1.00729847  0.97816285  1
  O  O356  1  0.86773115  0.48994577  0.50819021  1
  O  O357  1  0.88802328  0.48398719  1.00859054  1
  O  O358  1  0.89710354  1.00468723  0.49516760  1
  O  O359  1  0.87919945  0.98391659  0.99099764  1
  O  O360  1  0.10455535  0.00539394  -0.01880331  1
  O  O361  1  0.11344568  0.01906915  0.49719773  1
  O  O362  1  0.11241332  0.50687945  0.01060571  1
  O  O363  1  0.12154129  0.49993859  0.49739111  1
  O  O364  1  0.62549859  0.01078256  0.01193197  1
  O  O365  1  0.62744954  0.01826913  0.50903827  1
  O  O366  1  0.62123491  0.50369098  0.01917831  1
  O  O367  1  0.65430220  0.47780270  0.60675205  1
  O  O368  1  0.36285410  0.42634632  0.09917249  1
  O  O369  1  0.36943926  0.37875925  0.61944132  1
  O  O370  1  0.33531750  0.92332710  0.12617622  1
  O  O371  1  0.37293581  0.87053967  0.61365501  1
  O  O372  1  0.88381961  0.35312492  0.11192375  1
  O  O373  1  0.87905551  0.35946053  0.63160411  1
  O  O374  1  0.86802580  0.86618370  0.10786311  1
  O  O375  1  0.87513313  0.86721728  0.62195000  1
  O  O376  1  0.13374220  0.13833702  0.38894944  1
  O  O377  1  0.12883068  0.13272996  0.87241896  1
  O  O378  1  0.13081236  0.61781449  0.38935026  1
  O  O379  1  0.12089629  0.63809373  0.87099504  1
  O  O380  1  0.62228377  0.12499664  0.38845591  1
  O  O381  1  0.63591936  0.11084814  0.87733200  1
  O  O382  1  0.64419109  0.61730047  0.36877150  1
  O  O383  1  0.58540100  0.63150461  0.91278581  1
