# generated using pymatgen
data_VZnO4
_symmetry_space_group_name_H-M   'P 1'
_cell_length_a   16.98915242
_cell_length_b   16.93870375
_cell_length_c   17.00255491
_cell_angle_alpha   90.17300517
_cell_angle_beta   90.32674009
_cell_angle_gamma   89.82761371
_symmetry_Int_Tables_number   1
_chemical_formula_structural   VZnO4
_chemical_formula_sum   'V64 Zn64 O256'
_cell_volume   4892.77321461
_cell_formula_units_Z   64
loop_
 _symmetry_equiv_pos_site_id
 _symmetry_equiv_pos_as_xyz
  1  'x, y, z'
loop_
 _atom_site_type_symbol
 _atom_site_label
 _atom_site_symmetry_multiplicity
 _atom_site_fract_x
 _atom_site_fract_y
 _atom_site_fract_z
 _atom_site_occupancy
  V  V0  1  0.73764870  0.24164685  0.49021687  1
  V  V1  1  0.77460211  0.87638530  0.62606795  1
  V  V2  1  0.72327131  0.00235857  0.75418849  1
  V  V3  1  0.36273430  0.84932132  0.00856090  1
  V  V4  1  0.37555619  0.37890654  0.46260607  1
  V  V5  1  0.12527420  0.86998789  0.27954829  1
  V  V6  1  0.12746887  0.25074039  0.84671725  1
  V  V7  1  0.13555652  0.49438530  0.61052654  1
  V  V8  1  0.37244131  0.38715802  -0.00410647  1
  V  V9  1  0.50157874  0.50255385  0.48916792  1
  V  V10  1  0.49394980  0.85147882  0.87515765  1
  V  V11  1  0.74639411  0.38399761  0.13263943  1
  V  V12  1  0.49182754  0.74097922  0.24736891  1
  V  V13  1  0.61655496  0.39135087  0.74076712  1
  V  V14  1  0.25682570  0.86811490  0.63789804  1
  V  V15  1  0.63200196  -0.00707511  0.11756618  1
  V  V16  1  0.86299330  0.12527035  0.75633984  1
  V  V17  1  0.07136526  0.28685378  0.32157336  1
  V  V18  1  0.87636387  0.63916467  0.74157326  1
  V  V19  1  0.46678792  0.00768672  -0.01035849  1
  V  V20  1  0.62452552  0.87276096  0.26371408  1
  V  V21  1  0.87685811  0.24049082  0.62715381  1
  V  V22  1  0.25525578  0.51090267  0.26383229  1
  V  V23  1  0.11015765  0.49033647  0.13001606  1
  V  V24  1  0.20594931  0.24343612  0.03427968  1
  V  V25  1  0.86181039  0.22506964  0.15347643  1
  V  V26  1  0.77146806  0.49264594  0.74820036  1
  V  V27  1  0.75576595  0.75204772  0.49525051  1
  V  V28  1  0.37927959  0.86372800  0.50143713  1
  V  V29  1  0.88091496  0.36205769  -0.00180904  1
  V  V30  1  0.38687448  0.00679580  0.36192118  1
  V  V31  1  -0.01505392  0.02458892  0.51447185  1
  V  V32  1  0.25316582  0.39032097  0.13510675  1
  V  V33  1  0.89416892  0.37766634  0.50246071  1
  V  V34  1  0.61272747  0.13282962  -0.00391480  1
  V  V35  1  0.22529838  0.74247930  0.00307845  1
  V  V36  1  0.62169491  0.38168406  0.25836788  1
  V  V37  1  0.26140821  0.25606363  0.50735946  1
  V  V38  1  0.51267766  0.62150266  0.62233637  1
  V  V39  1  0.37500469  0.24955246  0.12589265  1
  V  V40  1  0.61465411  0.72053204  0.38166287  1
  V  V41  1  0.25030943  0.65035689  0.37962395  1
  V  V42  1  0.49050918  0.12140622  0.13641410  1
  V  V43  1  0.51557408  0.62251171  0.10602974  1
  V  V44  1  0.74498435  0.37560076  0.61638269  1
  V  V45  1  0.37395518  0.61536186  0.73979166  1
  V  V46  1  0.01741987  0.89541145  0.85360020  1
  V  V47  1  0.24304498  0.00508138  0.24372846  1
  V  V48  1  0.11816078  0.65090225  0.49883707  1
  V  V49  1  0.17613605  0.38261923  0.74112706  1
  V  V50  1  0.74563778  0.65694263  0.89547226  1
  V  V51  1  -0.00958522  0.75637588  0.26836823  1
  V  V52  1  0.74583083  0.23724129  0.00875410  1
  V  V53  1  0.50005909  -0.00099119  0.52901679  1
  V  V54  1  0.49450206  0.26204671  0.26175568  1
  V  V55  1  0.61803859  0.25474568  0.86283768  1
  V  V56  1  0.87704086  0.02584310  0.37003448  1
  V  V57  1  0.30358073  -0.00099027  0.75167033  1
  V  V58  1  0.54602502  0.41692426  0.92569657  1
  V  V59  1  0.26217544  0.61086620  0.87167867  1
  V  V60  1  -0.00846751  0.63990856  0.12013468  1
  V  V61  1  0.11348765  0.60415972  -0.01676417  1
  V  V62  1  0.60458116  0.13230526  0.50155580  1
  V  V63  1  0.26808298  0.13632446  0.85142372  1
  Zn  Zn64  1  0.16160142  0.18389098  0.20642347  1
  Zn  Zn65  1  0.20920629  0.19604496  0.67333485  1
  Zn  Zn66  1  0.17552469  0.68898682  0.18832134  1
  Zn  Zn67  1  0.22936715  0.65887771  0.65751681  1
  Zn  Zn68  1  0.67180027  0.19274648  0.19130203  1
  Zn  Zn69  1  0.67972748  0.18653445  0.67870694  1
  Zn  Zn70  1  0.68910127  0.55807120  0.18936545  1
  Zn  Zn71  1  0.71450657  0.66474722  0.64463699  1
  Zn  Zn72  1  0.28534848  0.29250147  0.31049570  1
  Zn  Zn73  1  0.33704507  0.31184783  0.80610496  1
  Zn  Zn74  1  0.31560840  0.82639077  0.31206156  1
  Zn  Zn75  1  0.31344126  0.79699974  0.82576748  1
  Zn  Zn76  1  0.81131955  0.32457176  0.32284837  1
  Zn  Zn77  1  0.80138982  0.30393604  0.81379775  1
  Zn  Zn78  1  0.77379321  0.75046447  0.27956768  1
  Zn  Zn79  1  0.81355462  0.81960971  0.81260774  1
  Zn  Zn80  1  0.18075401  0.42446685  0.43679500  1
  Zn  Zn81  1  0.18990000  0.42490018  0.93993725  1
  Zn  Zn82  1  0.21280414  0.92500406  0.43025927  1
  Zn  Zn83  1  0.21155625  0.94038932  0.92114818  1
  Zn  Zn84  1  0.68314167  0.44514138  0.43757983  1
  Zn  Zn85  1  0.71789356  0.42797684  0.93167239  1
  Zn  Zn86  1  0.67915881  0.93610086  0.45159856  1
  Zn  Zn87  1  0.66845641  0.94454727  0.93381972  1
  Zn  Zn88  1  0.26161833  0.04770707  0.04731693  1
  Zn  Zn89  1  0.31459603  0.03945750  0.55601729  1
  Zn  Zn90  1  0.31194316  0.57102663  0.06543483  1
  Zn  Zn91  1  0.30786704  0.55643210  0.54538531  1
  Zn  Zn92  1  0.78311652  0.05651428  0.21393521  1
  Zn  Zn93  1  0.79853110  0.06001644  0.56136776  1
  Zn  Zn94  1  0.82192943  0.55217211  0.04716351  1
  Zn  Zn95  1  0.81317523  0.56277157  0.55600048  1
  Zn  Zn96  1  0.43171331  0.44666048  0.19533880  1
  Zn  Zn97  1  0.43471012  0.45000856  0.68594898  1
  Zn  Zn98  1  0.43247837  0.93191703  0.18880793  1
  Zn  Zn99  1  0.42818121  0.79758822  0.69039098  1
  Zn  Zn100  1  0.97296521  0.36120980  0.15542315  1
  Zn  Zn101  1  0.94099725  0.50589970  0.63323350  1
  Zn  Zn102  1  0.88586005  0.89032426  0.26165806  1
  Zn  Zn103  1  0.92174427  0.96290540  0.68587188  1
  Zn  Zn104  1  0.06051591  0.06409163  0.30978560  1
  Zn  Zn105  1  0.08762903  0.07952552  0.93878203  1
  Zn  Zn106  1  0.07900834  0.58581710  0.30061578  1
  Zn  Zn107  1  0.06592717  0.55383676  0.77764891  1
  Zn  Zn108  1  0.59280879  0.06691607  0.30300080  1
  Zn  Zn109  1  0.51139353  -0.02045449  0.74224186  1
  Zn  Zn110  1  0.54739287  0.55760877  0.30635025  1
  Zn  Zn111  1  0.57123616  0.57285854  0.80684489  1
  Zn  Zn112  1  0.42710865  0.18231187  0.43988396  1
  Zn  Zn113  1  0.44117726  0.20798350  0.93446050  1
  Zn  Zn114  1  0.43342120  0.67643908  0.43124852  1
  Zn  Zn115  1  0.43547653  0.67449819  0.94145148  1
  Zn  Zn116  1  0.93228582  0.18799948  0.44065337  1
  Zn  Zn117  1  0.93682057  0.19689099  0.90229042  1
  Zn  Zn118  1  0.94982468  0.70368214  0.46894467  1
  Zn  Zn119  1  0.94277949  0.64535683  0.90329741  1
  Zn  Zn120  1  0.02757569  0.22719648  0.04667781  1
  Zn  Zn121  1  0.07080771  0.29999858  0.57866675  1
  Zn  Zn122  1  0.01689720  0.78489478  0.01218234  1
  Zn  Zn123  1  0.08839983  0.85495552  0.54366203  1
  Zn  Zn124  1  0.55677324  0.32031108  0.07543285  1
  Zn  Zn125  1  0.56028410  0.32700181  0.54902602  1
  Zn  Zn126  1  0.52908715  0.83160817  0.08903577  1
  Zn  Zn127  1  0.54604490  0.79468123  0.54792959  1
  O  O128  1  0.13296462  0.20421421  0.09811174  1
  O  O129  1  0.11177011  0.10681806  0.66581223  1
  O  O130  1  0.10426565  0.60839823  0.11441143  1
  O  O131  1  0.13914287  0.61878441  0.60146869  1
  O  O132  1  0.60277997  0.11757690  0.11476194  1
  O  O133  1  0.62035890  0.12671888  0.60392301  1
  O  O134  1  0.61429990  0.61567018  0.13060411  1
  O  O135  1  0.61058522  0.62247498  0.63027006  1
  O  O136  1  0.35998253  0.37118403  0.36547557  1
  O  O137  1  0.37391760  0.36804594  0.89724335  1
  O  O138  1  0.36961834  0.88968827  0.39446652  1
  O  O139  1  0.37951323  0.86437948  0.89767137  1
  O  O140  1  0.86741546  0.38043227  0.40479905  1
  O  O141  1  0.87376499  0.32935706  0.89975010  1
  O  O142  1  0.83066329  0.91194685  0.37976815  1
  O  O143  1  0.91354059  0.88257597  0.85143681  1
  O  O144  1  0.26097231  -0.00763582  0.35630687  1
  O  O145  1  0.25902972  0.01590954  0.84877435  1
  O  O146  1  0.23389467  0.49335630  0.36083539  1
  O  O147  1  0.24428434  0.51364783  0.88754940  1
  O  O148  1  0.77113582  -0.02890193  0.37931672  1
  O  O149  1  0.73168069  -0.00757059  0.85356103  1
  O  O150  1  0.75892157  0.51567866  0.34686212  1
  O  O151  1  0.76490409  0.48262966  0.84847146  1
  O  O152  1  0.24703638  0.49956963  0.13417458  1
  O  O153  1  0.23616738  0.50272081  0.61937113  1
  O  O154  1  0.24955583  0.98917259  0.14348721  1
  O  O155  1  0.27481316  0.99627844  0.64909244  1
  O  O156  1  0.75723303  0.48743153  0.12487312  1
  O  O157  1  0.75120864  0.48000728  0.62499400  1
  O  O158  1  0.72907913  1.00484753  0.11845833  1
  O  O159  1  0.74303561  0.97826604  0.61841101  1
  O  O160  1  0.03045840  0.34774589  0.25148967  1
  O  O161  1  -0.01804610  0.40205729  0.81736676  1
  O  O162  1  0.00739357  0.86385981  0.26240990  1
  O  O163  1  0.00469230  0.91571606  0.75227911  1
  O  O164  1  0.50618628  0.37226630  0.24821843  1
  O  O165  1  0.51794632  0.39194061  0.74302308  1
  O  O166  1  0.51913441  0.85725269  0.21988473  1
  O  O167  1  0.48101361  0.86848721  0.77095927  1
  O  O168  1  0.50604666  0.13754494  0.23677742  1
  O  O169  1  0.48980727  0.14900724  0.71564914  1
  O  O170  1  0.49586045  0.63851770  0.24591030  1
  O  O171  1  0.48730797  0.61383393  0.73259417  1
  O  O172  1  1.07470035  0.17008888  0.28060893  1
  O  O173  1  0.95981729  0.12281040  0.75305730  1
  O  O174  1  1.00408787  0.64788523  0.23150716  1
  O  O175  1  0.97113682  0.61866428  0.79040088  1
  O  O176  1  0.38513202  0.26639711  0.02166631  1
  O  O177  1  0.38009829  0.27477521  0.49202220  1
  O  O178  1  0.36537786  0.74750055  0.00743270  1
  O  O179  1  0.38477528  0.76615055  0.48962890  1
  O  O180  1  0.84804527  0.23508009  0.01648971  1
  O  O181  1  0.85749870  0.25464244  0.50885761  1
  O  O182  1  0.93564998  0.75125547  -0.05874836  1
  O  O183  1  0.85518983  0.75593088  0.48069617  1
  O  O184  1  0.17030757  0.24352989  0.56108451  1
  O  O185  1  0.13782834  0.27138272  0.96198996  1
  O  O186  1  0.11508754  0.75112070  0.50618462  1
  O  O187  1  0.12146459  0.73005100  0.99355363  1
  O  O188  1  0.62349256  0.24442242  0.49965143  1
  O  O189  1  0.62253153  0.23985623  1.01842708  1
  O  O190  1  0.62344197  0.74784191  0.48435524  1
  O  O191  1  0.75471467  0.83365001  1.03127419  1
  O  O192  1  0.49014614  0.24558086  0.13575343  1
  O  O193  1  0.46938195  0.28945310  0.62537820  1
  O  O194  1  0.50499668  0.73309666  0.13508394  1
  O  O195  1  0.49089933  0.72796847  0.62083349  1
  O  O196  1  0.96380125  0.23828996  0.14082017  1
  O  O197  1  0.97611460  0.24840364  0.62532180  1
  O  O198  1  0.98441391  0.74050970  0.11048020  1
  O  O199  1  1.00187149  0.77846673  0.62189972  1
  O  O200  1  -0.00965928  0.25214118  0.37245393  1
  O  O201  1  0.02894027  0.24899979  0.84825000  1
  O  O202  1  -0.01030829  0.73644574  0.36430081  1
  O  O203  1  0.03942529  0.79581045  0.83907323  1
  O  O204  1  0.48728703  0.24379750  0.35773949  1
  O  O205  1  0.52635189  0.29026000  0.90267790  1
  O  O206  1  0.50746141  0.73805986  0.36892443  1
  O  O207  1  0.49767683  0.75269421  0.88502476  1
  O  O208  1  0.30889228  0.15505795  0.54414118  1
  O  O209  1  0.25191948  0.16034230  1.00251017  1
  O  O210  1  0.23711354  0.62903791  0.48685156  1
  O  O211  1  0.23218609  0.62555480  0.99305701  1
  O  O212  1  0.73515946  0.13841400  0.49940284  1
  O  O213  1  0.72082968  0.13377208  1.00017068  1
  O  O214  1  0.74764011  0.64711894  0.52511140  1
  O  O215  1  0.75678802  0.62572804  0.99184021  1
  O  O216  1  0.25704606  0.35935462  0.01425010  1
  O  O217  1  0.26795287  0.36597492  0.49896515  1
  O  O218  1  0.25179748  0.85316769  -0.01143251  1
  O  O219  1  0.27055165  0.88937715  0.52105192  1
  O  O220  1  0.75459024  0.35771945  0.01548927  1
  O  O221  1  0.73742522  0.37065757  0.50894227  1
  O  O222  1  0.76637056  0.89935694  -0.01293690  1
  O  O223  1  0.73646197  0.86163463  0.51497433  1
  O  O224  1  0.13124165  0.50602508  0.23302613  1
  O  O225  1  0.15674237  0.48174238  0.75588668  1
  O  O226  1  0.12767341  0.98098526  0.26105900  1
  O  O227  1  0.12481035  1.03816736  0.68667603  1
  O  O228  1  0.61537282  0.48738534  0.24610182  1
  O  O229  1  0.64052169  0.49110455  0.74492985  1
  O  O230  1  0.61156394  0.97802188  0.22467617  1
  O  O231  1  0.62329573  0.99220814  0.73939420  1
  O  O232  1  0.35976795  -0.01321351  0.25559900  1
  O  O233  1  0.39980266  0.01121359  0.75921290  1
  O  O234  1  0.35398823  0.50941226  0.25484740  1
  O  O235  1  0.37050381  0.51379317  0.75167315  1
  O  O236  1  0.86914255  0.00049524  0.26097664  1
  O  O237  1  0.84578796  0.01723842  0.74725590  1
  O  O238  1  0.92400850  0.50108106  0.30318845  1
  O  O239  1  0.87047915  0.48597580  0.73163242  1
  O  O240  1  0.11393511  0.34634194  0.39383751  1
  O  O241  1  0.15238070  0.36342163  0.84749533  1
  O  O242  1  0.12993377  0.86455458  0.37822087  1
  O  O243  1  0.12309602  0.90505342  0.84838783  1
  O  O244  1  0.63627264  0.38043057  0.35682242  1
  O  O245  1  0.62909555  0.37587001  0.85463594  1
  O  O246  1  0.62076188  0.89251410  0.36116418  1
  O  O247  1  0.58986726  0.87859774  0.89016612  1
  O  O248  1  0.38235629  0.14373733  0.12635357  1
  O  O249  1  0.42578820  0.18278574  0.73374323  1
  O  O250  1  0.39746096  0.61976783  0.11771858  1
  O  O251  1  0.35010101  0.62314348  0.63854667  1
  O  O252  1  0.84739906  0.12675961  0.14740525  1
  O  O253  1  0.85559352  0.13794331  0.62714219  1
  O  O254  1  0.90017986  0.60163767  0.11498148  1
  O  O255  1  0.89180072  0.61573818  0.63986866  1
  O  O256  1  0.26592811  0.26816418  0.13126298  1
  O  O257  1  0.31046590  0.20768606  0.61096936  1
  O  O258  1  0.23492395  0.73515002  0.10360976  1
  O  O259  1  0.25257239  0.76882673  0.64693525  1
  O  O260  1  0.74375709  0.25047910  0.12131024  1
  O  O261  1  0.74536551  0.25896416  0.61094538  1
  O  O262  1  0.81203846  0.81243655  0.07366769  1
  O  O263  1  0.75016760  0.76782658  0.61428245  1
  O  O264  1  0.24942381  0.23054645  0.41313617  1
  O  O265  1  0.25534172  0.24096009  0.84832239  1
  O  O266  1  0.25092714  0.74911942  0.37212193  1
  O  O267  1  0.24727645  0.72628943  0.89171970  1
  O  O268  1  0.74639153  0.25967800  0.39406028  1
  O  O269  1  0.72101191  0.26099342  0.89850050  1
  O  O270  1  0.72775444  0.74760298  0.38695161  1
  O  O271  1  0.75374052  0.75879651  0.88581287  1
  O  O272  1  0.00446939  0.14396306  -0.02470841  1
  O  O273  1  0.01121912  0.12137867  0.49455942  1
  O  O274  1  0.00822399  0.61577107  0.00083731  1
  O  O275  1  0.01811165  0.62444354  0.50010314  1
  O  O276  1  0.49448710  0.12346710  0.00848685  1
  O  O277  1  0.49709601  0.11581048  0.50696656  1
  O  O278  1  0.51521419  0.62928314  0.00602300  1
  O  O279  1  0.48709824  0.61476282  0.51292575  1
  O  O280  1  0.48620760  0.38804158  0.48775267  1
  O  O281  1  0.48453634  0.38882940  1.01201962  1
  O  O282  1  0.49176518  0.88816840  0.51090783  1
  O  O283  1  0.47704039  0.88930625  0.99852052  1
  O  O284  1  0.99043633  0.35727987  0.51220911  1
  O  O285  1  0.97753720  0.34044058  1.02524669  1
  O  O286  1  1.05143350  0.94631901  0.49507992  1
  O  O287  1  1.01379887  0.88777646  0.95859312  1
  O  O288  1  0.48611941  0.51699813  0.39040954  1
  O  O289  1  0.51178918  0.49453531  0.87426186  1
  O  O290  1  0.48584569  1.00404980  0.34824526  1
  O  O291  1  0.48314783  1.00469088  0.89389539  1
  O  O292  1  0.97661712  0.51716901  0.35179477  1
  O  O293  1  1.00187486  0.45899408  0.85864148  1
  O  O294  1  0.98014328  1.01547866  0.37140542  1
  O  O295  1  1.02055243  1.00045566  0.87431809  1
  O  O296  1  0.07383474  -0.05224859  0.09743476  1
  O  O297  1  -0.02097034  0.02303588  0.61390068  1
  O  O298  1  0.01286173  0.47420743  0.13158878  1
  O  O299  1  0.04470815  0.52024009  0.66619382  1
  O  O300  1  0.48951647  0.01529376  0.11911244  1
  O  O301  1  0.49249504  0.00187902  0.62547683  1
  O  O302  1  0.48315779  0.52266999  0.12963916  1
  O  O303  1  0.48910034  0.51329738  0.61015155  1
  O  O304  1  0.25431424  0.39244335  0.23744143  1
  O  O305  1  0.27550083  0.36925354  0.72930427  1
  O  O306  1  0.22511540  0.86840789  0.25059156  1
  O  O307  1  0.28210723  0.88937955  0.74901788  1
  O  O308  1  0.73826359  0.37275903  0.24023884  1
  O  O309  1  0.74469813  0.37722999  0.73545156  1
  O  O310  1  0.72113378  0.85134016  0.23824261  1
  O  O311  1  0.75739423  0.88503949  0.73350045  1
  O  O312  1  0.23581860  0.10469741  0.24395834  1
  O  O313  1  0.27286569  0.11860975  0.74724475  1
  O  O314  1  0.23110402  0.62047300  0.26655438  1
  O  O315  1  0.25434835  0.62412411  0.76699934  1
  O  O316  1  0.69501793  0.10830887  0.25833557  1
  O  O317  1  0.73572392  0.10862231  0.73959287  1
  O  O318  1  0.75879562  0.62638719  0.26425269  1
  O  O319  1  0.76543047  0.60179020  0.72759511  1
  O  O320  1  0.36913632  0.10543398  0.37828640  1
  O  O321  1  0.36153012  0.13696263  0.88876173  1
  O  O322  1  0.34763355  0.62363270  0.38045226  1
  O  O323  1  0.36582244  0.61509943  0.87324346  1
  O  O324  1  0.85778567  0.12337493  0.37254167  1
  O  O325  1  0.84638050  0.15183092  0.85502940  1
  O  O326  1  0.77696741  0.59006691  0.34209585  1
  O  O327  1  0.83872496  0.62288607  0.85378399  1
  O  O328  1  0.14651771  0.38767160  0.11771989  1
  O  O329  1  0.12649271  0.38491152  0.64156701  1
  O  O330  1  0.08302014  0.87526811  0.09819636  1
  O  O331  1  0.15809924  0.88798737  0.62752541  1
  O  O332  1  0.64013808  0.37487369  0.13263197  1
  O  O333  1  0.63216220  0.36628548  0.63384300  1
  O  O334  1  0.62264483  0.89491054  0.09152787  1
  O  O335  1  0.60930676  0.83687530  0.66514498  1
  O  O336  1  0.17777523  0.27002727  0.27784303  1
  O  O337  1  0.14449422  0.26609899  0.73911705  1
  O  O338  1  0.10491450  0.76472925  0.24201416  1
  O  O339  1  0.03793335  0.73657920  0.67016422  1
  O  O340  1  0.60404873  0.26788566  0.24569757  1
  O  O341  1  0.62651255  0.25862491  0.76074373  1
  O  O342  1  0.61108569  0.75745314  0.27496972  1
  O  O343  1  0.62083792  0.78938910  0.71971020  1
  O  O344  1  0.38412703  0.26403441  0.23738439  1
  O  O345  1  0.43354165  0.24332787  0.79120144  1
  O  O346  1  0.39624519  0.76788727  0.25820046  1
  O  O347  1  0.37490285  0.72561106  0.76082137  1
  O  O348  1  0.84986119  0.24881524  0.24949812  1
  O  O349  1  0.85086148  0.24349083  0.73087770  1
  O  O350  1  0.88336461  0.77583360  0.25005246  1
  O  O351  1  0.86543197  0.73779328  0.74356323  1
  O  O352  1  0.37623325  0.48102084  0.49816615  1
  O  O353  1  0.35610842  0.48475929  1.00156127  1
  O  O354  1  0.39498908  0.99767953  0.48902690  1
  O  O355  1  0.36700551  1.00752613  1.00421860  1
  O  O356  1  0.89054784  0.48274817  0.52953566  1
  O  O357  1  0.87119262  0.46252481  0.99351322  1
  O  O358  1  0.87984314  1.01615027  0.48733012  1
  O  O359  1  0.91941750  1.01295752  1.04680173  1
  O  O360  1  0.16603541  0.01711756  -0.01022958  1
  O  O361  1  0.19083516  0.04403086  0.49798409  1
  O  O362  1  0.12782230  0.50144294  0.01044745  1
  O  O363  1  0.11628732  0.48451712  0.51247839  1
  O  O364  1  0.60633490  0.01944759  0.00376589  1
  O  O365  1  0.60213506  0.00521745  0.50283891  1
  O  O366  1  0.61850712  0.45420455  -0.01648091  1
  O  O367  1  0.60273063  0.49514152  0.49700925  1
  O  O368  1  0.36612717  0.37754080  0.12167086  1
  O  O369  1  0.41191164  0.33626061  0.64054630  1
  O  O370  1  0.37427956  0.87394832  0.10610828  1
  O  O371  1  0.37467235  0.86730732  0.61351268  1
  O  O372  1  0.85529725  0.35525282  0.12285124  1
  O  O373  1  0.85556490  0.35791283  0.61297523  1
  O  O374  1  0.89968278  0.94804270  0.07136100  1
  O  O375  1  0.87373659  0.87896601  0.62166127  1
  O  O376  1  0.16273617  0.09918800  0.45758430  1
  O  O377  1  0.15150148  0.14436487  0.86407137  1
  O  O378  1  0.13186910  0.62890916  0.39017843  1
  O  O379  1  0.11395869  0.60352020  0.88276894  1
  O  O380  1  0.61335185  0.11760534  0.40085012  1
  O  O381  1  0.60126748  0.15130314  0.89132469  1
  O  O382  1  0.62150351  0.62241739  0.37409425  1
  O  O383  1  0.65607142  0.62694878  0.85653428  1
