# generated using pymatgen
data_VZnO4
_symmetry_space_group_name_H-M   'P 1'
_cell_length_a   16.90443156
_cell_length_b   16.90212981
_cell_length_c   16.90837893
_cell_angle_alpha   89.70808491
_cell_angle_beta   90.14077500
_cell_angle_gamma   90.21808438
_symmetry_Int_Tables_number   1
_chemical_formula_structural   VZnO4
_chemical_formula_sum   'V64 Zn64 O256'
_cell_volume   4830.96513723
_cell_formula_units_Z   64
loop_
 _symmetry_equiv_pos_site_id
 _symmetry_equiv_pos_as_xyz
  1  'x, y, z'
loop_
 _atom_site_type_symbol
 _atom_site_label
 _atom_site_symmetry_multiplicity
 _atom_site_fract_x
 _atom_site_fract_y
 _atom_site_fract_z
 _atom_site_occupancy
  V  V0  1  0.13087228  0.12040629  -0.00918645  1
  V  V1  1  0.49581343  0.61258790  0.61603939  1
  V  V2  1  0.62233518  0.87803199  0.24198366  1
  V  V3  1  0.78253048  0.82069618  0.58238820  1
  V  V4  1  0.75567536  0.75495365  -0.02460105  1
  V  V5  1  0.00059318  0.73899152  0.27173097  1
  V  V6  1  0.61597566  0.12017134  0.02157091  1
  V  V7  1  0.00639296  -0.01541688  0.00274647  1
  V  V8  1  0.73772068  0.11556806  0.88377677  1
  V  V9  1  0.64610672  0.50179807  0.63675189  1
  V  V10  1  0.25635267  0.74673590  -0.02705633  1
  V  V11  1  0.87656918  0.25709095  0.13178607  1
  V  V12  1  0.75560033  0.24061712  0.51088369  1
  V  V13  1  0.12119617  0.75283440  0.41330316  1
  V  V14  1  0.37001872  0.75101118  0.61132767  1
  V  V15  1  0.53747888  0.25942626  0.76332674  1
  V  V16  1  0.23872885  0.27111956  -0.00070615  1
  V  V17  1  0.61068230  0.76629752  0.87559237  1
  V  V18  1  0.62078864  0.61039561  0.48897472  1
  V  V19  1  0.24501160  0.24606014  0.49760647  1
  V  V20  1  0.00327813  0.61989716  0.64765639  1
  V  V21  1  0.43141158  0.04207709  0.36812114  1
  V  V22  1  -0.00054039  0.03828942  0.48686034  1
  V  V23  1  0.38854862  0.37775380  0.50127728  1
  V  V24  1  0.25668526  0.90175231  0.61119092  1
  V  V25  1  0.01332397  0.62759612  0.11969733  1
  V  V26  1  0.37281704  0.61661676  0.76104910  1
  V  V27  1  0.24042607  0.61429349  0.39473174  1
  V  V28  1  0.36863508  0.02008201  0.88609175  1
  V  V29  1  0.25273828  0.48333156  0.74879443  1
  V  V30  1  0.50403050  0.24820790  0.25062761  1
  V  V31  1  0.12085393  0.35931308  0.76751792  1
  V  V32  1  0.38382606  0.49909948  0.36242613  1
  V  V33  1  0.00867560  0.38744518  0.37885181  1
  V  V34  1  0.13947285  0.40207273  0.25718480  1
  V  V35  1  0.40300583  0.38485454  -0.00009157  1
  V  V36  1  0.10306047  0.76924451  0.86561229  1
  V  V37  1  0.49914007  0.61111631  0.11753056  1
  V  V38  1  0.86303351  0.11453785  0.73763711  1
  V  V39  1  0.49739704  0.75994584  0.74765423  1
  V  V40  1  0.62532114  0.74813608  0.37105542  1
  V  V41  1  0.49774607  -0.01993162  0.00836382  1
  V  V42  1  0.75966931  0.61123665  0.37323667  1
  V  V43  1  0.11998108  0.48050169  0.61334024  1
  V  V44  1  0.37380267  0.24830874  0.63873625  1
  V  V45  1  0.86887869  0.74443580  0.15582628  1
  V  V46  1  0.38369350  0.24461387  0.12234998  1
  V  V47  1  0.51566862  0.12848758  0.61720980  1
  V  V48  1  0.49431853  0.74241105  0.24513354  1
  V  V49  1  -0.03754633  0.26011649  0.74961264  1
  V  V50  1  0.75422898  0.87620295  0.12847876  1
  V  V51  1  0.39411892  0.87862679  0.46572162  1
  V  V52  1  0.76150104  0.49503169  0.23255791  1
  V  V53  1  0.36751016  0.75753321  0.11799724  1
  V  V54  1  0.62353437  0.61715997  -0.00630496  1
  V  V55  1  0.61324789  0.38885997  0.23387998  1
  V  V56  1  0.75844581  0.12046264  0.37152031  1
  V  V57  1  -0.02654568  0.88434479  0.38999215  1
  V  V58  1  0.12799850  0.87860421  0.25627720  1
  V  V59  1  0.88906914  -0.01087442  0.87430478  1
  V  V60  1  0.71101293  -0.01415573  0.75073009  1
  V  V61  1  0.00010738  0.12520625  0.13088040  1
  V  V62  1  0.22779576  0.12082990  0.36823382  1
  V  V63  1  0.75663088  0.25342606  -0.00115160  1
  Zn  Zn64  1  0.19425813  0.18144225  0.17415147  1
  Zn  Zn65  1  0.16815397  0.19936255  0.65430824  1
  Zn  Zn66  1  0.21453924  0.63853112  0.19573676  1
  Zn  Zn67  1  0.19261834  0.67265300  0.66736624  1
  Zn  Zn68  1  0.69009673  0.19896669  0.18512621  1
  Zn  Zn69  1  0.68492369  0.17705437  0.68817092  1
  Zn  Zn70  1  0.68406312  0.67525220  0.18759281  1
  Zn  Zn71  1  0.66635152  0.71523179  0.67135718  1
  Zn  Zn72  1  0.31453430  0.30841500  0.31440237  1
  Zn  Zn73  1  0.31854885  0.30249826  0.82596437  1
  Zn  Zn74  1  0.29672064  0.78042005  0.31230032  1
  Zn  Zn75  1  0.30218382  0.82236022  0.78497332  1
  Zn  Zn76  1  0.78601011  0.30466407  0.30786163  1
  Zn  Zn77  1  0.75323822  0.29716920  0.79460758  1
  Zn  Zn78  1  0.80128296  0.81163164  0.31860382  1
  Zn  Zn79  1  0.81594483  0.82616230  0.77652951  1
  Zn  Zn80  1  0.19606242  0.42398382  0.43737307  1
  Zn  Zn81  1  0.27851097  0.45393765  0.92693235  1
  Zn  Zn82  1  0.17090907  0.94458612  0.45025353  1
  Zn  Zn83  1  0.19150694  0.92950814  0.93568496  1
  Zn  Zn84  1  0.66922797  0.43526889  0.42146193  1
  Zn  Zn85  1  0.73140077  0.45398364  0.94460119  1
  Zn  Zn86  1  0.71141046  0.92119872  0.42487722  1
  Zn  Zn87  1  0.68272317  0.93830569  0.94405767  1
  Zn  Zn88  1  0.31504645  0.05891487  0.06826861  1
  Zn  Zn89  1  0.34089163  0.06937771  0.54078517  1
  Zn  Zn90  1  0.31135079  0.56937885  0.06078581  1
  Zn  Zn91  1  0.30613642  0.55478194  0.56434509  1
  Zn  Zn92  1  0.82477334  0.05791299  0.06156017  1
  Zn  Zn93  1  0.77839609  0.04454433  0.55949653  1
  Zn  Zn94  1  0.81060656  0.58182890  0.06202790  1
  Zn  Zn95  1  0.79094410  0.62142697  0.58715694  1
  Zn  Zn96  1  0.42109517  0.43392397  0.18241110  1
  Zn  Zn97  1  0.43983475  0.42884645  0.69098736  1
  Zn  Zn98  1  0.39919762  0.95814064  0.18047261  1
  Zn  Zn99  1  0.44191129  0.94166669  0.67815240  1
  Zn  Zn100  1  0.94607964  0.43916396  0.19054055  1
  Zn  Zn101  1  0.95871139  0.46064282  0.71883654  1
  Zn  Zn102  1  0.94384522  0.93132889  0.19029997  1
  Zn  Zn103  1  0.93162266  0.93254798  0.67910281  1
  Zn  Zn104  1  0.06051071  0.06205294  0.31246266  1
  Zn  Zn105  1  0.05352143  0.11946720  0.81034639  1
  Zn  Zn106  1  0.06266300  0.56275732  0.33272768  1
  Zn  Zn107  1  0.08459691  0.55689919  0.81255110  1
  Zn  Zn108  1  0.59905848  0.08306558  0.28339131  1
  Zn  Zn109  1  0.54214484  0.07164457  0.82010711  1
  Zn  Zn110  1  0.56100824  0.55567415  0.30189544  1
  Zn  Zn111  1  0.57687668  0.58733669  0.79922533  1
  Zn  Zn112  1  0.44244197  0.20374926  0.43730860  1
  Zn  Zn113  1  0.43986926  0.19522627  0.93687476  1
  Zn  Zn114  1  0.43636929  0.67976912  0.43048350  1
  Zn  Zn115  1  0.43670302  0.68764763  0.94115111  1
  Zn  Zn116  1  0.91285278  0.20039064  0.42566004  1
  Zn  Zn117  1  0.93427377  0.17739551  0.93415320  1
  Zn  Zn118  1  0.91662037  0.70641526  0.45995861  1
  Zn  Zn119  1  0.95050413  0.69647265  0.94486498  1
  Zn  Zn120  1  0.05913363  0.30880723  0.05876994  1
  Zn  Zn121  1  0.05597561  0.30382501  0.56759285  1
  Zn  Zn122  1  0.11667745  0.82293912  0.05348209  1
  Zn  Zn123  1  0.05938360  0.84168347  0.58018230  1
  Zn  Zn124  1  0.57518453  0.31096047  0.06206001  1
  Zn  Zn125  1  0.56296557  0.32304964  0.57735254  1
  Zn  Zn126  1  0.56352786  0.80815168  0.06541147  1
  Zn  Zn127  1  0.56694100  0.80695344  0.55748718  1
  O  O128  1  0.10809144  0.12882712  0.11417801  1
  O  O129  1  0.12621784  0.09669295  0.70777429  1
  O  O130  1  0.10894443  0.64595535  0.14756040  1
  O  O131  1  0.10938462  0.60436724  0.63339782  1
  O  O132  1  0.63256538  0.11703377  0.12010856  1
  O  O133  1  0.61745045  0.12142379  0.61807877  1
  O  O134  1  0.61430041  0.63172250  0.10503852  1
  O  O135  1  0.61416317  0.62165786  0.60919948  1
  O  O136  1  0.36530882  0.39030003  0.38872943  1
  O  O137  1  0.36909853  0.37793139  0.89656116  1
  O  O138  1  0.38092360  0.83914823  0.37538882  1
  O  O139  1  0.37907696  0.90472103  0.82945691  1
  O  O140  1  0.89772622  0.34901868  0.35544591  1
  O  O141  1  0.80403982  0.46556458  0.78636904  1
  O  O142  1  0.87205675  0.87912914  0.37650598  1
  O  O143  1  0.87424025  0.89084948  0.85464485  1
  O  O144  1  0.23457095  0.01939711  0.38855091  1
  O  O145  1  0.26882102  -0.00172424  0.89173793  1
  O  O146  1  0.24482716  0.51325138  0.37924890  1
  O  O147  1  0.23416701  0.51564758  0.84555413  1
  O  O148  1  0.72214373  0.02385900  0.38632011  1
  O  O149  1  0.75154655  0.00117835  0.87072154  1
  O  O150  1  0.74948688  0.50814398  0.37848739  1
  O  O151  1  0.83695980  0.50060019  0.98009518  1
  O  O152  1  0.25305978  0.54216821  0.15150643  1
  O  O153  1  0.23423533  0.50705576  0.64257731  1
  O  O154  1  0.29479160  0.99909643  0.15944396  1
  O  O155  1  0.28694120  0.99844233  0.61487192  1
  O  O156  1  0.75641827  0.51095806  0.13274682  1
  O  O157  1  0.74353680  0.51821621  0.61438582  1
  O  O158  1  0.76357747  0.97405863  0.11432233  1
  O  O159  1  0.72937685  1.00069982  0.65167056  1
  O  O160  1  0.02099162  0.38951282  0.26280837  1
  O  O161  1  0.00406718  0.36352261  0.76496188  1
  O  O162  1  -0.00367993  0.86642726  0.27239930  1
  O  O163  1  0.02803696  0.88087151  0.67761330  1
  O  O164  1  0.50766116  0.37760750  0.23433454  1
  O  O165  1  0.50582333  0.35642052  0.74725282  1
  O  O166  1  0.51874387  0.84988013  0.24233243  1
  O  O167  1  0.50427151  0.85688019  0.73206304  1
  O  O168  1  0.51230007  0.14880647  0.23878192  1
  O  O169  1  0.51948025  0.15056113  0.73980934  1
  O  O170  1  0.51231207  0.63279037  0.22807464  1
  O  O171  1  0.48800307  0.62721475  0.73625000  1
  O  O172  1  1.00187047  0.11654634  0.23055699  1
  O  O173  1  0.96641856  0.13574367  0.73616757  1
  O  O174  1  0.99388944  0.63852651  0.27686991  1
  O  O175  1  0.98571302  0.57179058  0.74727616  1
  O  O176  1  0.37752346  0.26818138  0.00504859  1
  O  O177  1  0.36851157  0.26263616  0.50495544  1
  O  O178  1  0.36686024  0.75529023  0.00544124  1
  O  O179  1  0.39044674  0.75163193  0.51070345  1
  O  O180  1  0.86334614  0.24251043  0.00036919  1
  O  O181  1  0.85430017  0.26307916  0.50206021  1
  O  O182  1  0.85549247  0.75142969  -0.02253581  1
  O  O183  1  0.83465395  0.76071811  0.51852387  1
  O  O184  1  0.14659853  0.23302312  0.53870545  1
  O  O185  1  0.13426257  0.23953634  1.00432379  1
  O  O186  1  0.08815379  0.75370344  0.50902943  1
  O  O187  1  0.13336592  0.74382223  0.96551762  1
  O  O188  1  0.64404259  0.28684401  0.49496169  1
  O  O189  1  0.64352825  0.22969550  1.00877481  1
  O  O190  1  0.60798902  0.73480900  0.47324067  1
  O  O191  1  0.62181949  0.74713170  0.98391755  1
  O  O192  1  0.48955964  0.25994147  0.12492602  1
  O  O193  1  0.50177517  0.24820134  0.64076886  1
  O  O194  1  0.49366765  0.74283432  0.12919262  1
  O  O195  1  0.49899569  0.73634100  0.63315168  1
  O  O196  1  0.98838733  0.23649017  0.11542417  1
  O  O197  1  0.99151708  0.25778462  0.65171754  1
  O  O198  1  0.98524292  0.74291051  0.16033714  1
  O  O199  1  0.99522201  0.71381260  0.66676647  1
  O  O200  1  -0.05114687  0.28384497  0.34859670  1
  O  O201  1  -0.00247303  0.22684784  0.84589091  1
  O  O202  1  -0.01601986  0.76190314  0.38363242  1
  O  O203  1  0.00249587  0.76445924  0.87035517  1
  O  O204  1  0.49126102  0.25904388  0.35031077  1
  O  O205  1  0.51176482  0.24667419  0.86046329  1
  O  O206  1  0.50963261  0.73048377  0.35381118  1
  O  O207  1  0.49942058  0.75172064  0.86072750  1
  O  O208  1  0.26562335  0.13782914  0.48632385  1
  O  O209  1  0.22976319  0.11302267  1.01469999  1
  O  O210  1  0.25225582  0.62818921  0.49521256  1
  O  O211  1  0.25386910  0.64655547  0.99308683  1
  O  O212  1  0.74668363  0.13167446  0.48939444  1
  O  O213  1  0.74408878  0.11320840  0.99349187  1
  O  O214  1  0.72653101  0.62694514  0.48735626  1
  O  O215  1  0.73422182  0.65121604  1.00380389  1
  O  O216  1  0.23062607  0.37130866  -0.00281451  1
  O  O217  1  0.25700832  0.35312162  0.50147343  1
  O  O218  1  0.22712932  0.84555189  0.01274485  1
  O  O219  1  0.29873152  0.88120296  0.50639070  1
  O  O220  1  0.74141564  0.35054681  -0.01310410  1
  O  O221  1  0.70450122  0.34541760  0.49408496  1
  O  O222  1  0.73773979  0.85595956  0.01431920  1
  O  O223  1  0.76761144  0.90474024  0.52046586  1
  O  O224  1  0.13000637  0.50359743  0.25693616  1
  O  O225  1  0.13161350  0.47652411  0.74305753  1
  O  O226  1  0.11667674  0.97896290  0.26086011  1
  O  O227  1  0.19794647  1.06249011  0.74455572  1
  O  O228  1  0.63419568  0.49600496  0.24092342  1
  O  O229  1  0.64212860  0.52380834  0.73617425  1
  O  O230  1  0.61475400  0.97525785  0.24713692  1
  O  O231  1  0.61346408  1.00073389  0.76245825  1
  O  O232  1  0.41770338  -0.01526141  0.28776115  1
  O  O233  1  0.37995710  -0.02836214  0.77830978  1
  O  O234  1  0.36917160  0.49470445  0.26349911  1
  O  O235  1  0.36480123  0.50391074  0.74239232  1
  O  O236  1  0.86214009  0.00356865  0.22210159  1
  O  O237  1  0.87356641  0.00704830  0.75315129  1
  O  O238  1  0.86003279  0.49100623  0.25058517  1
  O  O239  1  0.84264235  0.42719214  0.72951077  1
  O  O240  1  0.11958778  0.37626952  0.36451246  1
  O  O241  1  0.13076558  0.36434138  0.86303722  1
  O  O242  1  0.10310221  0.86686531  0.38554233  1
  O  O243  1  0.13298349  0.86553404  0.85702413  1
  O  O244  1  0.61913646  0.37699225  0.34287232  1
  O  O245  1  0.57506065  0.42498180  0.87085730  1
  O  O246  1  0.63734685  0.85599322  0.36233046  1
  O  O247  1  0.61460996  0.86452355  0.88010046  1
  O  O248  1  0.38284082  0.14528054  0.11162163  1
  O  O249  1  0.39115805  0.14619321  0.61804205  1
  O  O250  1  0.39652990  0.63734942  0.10901678  1
  O  O251  1  0.38744356  0.62965254  0.62176993  1
  O  O252  1  0.89043368  0.13161174  0.11547321  1
  O  O253  1  0.84031819  0.11945369  0.64248714  1
  O  O254  1  0.88578287  0.64833173  0.11536840  1
  O  O255  1  0.90527948  0.59306309  0.59084416  1
  O  O256  1  0.26576583  0.24619953  0.10521821  1
  O  O257  1  0.27076226  0.24035070  0.61733238  1
  O  O258  1  0.27131779  0.73193673  0.13535894  1
  O  O259  1  0.26936644  0.74088357  0.61688904  1
  O  O260  1  0.76469776  0.24064834  0.10803804  1
  O  O261  1  0.74304144  0.24105912  0.61133654  1
  O  O262  1  0.76306905  0.74743421  0.13166461  1
  O  O263  1  0.77614492  0.71047684  0.65489493  1
  O  O264  1  0.24720095  0.24382612  0.38966905  1
  O  O265  1  0.26129170  0.24203601  0.90485884  1
  O  O266  1  0.21940247  0.76472638  0.41733698  1
  O  O267  1  0.27071952  0.75961015  0.87392894  1
  O  O268  1  0.74843550  0.23266764  0.38740299  1
  O  O269  1  0.75500047  0.22455801  0.88772737  1
  O  O270  1  0.73080319  0.72948215  0.36540028  1
  O  O271  1  0.73143684  0.75971664  0.87458922  1
  O  O272  1  0.01122693  0.11460303  0.00089610  1
  O  O273  1  -0.00654256  0.13789505  0.47474250  1
  O  O274  1  0.01202227  0.63950590  0.01868582  1
  O  O275  1  -0.03620411  0.62272560  0.53596655  1
  O  O276  1  0.51692708  0.13353941  0.00414880  1
  O  O277  1  0.50502862  0.15044300  0.51639804  1
  O  O278  1  0.51223603  0.62230526  0.00289593  1
  O  O279  1  0.50557998  0.62304596  0.50918930  1
  O  O280  1  0.48829607  0.36871362  0.49745183  1
  O  O281  1  0.50293266  0.38094150  1.00035838  1
  O  O282  1  0.49067110  0.86902221  0.50359282  1
  O  O283  1  0.50388459  0.88057020  0.99935062  1
  O  O284  1  1.01342351  0.35033252  0.47469321  1
  O  O285  1  1.02144382  0.40744285  1.00259543  1
  O  O286  1  0.98593446  0.88253652  0.49053349  1
  O  O287  1  1.01854364  0.88593919  1.00870705  1
  O  O288  1  0.48387388  0.50731139  0.37119566  1
  O  O289  1  0.52466416  0.47721267  0.86264213  1
  O  O290  1  0.53074702  1.06432726  0.37433639  1
  O  O291  1  0.48570171  1.00760055  0.89456344  1
  O  O292  1  0.99708377  0.48711648  0.39014188  1
  O  O293  1  1.03994104  0.50546737  0.91701907  1
  O  O294  1  0.99092549  0.99550019  0.38388291  1
  O  O295  1  0.99160239  1.00479312  0.87744471  1
  O  O296  1  -0.00794214  0.00672740  0.10753605  1
  O  O297  1  -0.05221035  0.01828604  0.58712600  1
  O  O298  1  -0.00663020  0.52943672  0.13615915  1
  O  O299  1  0.01514946  0.48787905  0.62039801  1
  O  O300  1  0.48578648  -0.00623145  0.10839279  1
  O  O301  1  0.48625834  0.02853300  0.62829844  1
  O  O302  1  0.49221671  0.51313649  0.12631454  1
  O  O303  1  0.50597739  0.51267457  0.63256588  1
  O  O304  1  0.23843642  0.38099848  0.26593274  1
  O  O305  1  0.24958883  0.38061841  0.75725815  1
  O  O306  1  0.22648688  0.86042074  0.27216217  1
  O  O307  1  0.23731871  0.87134813  0.70700338  1
  O  O308  1  0.73963675  0.38965114  0.24947632  1
  O  O309  1  0.75475313  0.41233700  0.83191467  1
  O  O310  1  0.73985816  0.86950000  0.23858560  1
  O  O311  1  0.72084420  0.88564097  0.76274470  1
  O  O312  1  0.24351557  0.13783787  0.26661349  1
  O  O313  1  0.25785655  0.10556028  0.73757634  1
  O  O314  1  0.25397753  0.66972476  0.30077805  1
  O  O315  1  0.27312172  0.62504352  0.74033418  1
  O  O316  1  0.70429275  0.13125760  0.27788123  1
  O  O317  1  0.74638641  0.11211899  0.76731556  1
  O  O318  1  0.74558186  0.60830575  0.26347739  1
  O  O319  1  0.83731399  0.65789274  0.75995002  1
  O  O320  1  0.37712561  0.12859696  0.36991831  1
  O  O321  1  0.37496923  0.12037730  0.87473156  1
  O  O322  1  0.36211087  0.60435027  0.38938925  1
  O  O323  1  0.38569755  0.62097927  0.85928971  1
  O  O324  1  0.85782476  0.11657471  0.36131129  1
  O  O325  1  0.86127687  0.10612547  0.86689364  1
  O  O326  1  0.85502540  0.63004558  0.39286185  1
  O  O327  1  0.87941366  0.59959859  0.89612814  1
  O  O328  1  0.12940753  0.34967752  0.15175133  1
  O  O329  1  0.12351608  0.37739386  0.63495215  1
  O  O330  1  0.11057612  0.85541501  0.15843154  1
  O  O331  1  0.16467889  0.89612930  0.56287511  1
  O  O332  1  0.63354382  0.37865530  0.13170662  1
  O  O333  1  0.62759144  0.40294788  0.62849233  1
  O  O334  1  0.64033383  0.86129192  0.13484600  1
  O  O335  1  0.67396636  0.80999963  0.60059278  1
  O  O336  1  0.12717953  0.28770629  0.20750723  1
  O  O337  1  0.13367927  0.26010692  0.74503576  1
  O  O338  1  0.10198141  0.75502070  0.28730985  1
  O  O339  1  0.13053592  0.71864834  0.76610411  1
  O  O340  1  0.61124930  0.26825521  0.23453365  1
  O  O341  1  0.64530734  0.26472778  0.75683313  1
  O  O342  1  0.61957414  0.74551851  0.25564604  1
  O  O343  1  0.60584636  0.73577014  0.76375820  1
  O  O344  1  0.38464225  0.26455519  0.23095574  1
  O  O345  1  0.37067402  0.25307204  0.73955359  1
  O  O346  1  0.39164341  0.74480206  0.24027395  1
  O  O347  1  0.38550787  0.73720302  0.73836519  1
  O  O348  1  0.85373660  0.24551336  0.22865723  1
  O  O349  1  0.85780851  0.24783813  0.75582743  1
  O  O350  1  0.87304615  0.74306384  0.25850961  1
  O  O351  1  0.87400253  0.71505211  0.78903938  1
  O  O352  1  0.36989298  0.48045234  0.50797491  1
  O  O353  1  0.36454353  0.48755156  1.00075147  1
  O  O354  1  0.39900232  0.99144982  0.45975882  1
  O  O355  1  0.38496264  1.00220111  0.99419106  1
  O  O356  1  0.86481623  0.45547455  0.49278366  1
  O  O357  1  0.88889649  0.52581686  0.91725405  1
  O  O358  1  0.89060440  1.00840486  0.52542501  1
  O  O359  1  0.88908883  0.99394019  0.98357707  1
  O  O360  1  0.11344616  0.00533562  -0.00838875  1
  O  O361  1  0.09482341  0.02102214  0.50792096  1
  O  O362  1  0.07464669  0.45788872  -0.03105460  1
  O  O363  1  0.13767291  0.48598038  0.51553376  1
  O  O364  1  0.60945900  0.00781691  0.00158550  1
  O  O365  1  0.62225184  -0.03570987  0.53028308  1
  O  O366  1  0.64864502  0.51995580  -0.01674048  1
  O  O367  1  0.62022130  0.50895432  0.50255640  1
  O  O368  1  0.37205145  0.36984083  0.10336647  1
  O  O369  1  0.38329856  0.36076073  0.61526305  1
  O  O370  1  0.37639755  0.85581743  0.13061297  1
  O  O371  1  0.37448767  0.85611617  0.63160664  1
  O  O372  1  0.89436451  0.35701986  0.12342267  1
  O  O373  1  0.87202935  0.41574266  0.55253197  1
  O  O374  1  0.86650370  0.85171996  0.12999057  1
  O  O375  1  0.84381016  0.85581383  0.66048108  1
  O  O376  1  0.12742740  0.13397982  0.37192877  1
  O  O377  1  0.13153919  0.12441990  0.88998345  1
  O  O378  1  0.12849435  0.63906589  0.39401362  1
  O  O379  1  0.13807417  0.66121956  0.83027028  1
  O  O380  1  0.57379010  0.00962911  0.50166121  1
  O  O381  1  0.63617271  0.11646835  0.88677851  1
  O  O382  1  0.62399764  0.62087192  0.37965905  1
  O  O383  1  0.61809150  0.64099361  0.88781090  1
