# generated using pymatgen
data_VZnO4
_symmetry_space_group_name_H-M   'P 1'
_cell_length_a   16.94980470
_cell_length_b   16.88506164
_cell_length_c   16.90164203
_cell_angle_alpha   89.71299517
_cell_angle_beta   89.83724399
_cell_angle_gamma   90.26053204
_symmetry_Int_Tables_number   1
_chemical_formula_structural   VZnO4
_chemical_formula_sum   'V64 Zn64 O256'
_cell_volume   4837.09402270
_cell_formula_units_Z   64
loop_
 _symmetry_equiv_pos_site_id
 _symmetry_equiv_pos_as_xyz
  1  'x, y, z'
loop_
 _atom_site_type_symbol
 _atom_site_label
 _atom_site_symmetry_multiplicity
 _atom_site_fract_x
 _atom_site_fract_y
 _atom_site_fract_z
 _atom_site_occupancy
  V  V0  1  0.13302485  0.62297711  -0.00678217  1
  V  V1  1  0.72751861  -0.01016212  0.73448678  1
  V  V2  1  -0.00623181  0.00207338  0.52429633  1
  V  V3  1  0.49753183  0.25411382  0.76132126  1
  V  V4  1  0.50193745  0.37631117  0.39046084  1
  V  V5  1  0.86308671  0.59527669  0.74796123  1
  V  V6  1  0.37672238  0.11921912  0.76729462  1
  V  V7  1  0.49836579  0.73289719  0.23352581  1
  V  V8  1  0.48459690  0.86589191  0.37625047  1
  V  V9  1  0.75065967  0.00150507  0.23384532  1
  V  V10  1  0.11931927  0.88547059  0.73852642  1
  V  V11  1  0.61610810  0.50325132  0.62161398  1
  V  V12  1  0.49989726  0.38909840  0.87646175  1
  V  V13  1  0.86635768  0.12492327  0.73777058  1
  V  V14  1  0.62838855  0.74745645  0.86505603  1
  V  V15  1  0.23615592  0.12156947  0.87918539  1
  V  V16  1  -0.00349193  -0.00260236  0.00625550  1
  V  V17  1  -0.00726259  0.36910783  0.36769595  1
  V  V18  1  0.24872092  0.37152771  0.63034852  1
  V  V19  1  0.61384710  0.62799890  -0.00052198  1
  V  V20  1  0.62530312  0.74385604  0.36472827  1
  V  V21  1  0.38138919  0.74176112  0.11074002  1
  V  V22  1  0.87545356  0.74905385  0.14638311  1
  V  V23  1  0.61790293  0.37110885  0.24403706  1
  V  V24  1  0.76252582  0.61861243  0.36749986  1
  V  V25  1  0.37782141  0.38108685  -0.00050815  1
  V  V26  1  0.50263385  0.88642308  0.86163226  1
  V  V27  1  0.38176265  0.24245234  0.13000437  1
  V  V28  1  -0.00427089  0.87388790  0.37203092  1
  V  V29  1  0.17002479  0.73040284  0.39788088  1
  V  V30  1  0.22350762  0.10185030  0.38102302  1
  V  V31  1  0.74680871  0.11920994  0.87893564  1
  V  V32  1  0.61094542  0.61510650  0.49393503  1
  V  V33  1  0.38033352  0.24992260  0.60796245  1
  V  V34  1  0.51426540  0.12248812  0.61455251  1
  V  V35  1  0.49041939  0.73643421  0.74187193  1
  V  V36  1  0.75879033  0.76022046  0.00002649  1
  V  V37  1  0.61838900  0.13537364  0.01009562  1
  V  V38  1  0.62596788  0.87834684  0.23099149  1
  V  V39  1  0.10897470  0.49050035  0.63157707  1
  V  V40  1  0.36558566  0.50590905  0.85613561  1
  V  V41  1  0.38517243  0.51323444  0.35778982  1
  V  V42  1  0.24529326  0.39270373  0.12513141  1
  V  V43  1  0.86532327  -0.00157196  0.38823481  1
  V  V44  1  0.25311357  0.63963485  0.85414030  1
  V  V45  1  0.76718073  0.25619809  0.00929350  1
  V  V46  1  0.75462274  0.38344689  0.59155510  1
  V  V47  1  0.10458899  0.75620022  0.86279757  1
  V  V48  1  0.23149626  0.25081955  -0.00177651  1
  V  V49  1  -0.00738379  0.62129638  0.09305237  1
  V  V50  1  -0.00452325  0.63396084  0.62750219  1
  V  V51  1  0.63648169  0.38120293  0.75402430  1
  V  V52  1  0.60544009  0.50652121  0.12265785  1
  V  V53  1  0.76306613  0.50417921  0.23432202  1
  V  V54  1  0.50716808  0.00306541  0.01606802  1
  V  V55  1  0.74671126  0.13933030  0.37685380  1
  V  V56  1  0.37411753  0.88407184  -0.00699927  1
  V  V57  1  0.13943720  0.35691694  0.25485695  1
  V  V58  1  0.75053415  0.75511547  0.50916983  1
  V  V59  1  0.25551129  0.00018575  0.22648612  1
  V  V60  1  0.23718863  0.24539691  0.48971365  1
  V  V61  1  0.24552961  0.86462784  0.11936348  1
  V  V62  1  -0.01155189  0.24824419  0.77146246  1
  V  V63  1  0.26369272  0.85607339  0.62688023  1
  Zn  Zn64  1  0.24042895  0.20924452  0.21969409  1
  Zn  Zn65  1  0.20707396  0.21452014  0.70761315  1
  Zn  Zn66  1  0.02731224  0.70154660  0.27754795  1
  Zn  Zn67  1  0.17781511  0.69000084  0.67631317  1
  Zn  Zn68  1  0.68699769  0.18207873  0.18654512  1
  Zn  Zn69  1  0.68616974  0.19674681  0.69460847  1
  Zn  Zn70  1  0.69123755  0.68575606  0.17935797  1
  Zn  Zn71  1  0.68495874  0.68322707  0.68550568  1
  Zn  Zn72  1  0.36547401  0.28364298  0.34189585  1
  Zn  Zn73  1  0.31379996  0.31021898  0.81523505  1
  Zn  Zn74  1  0.31034840  0.80652199  0.29735774  1
  Zn  Zn75  1  0.31537192  0.82120492  0.80073325  1
  Zn  Zn76  1  0.81396057  0.32670524  0.29905399  1
  Zn  Zn77  1  0.80941296  0.30498484  0.83234909  1
  Zn  Zn78  1  0.80765688  0.81691868  0.31494231  1
  Zn  Zn79  1  0.80061854  0.83131267  0.82018809  1
  Zn  Zn80  1  0.17589414  0.42763600  0.45049359  1
  Zn  Zn81  1  0.20689379  0.45969532  0.95329646  1
  Zn  Zn82  1  0.17292138  0.92192691  0.46496446  1
  Zn  Zn83  1  0.18525530  0.93265885  0.93283330  1
  Zn  Zn84  1  0.68704474  0.43820501  0.42526817  1
  Zn  Zn85  1  0.66679071  0.42002597  0.96247049  1
  Zn  Zn86  1  0.68874441  0.92887156  0.42378228  1
  Zn  Zn87  1  0.68077064  0.93858474  0.93473595  1
  Zn  Zn88  1  0.31484872  0.06412063  0.05057760  1
  Zn  Zn89  1  0.33387538  0.07833430  0.54915661  1
  Zn  Zn90  1  0.31721122  0.56835573  0.04718040  1
  Zn  Zn91  1  0.26519707  0.55638234  0.54952341  1
  Zn  Zn92  1  0.80897629  0.06575585  0.05959097  1
  Zn  Zn93  1  0.80384435  0.07233955  0.56191745  1
  Zn  Zn94  1  0.79950328  0.57378625  0.04983637  1
  Zn  Zn95  1  0.81152024  0.57023176  0.55717991  1
  Zn  Zn96  1  0.43181877  0.43817056  0.18810826  1
  Zn  Zn97  1  0.43426526  0.43558178  0.67907740  1
  Zn  Zn98  1  0.43396386  0.93203244  0.19188424  1
  Zn  Zn99  1  0.43923380  0.94167508  0.67879022  1
  Zn  Zn100  1  0.97877813  0.50681549  0.24697882  1
  Zn  Zn101  1  0.93052666  0.42350342  0.68980870  1
  Zn  Zn102  1  0.92896920  0.93570394  0.19064177  1
  Zn  Zn103  1  0.92723654  0.93730050  0.71968052  1
  Zn  Zn104  1  0.07983029  0.01399605  0.32722138  1
  Zn  Zn105  1  0.05896456  0.06637003  0.80808379  1
  Zn  Zn106  1  0.05613754  0.56010627  0.41575257  1
  Zn  Zn107  1  0.06715093  0.56571547  0.80170304  1
  Zn  Zn108  1  0.57459359  0.04023641  0.33589690  1
  Zn  Zn109  1  0.56737924  0.06946334  0.81884304  1
  Zn  Zn110  1  0.56242301  0.55665082  0.30839781  1
  Zn  Zn111  1  0.56526829  0.56511693  0.80965475  1
  Zn  Zn112  1  0.54337478  0.18742957  0.41093672  1
  Zn  Zn113  1  0.43732202  0.19209260  0.94517777  1
  Zn  Zn114  1  0.43108040  0.70044561  0.43550771  1
  Zn  Zn115  1  0.43715300  0.69184846  0.92591221  1
  Zn  Zn116  1  0.95743320  0.16630008  0.41336629  1
  Zn  Zn117  1  0.93247093  0.18329260  0.94127885  1
  Zn  Zn118  1  0.92935089  0.69715046  0.44295934  1
  Zn  Zn119  1  0.92905967  0.68771793  0.92042958  1
  Zn  Zn120  1  0.06137564  0.34427366  0.05495166  1
  Zn  Zn121  1  0.07329411  0.28991473  0.58184803  1
  Zn  Zn122  1  0.06548043  0.78678131  0.06851711  1
  Zn  Zn123  1  0.06041661  0.82570438  0.55534104  1
  Zn  Zn124  1  0.56250615  0.31368983  0.06952417  1
  Zn  Zn125  1  0.56940504  0.30918817  0.57258969  1
  Zn  Zn126  1  0.56204582  0.81547402  0.05090349  1
  Zn  Zn127  1  0.55385715  0.79651752  0.54849147  1
  O  O128  1  0.03416349  0.14104992  0.19635703  1
  O  O129  1  0.16553807  0.09362604  0.63953346  1
  O  O130  1  0.10972262  0.63721760  0.09307039  1
  O  O131  1  0.10276260  0.60994935  0.62647021  1
  O  O132  1  0.62204763  0.12181365  0.10962749  1
  O  O133  1  0.60809882  0.12969191  0.64740004  1
  O  O134  1  0.62273993  0.62036663  0.11088686  1
  O  O135  1  0.62733187  0.61045394  0.60928260  1
  O  O136  1  0.39628809  0.39057254  0.37574599  1
  O  O137  1  0.38139945  0.38522347  0.87556222  1
  O  O138  1  0.38954349  0.87582533  0.35108885  1
  O  O139  1  0.38848847  0.86947293  0.88556937  1
  O  O140  1  0.89672557  0.39021157  0.35011278  1
  O  O141  1  0.86455487  0.39892543  0.88953970  1
  O  O142  1  0.87413407  0.88986005  0.37220801  1
  O  O143  1  0.89562594  0.88356396  0.81776963  1
  O  O144  1  0.23807185  0.00344148  0.38996941  1
  O  O145  1  0.24590564  0.02196175  0.89306119  1
  O  O146  1  0.27817546  0.49747991  0.39967738  1
  O  O147  1  0.26071880  0.50547633  0.86394671  1
  O  O148  1  0.75067171  0.00752628  0.36939529  1
  O  O149  1  0.73833564  0.01118699  0.86452620  1
  O  O150  1  0.74797149  0.51349718  0.36070070  1
  O  O151  1  0.82263003  0.45906274  0.91854495  1
  O  O152  1  0.25496927  0.49114152  0.10754049  1
  O  O153  1  0.26392037  0.46802801  0.64318416  1
  O  O154  1  0.25389143  0.99247912  0.12094133  1
  O  O155  1  0.22018610  1.04601199  0.63008017  1
  O  O156  1  0.74321218  0.51308236  0.13190703  1
  O  O157  1  0.73779142  0.49000492  0.60684486  1
  O  O158  1  0.75273878  1.00069609  0.13365996  1
  O  O159  1  0.73900456  1.01287544  0.63516515  1
  O  O160  1  0.03416878  0.39704603  0.26589152  1
  O  O161  1  -0.00705220  0.34632886  0.74680091  1
  O  O162  1  -0.00683847  0.88791249  0.26917914  1
  O  O163  1  0.02063297  0.86736373  0.73221118  1
  O  O164  1  0.51474445  0.38137999  0.24583905  1
  O  O165  1  0.50085646  0.37110863  0.75932382  1
  O  O166  1  0.51308963  0.86727978  0.25407059  1
  O  O167  1  0.49534112  0.87728964  0.76083591  1
  O  O168  1  0.46209495  0.10627258  0.35102956  1
  O  O169  1  0.49378007  0.14221562  0.75767149  1
  O  O170  1  0.50938355  0.63495860  0.23753744  1
  O  O171  1  0.50238170  0.63547325  0.74734925  1
  O  O172  1  1.00059932  0.09653859  0.24374469  1
  O  O173  1  0.96878532  0.12029065  0.76462613  1
  O  O174  1  1.01519209  0.59235061  0.31108188  1
  O  O175  1  0.98797748  0.62069596  0.73379309  1
  O  O176  1  0.37230368  0.26647489  0.00614800  1
  O  O177  1  0.38272977  0.24471609  0.51047098  1
  O  O178  1  0.39110852  0.76669736  0.00416185  1
  O  O179  1  0.37770574  0.66391897  0.58845883  1
  O  O180  1  0.86867977  0.25444544  0.00007726  1
  O  O181  1  0.95857886  0.29778135  0.54305461  1
  O  O182  1  0.85850720  0.75525679  -0.01833249  1
  O  O183  1  0.85008360  0.73677388  0.51036749  1
  O  O184  1  0.13761179  0.24161010  0.49868062  1
  O  O185  1  0.13330629  0.26459654  1.00452730  1
  O  O186  1  0.14140485  0.79872185  0.47268477  1
  O  O187  1  0.11614333  0.73911303  0.97452965  1
  O  O188  1  0.66748231  0.25352031  0.54544477  1
  O  O189  1  0.61954479  0.23879082  1.00461364  1
  O  O190  1  0.62994205  0.73391688  0.48352470  1
  O  O191  1  0.62622927  0.74269015  0.99054732  1
  O  O192  1  0.48079415  0.25878285  0.12703076  1
  O  O193  1  0.49167605  0.25090955  0.63831238  1
  O  O194  1  0.49565709  0.75536850  0.12636886  1
  O  O195  1  0.51659592  0.76234422  0.64644256  1
  O  O196  1  0.98922005  0.28263179  0.12944180  1
  O  O197  1  1.03900956  0.21252153  0.66364307  1
  O  O198  1  0.99667999  0.72387845  0.14654517  1
  O  O199  1  1.00473138  0.73005256  0.60164035  1
  O  O200  1  -0.00052327  0.26801590  0.38315573  1
  O  O201  1  0.00332301  0.24203184  0.87125806  1
  O  O202  1  -0.01334628  0.76699041  0.37523207  1
  O  O203  1  0.00585735  0.75255274  0.86180790  1
  O  O204  1  0.48568868  0.27259877  0.36524736  1
  O  O205  1  0.49369762  0.26641093  0.86585796  1
  O  O206  1  0.50731823  0.74710866  0.34673704  1
  O  O207  1  0.50904282  0.75797207  0.86101942  1
  O  O208  1  0.25494897  0.13066651  0.48536137  1
  O  O209  1  0.24654018  0.14174603  0.99354632  1
  O  O210  1  0.34436443  0.67691546  0.51608474  1
  O  O211  1  0.23838641  0.62402746  0.98104864  1
  O  O212  1  0.75313071  0.13247752  0.47706081  1
  O  O213  1  0.73543258  0.12315338  0.99524244  1
  O  O214  1  0.73875740  0.62858262  0.48210175  1
  O  O215  1  0.73271069  0.64762416  0.99504111  1
  O  O216  1  0.25567102  0.36964806  0.00267905  1
  O  O217  1  0.24815605  0.35277846  0.51494921  1
  O  O218  1  0.26714886  0.88425854  0.00245637  1
  O  O219  1  0.25406271  0.92101415  0.54435749  1
  O  O220  1  0.74336077  0.35600887  0.00475397  1
  O  O221  1  0.76087255  0.38064338  0.49091349  1
  O  O222  1  0.73623585  0.85972687  -0.00174755  1
  O  O223  1  0.74460896  0.85281354  0.48393323  1
  O  O224  1  0.19216154  0.57217506  0.25482620  1
  O  O225  1  0.12768117  0.49705739  0.73057314  1
  O  O226  1  0.15382682  0.99705625  0.24398947  1
  O  O227  1  0.11854837  0.98628301  0.75750502  1
  O  O228  1  0.62799919  0.50092273  0.23109254  1
  O  O229  1  0.62340314  0.49259361  0.73647223  1
  O  O230  1  0.62812817  0.98458182  0.25009614  1
  O  O231  1  0.62812900  1.00483092  0.75004598  1
  O  O232  1  0.35807167  -0.00329381  0.24525104  1
  O  O233  1  0.38195671  0.02238852  0.74865179  1
  O  O234  1  0.37058982  0.50199305  0.25815092  1
  O  O235  1  0.37896690  0.49721924  0.75820043  1
  O  O236  1  0.85309401  -0.00779794  0.25399088  1
  O  O237  1  0.84577243  0.02073291  0.74731499  1
  O  O238  1  0.86164142  0.50037164  0.23622608  1
  O  O239  1  0.86878921  0.49471037  0.75271321  1
  O  O240  1  0.16163989  0.37329909  0.35130049  1
  O  O241  1  0.03892560  0.42203598  0.90284433  1
  O  O242  1  0.09588289  0.90644283  0.37644183  1
  O  O243  1  0.13332098  0.86122237  0.86218342  1
  O  O244  1  0.61269420  0.38394714  0.35672407  1
  O  O245  1  0.61013637  0.39290836  0.86494625  1
  O  O246  1  0.62040774  0.85187158  0.36410679  1
  O  O247  1  0.60823376  0.86143540  0.88022484  1
  O  O248  1  0.36911084  0.14392988  0.11286290  1
  O  O249  1  0.38736343  0.13807875  0.63588638  1
  O  O250  1  0.37765141  0.64225867  0.10397304  1
  O  O251  1  0.34260117  0.60390741  0.62585471  1
  O  O252  1  0.89772517  0.11558450  0.10015956  1
  O  O253  1  0.85999954  0.13987494  0.63913456  1
  O  O254  1  0.88576777  0.63958525  0.10124151  1
  O  O255  1  0.88693871  0.61391845  0.63402394  1
  O  O256  1  0.25736567  0.26370699  0.10890249  1
  O  O257  1  0.26524308  0.23770188  0.60650034  1
  O  O258  1  0.27400654  0.76278771  0.12119255  1
  O  O259  1  0.24595905  0.75564096  0.61251190  1
  O  O260  1  0.75553691  0.22973484  0.10757553  1
  O  O261  1  0.72563444  0.26772585  0.60321868  1
  O  O262  1  0.76795023  0.74555723  0.11422375  1
  O  O263  1  0.72393605  0.75425127  0.60644906  1
  O  O264  1  0.26498156  0.24080729  0.38797521  1
  O  O265  1  0.25238376  0.24898894  0.89233407  1
  O  O266  1  0.27192112  0.74052135  0.37990881  1
  O  O267  1  0.25931309  0.73902517  0.86826420  1
  O  O268  1  0.76749059  0.23530461  0.35054107  1
  O  O269  1  0.74578178  0.23527374  0.89768789  1
  O  O270  1  0.73867862  0.73545986  0.36857721  1
  O  O271  1  0.73375428  0.76105740  0.87829676  1
  O  O272  1  0.00190846  0.10315403  0.00171169  1
  O  O273  1  -0.02287172  0.10470239  0.50497336  1
  O  O274  1  0.00066145  0.62348045  -0.01049538  1
  O  O275  1  -0.02720872  0.59952513  0.50589432  1
  O  O276  1  0.50716478  0.11352066  -0.00682740  1
  O  O277  1  0.52175654  0.15212539  0.51799565  1
  O  O278  1  0.51413692  0.63110195  -0.00887978  1
  O  O279  1  0.51389496  0.63068177  0.49495429  1
  O  O280  1  0.52015488  0.36934921  0.48925999  1
  O  O281  1  0.49588908  0.37292672  0.98259143  1
  O  O282  1  0.47344002  0.81456030  0.47005404  1
  O  O283  1  0.49482353  0.88928967  0.99198058  1
  O  O284  1  0.93462903  0.35584206  0.50181348  1
  O  O285  1  0.99943728  0.39602624  0.96831655  1
  O  O286  1  0.98573347  0.88832681  0.48852379  1
  O  O287  1  0.99985050  0.89172930  1.00748001  1
  O  O288  1  0.49481666  0.49165927  0.37339338  1
  O  O289  1  0.48788568  0.49346501  0.86902462  1
  O  O290  1  0.52180686  0.95853006  0.39709345  1
  O  O291  1  0.50495217  0.98783890  0.87699463  1
  O  O292  1  1.04381422  0.44115410  0.42679410  1
  O  O293  1  1.00153714  0.48040475  0.86619128  1
  O  O294  1  0.97492941  1.00056432  0.38365982  1
  O  O295  1  1.00236465  1.00052106  0.90054673  1
  O  O296  1  -0.00592915  0.00012360  0.11085666  1
  O  O297  1  -0.03378154  -0.01440273  0.62128896  1
  O  O298  1  -0.00184506  0.53004959  0.13358717  1
  O  O299  1  0.00820447  0.48457501  0.62183282  1
  O  O300  1  0.49702254  -0.00308890  0.11442233  1
  O  O301  1  0.48941714  0.02325627  0.61624508  1
  O  O302  1  0.50678279  0.50508306  0.12224306  1
  O  O303  1  0.51706478  0.48719993  0.61914959  1
  O  O304  1  0.24666871  0.38290739  0.22836273  1
  O  O305  1  0.23946279  0.32888201  0.72863509  1
  O  O306  1  0.25710525  0.88186105  0.22586596  1
  O  O307  1  0.24213834  0.87647773  0.73421200  1
  O  O308  1  0.73522692  0.39807750  0.25257466  1
  O  O309  1  0.73300434  0.36813587  0.76692057  1
  O  O310  1  0.73308225  0.88229776  0.25193676  1
  O  O311  1  0.73836596  0.88971962  0.74322762  1
  O  O312  1  0.25672187  0.10957879  0.27488530  1
  O  O313  1  0.26725905  0.13844628  0.76939211  1
  O  O314  1  0.24419668  0.62009707  0.23945570  1
  O  O315  1  0.24478738  0.62880176  0.75580446  1
  O  O316  1  0.73923955  0.10587585  0.25487873  1
  O  O317  1  0.75168045  0.13738259  0.76584797  1
  O  O318  1  0.74340502  0.61598942  0.25679199  1
  O  O319  1  0.76580382  0.62100873  0.73138476  1
  O  O320  1  0.39849257  0.07417065  0.39070654  1
  O  O321  1  0.37493911  0.12864952  0.87061427  1
  O  O322  1  0.39635660  0.61312987  0.36761322  1
  O  O323  1  0.36472733  0.61419537  0.87623508  1
  O  O324  1  0.86327399  0.10838796  0.36657389  1
  O  O325  1  0.85155607  0.12059480  0.88556818  1
  O  O326  1  0.85974318  0.63062804  0.37141243  1
  O  O327  1  0.87708344  0.62890064  0.84277804  1
  O  O328  1  0.13733544  0.38301221  0.13231566  1
  O  O329  1  0.13465761  0.37912513  0.61926194  1
  O  O330  1  0.14691898  0.85487080  0.10845418  1
  O  O331  1  0.13645342  0.87048410  0.63368292  1
  O  O332  1  0.62114344  0.39589796  0.12611739  1
  O  O333  1  0.63873248  0.38710981  0.63582522  1
  O  O334  1  0.62269277  0.87137390  0.13257031  1
  O  O335  1  0.60180038  0.91389797  0.57603431  1
  O  O336  1  0.13827618  0.25742504  0.24492296  1
  O  O337  1  0.09226513  0.21232383  0.73107681  1
  O  O338  1  0.12935836  0.74632224  0.30557262  1
  O  O339  1  0.12820129  0.75407249  0.75911436  1
  O  O340  1  0.63329769  0.27299897  0.23296918  1
  O  O341  1  0.60862184  0.27216828  0.74525715  1
  O  O342  1  0.61914741  0.75460646  0.24415986  1
  O  O343  1  0.62299489  0.74347593  0.76292602  1
  O  O344  1  0.35215699  0.25211599  0.23135680  1
  O  O345  1  0.38799522  0.24560742  0.74752370  1
  O  O346  1  0.39174032  0.75031509  0.22831948  1
  O  O347  1  0.39149393  0.74925682  0.75300953  1
  O  O348  1  0.88917636  0.26909679  0.21405893  1
  O  O349  1  0.87817482  0.23907790  0.76606972  1
  O  O350  1  0.86667375  0.74312135  0.24560248  1
  O  O351  1  0.86179492  0.77584905  0.69363781  1
  O  O352  1  0.33060566  0.50323436  0.46593154  1
  O  O353  1  0.37044846  0.48707709  0.98280327  1
  O  O354  1  0.41280334  1.04508870  0.46340792  1
  O  O355  1  0.38926808  0.99146917  0.99699449  1
  O  O356  1  0.91184957  0.54202895  0.49549031  1
  O  O357  1  0.85912303  0.49503149  0.97901148  1
  O  O358  1  0.86025537  0.99738660  0.49039448  1
  O  O359  1  0.89264107  0.99260850  0.99949936  1
  O  O360  1  0.10276388  -0.00699437  0.00744136  1
  O  O361  1  0.09411261  -0.00288098  0.51785740  1
  O  O362  1  0.11972242  0.52011308  -0.01633125  1
  O  O363  1  0.16239837  0.50945974  0.53220035  1
  O  O364  1  0.61047033  0.00422481  0.00087633  1
  O  O365  1  0.62194489  -0.03287714  0.52693549  1
  O  O366  1  0.63000962  0.51495850  0.00880372  1
  O  O367  1  0.62325465  0.50868322  0.50134808  1
  O  O368  1  0.36606262  0.37522299  0.11498910  1
  O  O369  1  0.36641560  0.35607614  0.62892044  1
  O  O370  1  0.37500192  0.87051980  0.10654926  1
  O  O371  1  0.36500142  0.86827501  0.63766605  1
  O  O372  1  0.91826269  0.30903301  0.15336819  1
  O  O373  1  0.84466308  0.37135544  0.63116703  1
  O  O374  1  0.89280277  0.84643702  0.12743343  1
  O  O375  1  0.87662592  0.83076688  0.64715770  1
  O  O376  1  0.12446795  0.11307779  0.37624702  1
  O  O377  1  0.13824425  0.13104487  0.86346997  1
  O  O378  1  0.14316296  0.63580303  0.42902289  1
  O  O379  1  0.13448866  0.63626106  0.86912483  1
  O  O380  1  0.63393677  0.13226055  0.36917984  1
  O  O381  1  0.63361705  0.12671868  0.89106775  1
  O  O382  1  0.62587710  0.62668176  0.37847556  1
  O  O383  1  0.62297345  0.63697688  0.88212844  1
