# generated using pymatgen
data_VZnO4
_symmetry_space_group_name_H-M   'P 1'
_cell_length_a   16.88556332
_cell_length_b   16.93022827
_cell_length_c   16.86309556
_cell_angle_alpha   89.86671850
_cell_angle_beta   90.15620868
_cell_angle_gamma   89.68451936
_symmetry_Int_Tables_number   1
_chemical_formula_structural   VZnO4
_chemical_formula_sum   'V64 Zn64 O256'
_cell_volume   4820.65754520
_cell_formula_units_Z   64
loop_
 _symmetry_equiv_pos_site_id
 _symmetry_equiv_pos_as_xyz
  1  'x, y, z'
loop_
 _atom_site_type_symbol
 _atom_site_label
 _atom_site_symmetry_multiplicity
 _atom_site_fract_x
 _atom_site_fract_y
 _atom_site_fract_z
 _atom_site_occupancy
  V  V0  1  0.12737566  0.63992705  -0.01619119  1
  V  V1  1  0.12178567  0.37138624  0.74571338  1
  V  V2  1  0.73607316  0.49379400  0.24114702  1
  V  V3  1  -0.02410328  0.73902154  0.73405819  1
  V  V4  1  -0.00451744  0.37328007  0.87432209  1
  V  V5  1  0.37575692  0.36659299  0.49943205  1
  V  V6  1  0.38232961  0.14455740  0.74492061  1
  V  V7  1  0.74558744  0.37844773  0.63299668  1
  V  V8  1  0.87236885  0.84890653  0.01512543  1
  V  V9  1  0.50145503  0.37657615  0.36457049  1
  V  V10  1  0.49692483  0.50942469  0.49866507  1
  V  V11  1  0.87385654  0.36591092  0.50096752  1
  V  V12  1  0.88074568  0.62641870  0.24111001  1
  V  V13  1  0.61588706  0.75491957  0.37728121  1
  V  V14  1  -0.01969283  0.01269084  0.48985315  1
  V  V15  1  0.13173984  0.24817964  0.87128578  1
  V  V16  1  0.25545204  0.11563081  0.34767411  1
  V  V17  1  0.52645975  0.12093996  0.63172638  1
  V  V18  1  0.23717960  0.74898054  0.51757399  1
  V  V19  1  0.24911523  0.36993762  0.61772299  1
  V  V20  1  0.25924729  0.25599201  -0.00552693  1
  V  V21  1  0.11423949  0.84464110  0.28091904  1
  V  V22  1  0.22335946  0.63605008  0.37080553  1
  V  V23  1  0.71497340  0.86687782  0.12704697  1
  V  V24  1  0.86153361  0.58662266  0.75603431  1
  V  V25  1  0.49788508  0.23168599  0.25314365  1
  V  V26  1  0.13636685  -0.00464116  0.13197198  1
  V  V27  1  0.62210737  0.23690730  0.38199058  1
  V  V28  1  0.12589023  0.49818252  0.12816860  1
  V  V29  1  0.36050843  0.72704368  0.13522506  1
  V  V30  1  -0.00728019  0.13991942  0.63421715  1
  V  V31  1  0.63308331  0.61666579  -0.01194247  1
  V  V32  1  0.12458321  0.88478584  0.76307835  1
  V  V33  1  -0.02926194  0.00923535  0.00273951  1
  V  V34  1  0.24837146  0.01395346  0.76156346  1
  V  V35  1  0.62122046  0.51001888  0.62223290  1
  V  V36  1  0.37023736  0.89133587  0.02294836  1
  V  V37  1  0.38229098  0.49409966  0.87982883  1
  V  V38  1  0.59947627  0.37163891  0.75003901  1
  V  V39  1  0.37138992  0.87292858  0.51668528  1
  V  V40  1  0.38921212  -0.00859122  0.36247372  1
  V  V41  1  0.24430022  0.50865231  0.75651595  1
  V  V42  1  0.13225800  0.12195711  -0.00245538  1
  V  V43  1  0.12168297  0.50747905  0.61296447  1
  V  V44  1  0.23958681  0.24178494  0.48661712  1
  V  V45  1  0.11372760  0.36229723  0.25351716  1
  V  V46  1  0.50288455  0.75737078  0.23641791  1
  V  V47  1  0.13837385  0.01375161  0.60744878  1
  V  V48  1  0.73602491  0.24272797  0.51108719  1
  V  V49  1  -0.00333359  0.50716131  0.49862422  1
  V  V50  1  0.53973114  -0.00643037  -0.00213262  1
  V  V51  1  0.74066556  0.62173739  0.38450985  1
  V  V52  1  0.87539002  0.48775820  0.36905174  1
  V  V53  1  0.37869727  0.23308744  0.13211517  1
  V  V54  1  0.36775050  0.63988409  0.74743491  1
  V  V55  1  0.26218066  0.38088048  0.13077958  1
  V  V56  1  -0.00380899  0.63570474  0.12261483  1
  V  V57  1  0.36438797  0.51379768  0.36564806  1
  V  V58  1  0.77215011  0.34447305  0.15848165  1
  V  V59  1  -0.00523876  0.49506209  -0.00592429  1
  V  V60  1  0.38995505  -0.01166077  0.86770875  1
  V  V61  1  0.75727632  -0.01503332  0.26444613  1
  V  V62  1  -0.01138692  0.13918805  0.13644698  1
  V  V63  1  0.48898420  0.63890534  0.62429212  1
  Zn  Zn64  1  0.18380424  0.18483019  0.18213716  1
  Zn  Zn65  1  0.19264268  0.18524831  0.68296911  1
  Zn  Zn66  1  0.17820942  0.68904099  0.19724967  1
  Zn  Zn67  1  0.16315556  0.69084879  0.68966577  1
  Zn  Zn68  1  0.68336323  0.19008870  0.18321386  1
  Zn  Zn69  1  0.68908435  0.19015854  0.71424595  1
  Zn  Zn70  1  0.68597186  0.67962993  0.18831523  1
  Zn  Zn71  1  0.76209073  0.72061165  0.73512055  1
  Zn  Zn72  1  0.31038726  0.31377285  0.31163338  1
  Zn  Zn73  1  0.31363222  0.32045592  0.80817268  1
  Zn  Zn74  1  0.30115396  0.81651430  0.30443126  1
  Zn  Zn75  1  0.29706984  0.82078572  0.80864147  1
  Zn  Zn76  1  0.81060337  0.29132553  0.31973144  1
  Zn  Zn77  1  0.79572286  0.41759252  0.83857159  1
  Zn  Zn78  1  0.78471954  0.78826976  0.27301798  1
  Zn  Zn79  1  0.95344413  0.89632945  0.86169629  1
  Zn  Zn80  1  0.18764613  0.43900865  0.43088707  1
  Zn  Zn81  1  0.18345285  0.43854043  0.94149031  1
  Zn  Zn82  1  0.20530033  0.93497037  0.42664546  1
  Zn  Zn83  1  0.19496337  0.94012162  0.93514234  1
  Zn  Zn84  1  0.68468658  0.43405458  0.43648469  1
  Zn  Zn85  1  0.64583412  0.39863574  0.95260701  1
  Zn  Zn86  1  0.68270412  0.93176417  0.43637763  1
  Zn  Zn87  1  0.73133970  0.91798779  0.93629126  1
  Zn  Zn88  1  0.31451481  0.05835323  0.06060607  1
  Zn  Zn89  1  0.31880099  0.06116625  0.56188406  1
  Zn  Zn90  1  0.30361705  0.56685730  0.05614678  1
  Zn  Zn91  1  0.30796313  0.56620456  0.55298374  1
  Zn  Zn92  1  0.79267558  0.06968221  0.09556812  1
  Zn  Zn93  1  0.81667562  0.05371578  0.57770480  1
  Zn  Zn94  1  0.78561498  0.49202553  0.02806646  1
  Zn  Zn95  1  0.81384818  0.55849160  0.56391139  1
  Zn  Zn96  1  0.43463698  0.46666429  0.18400707  1
  Zn  Zn97  1  0.42795688  0.44237970  0.68472124  1
  Zn  Zn98  1  0.47339855  0.95231266  0.18197120  1
  Zn  Zn99  1  0.42790748  0.96017800  0.66667574  1
  Zn  Zn100  1  0.93850391  0.43404909  0.18242304  1
  Zn  Zn101  1  0.93126263  0.44367159  0.68460770  1
  Zn  Zn102  1  0.94538668  0.94106591  0.18962693  1
  Zn  Zn103  1  0.96906146  0.92499961  0.65416182  1
  Zn  Zn104  1  0.06974538  0.06453729  0.31511281  1
  Zn  Zn105  1  0.03900391  0.04495386  0.80210723  1
  Zn  Zn106  1  0.06118728  0.55441877  0.31180938  1
  Zn  Zn107  1  0.04250852  0.57401515  0.81042687  1
  Zn  Zn108  1  0.55605359  0.05527628  0.32905007  1
  Zn  Zn109  1  0.54089236  0.09271386  0.83961733  1
  Zn  Zn110  1  0.55689964  0.56912438  0.30713997  1
  Zn  Zn111  1  0.55176295  0.56027179  0.80351613  1
  Zn  Zn112  1  0.43199887  0.17472867  0.44553375  1
  Zn  Zn113  1  0.42532010  0.15214697  0.95766470  1
  Zn  Zn114  1  0.42502832  0.70480625  0.42883598  1
  Zn  Zn115  1  0.38317979  0.72133118  0.92577791  1
  Zn  Zn116  1  0.91700263  0.17000764  0.45953368  1
  Zn  Zn117  1  0.95345728  0.18237893  0.92489074  1
  Zn  Zn118  1  0.92328287  0.67449084  0.43518196  1
  Zn  Zn119  1  0.95093855  0.69519220  0.91530127  1
  Zn  Zn120  1  0.06566458  0.31191281  0.06288747  1
  Zn  Zn121  1  0.06393774  0.30998998  0.55570185  1
  Zn  Zn122  1  0.05696803  0.82255394  0.05516492  1
  Zn  Zn123  1  0.06975256  0.83868329  0.55503670  1
  Zn  Zn124  1  0.54276758  0.35428370  0.10852800  1
  Zn  Zn125  1  0.55582820  0.31168187  0.57081352  1
  Zn  Zn126  1  0.53376218  0.79468667  0.03372681  1
  Zn  Zn127  1  0.55397303  0.80925636  0.54161407  1
  O  O128  1  0.11786765  0.12206065  0.10962166  1
  O  O129  1  0.12098888  0.11928060  0.62635878  1
  O  O130  1  0.11264971  0.61173604  0.12527481  1
  O  O131  1  0.12796262  0.60446985  0.61349202  1
  O  O132  1  0.70451434  0.13900726  0.08666371  1
  O  O133  1  0.62694303  0.12730864  0.64306653  1
  O  O134  1  0.64890306  0.62555066  0.09293031  1
  O  O135  1  0.60088735  0.61068171  0.61845816  1
  O  O136  1  0.37854649  0.38318499  0.38331732  1
  O  O137  1  0.36525054  0.39392817  0.87215074  1
  O  O138  1  0.36472454  0.88875636  0.36895347  1
  O  O139  1  0.37300429  0.88799902  0.87888457  1
  O  O140  1  0.86244901  0.37871577  0.38890393  1
  O  O141  1  0.89854360  0.35897925  0.86843817  1
  O  O142  1  0.93160506  0.81949667  0.40158047  1
  O  O143  1  0.84736890  0.89848263  0.91765453  1
  O  O144  1  0.26580226  0.00884283  0.36046120  1
  O  O145  1  0.26438401  0.00905591  0.86551988  1
  O  O146  1  0.26063374  0.51752058  0.38846675  1
  O  O147  1  0.24100301  0.50165348  0.85698462  1
  O  O148  1  0.75460761  -0.01943228  0.36659934  1
  O  O149  1  0.70773862  0.08498613  0.87698728  1
  O  O150  1  0.75540180  0.50380393  0.36856239  1
  O  O151  1  0.75527192  0.42347569  0.94246812  1
  O  O152  1  0.23808942  0.48822236  0.11604899  1
  O  O153  1  0.23573263  0.48915644  0.61424221  1
  O  O154  1  0.23535071  1.01321988  0.12300207  1
  O  O155  1  0.24173020  1.01240381  0.63915525  1
  O  O156  1  0.75008990  0.47604418  0.13834704  1
  O  O157  1  0.72712053  0.49335567  0.60837458  1
  O  O158  1  0.73866322  0.97144890  0.13214207  1
  O  O159  1  0.66733248  0.95181879  0.58990355  1
  O  O160  1  0.01274398  0.37645681  0.24591000  1
  O  O161  1  0.01420708  0.38576719  0.75888088  1
  O  O162  1  0.02406675  0.88101975  0.24164046  1
  O  O163  1  0.01394185  0.92740988  0.76459852  1
  O  O164  1  0.49147021  0.36953482  0.26498607  1
  O  O165  1  0.49861169  0.37143815  0.73610440  1
  O  O166  1  0.51170066  0.85834810  0.23794224  1
  O  O167  1  0.51620131  0.86043382  0.73324387  1
  O  O168  1  0.49758483  0.13423167  0.25580071  1
  O  O169  1  0.49477362  0.13740480  0.74226420  1
  O  O170  1  0.49313121  0.63624029  0.24667947  1
  O  O171  1  0.48413220  0.62710010  0.73356214  1
  O  O172  1  1.01095718  0.12357231  0.23449036  1
  O  O173  1  1.00200292  0.12689641  0.73648572  1
  O  O174  1  0.98979717  0.60962157  0.23644010  1
  O  O175  1  1.04044274  0.65719943  0.72697952  1
  O  O176  1  0.36782876  0.23959765  0.00926369  1
  O  O177  1  0.36926776  0.26554903  0.49546553  1
  O  O178  1  0.37806411  0.78199368  0.03782002  1
  O  O179  1  0.35782642  0.76000399  0.49855250  1
  O  O180  1  0.85778832  0.23487155  -0.00318742  1
  O  O181  1  0.85369887  0.26127154  0.49928057  1
  O  O182  1  0.89589181  0.75286827  -0.00515512  1
  O  O183  1  0.86800764  0.78459367  0.43593079  1
  O  O184  1  0.14110612  0.26116483  0.48728650  1
  O  O185  1  0.13917962  0.24679558  0.99354606  1
  O  O186  1  0.13386091  0.75950766  0.51061397  1
  O  O187  1  0.10172095  0.73809373  0.99371794  1
  O  O188  1  0.62858384  0.25935817  0.49424068  1
  O  O189  1  0.61855452  0.24721566  0.92903195  1
  O  O190  1  0.61812751  0.73893095  0.47809293  1
  O  O191  1  0.64392909  0.71961170  0.98131078  1
  O  O192  1  0.48907884  0.25509074  0.14095457  1
  O  O193  1  0.49370584  0.23100033  0.61618580  1
  O  O194  1  0.49276486  0.74299900  0.13269053  1
  O  O195  1  0.49883405  0.73622160  0.61357872  1
  O  O196  1  1.00124528  0.23909924  0.11690171  1
  O  O197  1  1.00805699  0.24068219  0.62261378  1
  O  O198  1  1.00464579  0.73245085  0.12229779  1
  O  O199  1  0.98838976  0.80227633  0.65429083  1
  O  O200  1  0.02423317  0.23251051  0.37799809  1
  O  O201  1  0.01974023  0.26479328  0.88021469  1
  O  O202  1  -0.00742744  0.76859805  0.39944972  1
  O  O203  1  -0.02749191  0.78028337  0.83177702  1
  O  O204  1  0.49790013  0.25705349  0.36927612  1
  O  O205  1  0.55123606  0.26497944  0.95653419  1
  O  O206  1  0.50841270  0.74152300  0.36040457  1
  O  O207  1  0.49286769  0.73985195  0.93776548  1
  O  O208  1  0.25603094  0.14549150  0.51068628  1
  O  O209  1  0.23989133  0.14152915  1.00580174  1
  O  O210  1  0.25187021  0.64003694  0.48737301  1
  O  O211  1  0.22587611  0.63142422  1.00400525  1
  O  O212  1  0.74819139  0.14601801  0.52216011  1
  O  O213  1  0.72917519  0.14087092  0.92094757  1
  O  O214  1  0.76803582  0.62521648  0.48273124  1
  O  O215  1  0.74060405  0.59800632  0.98297980  1
  O  O216  1  0.24494099  0.36124514  0.01251386  1
  O  O217  1  0.25870160  0.36891571  0.49706844  1
  O  O218  1  0.27130321  0.89520876  0.00332648  1
  O  O219  1  0.25559818  0.85823178  0.49986776  1
  O  O220  1  0.70817031  0.32997026  0.06824568  1
  O  O221  1  0.75247435  0.37069243  0.50797173  1
  O  O222  1  0.76042881  0.85000390  0.02696762  1
  O  O223  1  0.72960705  0.97642226  0.54328890  1
  O  O224  1  0.12042817  0.49206831  0.23146204  1
  O  O225  1  0.13154880  0.49525552  0.73256425  1
  O  O226  1  0.12237673  1.00193945  0.23122350  1
  O  O227  1  0.14342845  1.01420652  0.75919231  1
  O  O228  1  0.63749652  0.50181236  0.25356851  1
  O  O229  1  0.61048329  0.49759087  0.72560079  1
  O  O230  1  0.64164823  1.02812678  0.25230644  1
  O  O231  1  0.57126850  0.88207908  0.77582342  1
  O  O232  1  0.40744102  0.00257160  0.26310885  1
  O  O233  1  0.36626565  -0.00250333  0.75719341  1
  O  O234  1  0.36873344  0.49565156  0.26618944  1
  O  O235  1  0.35458367  0.50352382  0.75060401  1
  O  O236  1  0.85556747  -0.00532327  0.24203212  1
  O  O237  1  0.74374595  -0.03952255  0.74076175  1
  O  O238  1  0.87141916  0.49977755  0.25655671  1
  O  O239  1  0.86704691  0.48294038  0.77577464  1
  O  O240  1  0.13519554  0.38150436  0.35125554  1
  O  O241  1  0.12707660  0.36769119  0.86474683  1
  O  O242  1  0.12073215  0.87516516  0.37931980  1
  O  O243  1  0.12468442  0.88700704  0.86604988  1
  O  O244  1  0.60440204  0.36687279  0.38047982  1
  O  O245  1  0.61957407  0.40488931  0.84270067  1
  O  O246  1  0.62759417  0.85438051  0.37388706  1
  O  O247  1  0.69786357  0.83079968  0.85023417  1
  O  O248  1  0.38005895  0.13502531  0.12373387  1
  O  O249  1  0.38227099  0.11436303  0.64433036  1
  O  O250  1  0.37348634  0.62812111  0.12137549  1
  O  O251  1  0.38190415  0.61674770  0.62970791  1
  O  O252  1  0.88870225  0.12688600  0.12991267  1
  O  O253  1  0.89036684  0.12926556  0.62199123  1
  O  O254  1  0.88709879  0.62017804  0.13402869  1
  O  O255  1  0.88178902  0.57073605  0.65327991  1
  O  O256  1  0.26615362  0.25844438  0.11848795  1
  O  O257  1  0.24490247  0.26580186  0.61148995  1
  O  O258  1  0.26055899  0.73899533  0.13663591  1
  O  O259  1  0.24447309  0.73671276  0.61751452  1
  O  O260  1  0.78433929  0.25260957  0.20733765  1
  O  O261  1  0.73539206  0.27017789  0.61915278  1
  O  O262  1  0.75127011  0.76797614  0.15806469  1
  O  O263  1  0.74198578  0.80593327  0.64628539  1
  O  O264  1  0.26394532  0.23513071  0.38193236  1
  O  O265  1  0.24961128  0.25806023  0.88894433  1
  O  O266  1  0.24568084  0.73807813  0.37709090  1
  O  O267  1  0.28165342  0.74828375  0.89145009  1
  O  O268  1  0.72874178  0.24899688  0.39075247  1
  O  O269  1  0.80389960  0.26863739  0.95893243  1
  O  O270  1  0.73182919  0.72659634  0.35786532  1
  O  O271  1  0.75722063  0.78456634  0.83906144  1
  O  O272  1  0.00900293  0.12211218  0.00593802  1
  O  O273  1  0.00498920  0.12183012  0.50921822  1
  O  O274  1  0.00592367  0.61298871  0.00908291  1
  O  O275  1  -0.01517857  0.60613021  0.50492466  1
  O  O276  1  0.52630664  0.09689518  -0.03940608  1
  O  O277  1  0.50411146  0.14282354  0.52660522  1
  O  O278  1  0.53230074  0.61496922  0.00667904  1
  O  O279  1  0.48639147  0.61240272  0.50500930  1
  O  O280  1  0.48545679  0.37917414  0.49446019  1
  O  O281  1  0.54739074  0.34839086  0.98934009  1
  O  O282  1  0.47015698  0.86296744  0.48948605  1
  O  O283  1  0.48615510  0.89718069  0.99613281  1
  O  O284  1  0.97711185  0.37240496  0.50515825  1
  O  O285  1  1.01048091  0.38445212  0.98780135  1
  O  O286  1  0.98387122  0.91063583  0.52689841  1
  O  O287  1  0.98086163  0.89555912  0.99467337  1
  O  O288  1  0.49257155  0.49055294  0.38060292  1
  O  O289  1  0.48232100  0.50036164  0.86752960  1
  O  O290  1  0.48817869  1.00109828  0.39738996  1
  O  O291  1  0.49272351  0.98647537  0.86120698  1
  O  O292  1  0.98878554  0.49697455  0.38730751  1
  O  O293  1  1.01165606  0.48484127  0.88417600  1
  O  O294  1  1.01217247  1.00837775  0.39468716  1
  O  O295  1  0.98492770  1.01530976  0.89829430  1
  O  O296  1  0.00913470  0.01422656  0.10871796  1
  O  O297  1  0.01662897  0.02481760  0.60929963  1
  O  O298  1  0.01101691  0.49553057  0.11052793  1
  O  O299  1  0.01206428  0.48749141  0.61115850  1
  O  O300  1  0.53432266  0.00696566  0.09806613  1
  O  O301  1  0.51386125  0.01884584  0.63320879  1
  O  O302  1  0.52406693  0.46129444  0.12521442  1
  O  O303  1  0.49893170  0.50025501  0.60864120  1
  O  O304  1  0.24271686  0.37031042  0.23287387  1
  O  O305  1  0.24239768  0.38879320  0.73648180  1
  O  O306  1  0.21099263  0.86088973  0.24655578  1
  O  O307  1  0.23667318  0.89877234  0.75172647  1
  O  O308  1  0.75554445  0.38733868  0.25994601  1
  O  O309  1  0.74683488  0.38301320  0.73415772  1
  O  O310  1  0.72829759  0.88293126  0.24603646  1
  O  O311  1  0.81798059  0.95343848  0.73825727  1
  O  O312  1  0.26086489  0.13222578  0.24825983  1
  O  O313  1  0.26602005  0.12118603  0.74977323  1
  O  O314  1  0.23971233  0.62191677  0.27113930  1
  O  O315  1  0.25096833  0.61294368  0.73533765  1
  O  O316  1  0.70293086  0.08708884  0.25645412  1
  O  O317  1  0.79608266  0.14403933  0.74547783  1
  O  O318  1  0.76115156  0.60628443  0.24815006  1
  O  O319  1  0.76441687  0.60998817  0.77143259  1
  O  O320  1  0.36630764  0.10878585  0.38377548  1
  O  O321  1  0.39069083  0.11386593  0.85378261  1
  O  O322  1  0.38192625  0.61204496  0.37390938  1
  O  O323  1  0.37378488  0.61675097  0.84946467  1
  O  O324  1  0.89481911  0.20707101  0.34643557  1
  O  O325  1  0.87859000  0.13583995  0.84798045  1
  O  O326  1  0.86603362  0.60690176  0.36174112  1
  O  O327  1  0.92805352  0.61531638  0.83711968  1
  O  O328  1  0.13188131  0.38387774  0.12836996  1
  O  O329  1  0.13050962  0.37878921  0.62919237  1
  O  O330  1  0.12343880  0.89863848  0.10300985  1
  O  O331  1  0.11510497  0.91195714  0.64318665  1
  O  O332  1  0.65542611  0.31555399  0.13408265  1
  O  O333  1  0.62684629  0.38557687  0.62923865  1
  O  O334  1  0.62052304  0.85039602  0.10001376  1
  O  O335  1  0.66315525  0.80174703  0.65789068  1
  O  O336  1  0.12642203  0.26328042  0.23888783  1
  O  O337  1  0.14302354  0.26161211  0.75920328  1
  O  O338  1  0.10438020  0.74256938  0.26444553  1
  O  O339  1  0.12550397  0.78598711  0.74396583  1
  O  O340  1  0.60888214  0.24193398  0.26682276  1
  O  O341  1  0.62620237  0.27401796  0.75503838  1
  O  O342  1  0.61005917  0.73026142  0.25650950  1
  O  O343  1  0.64456913  0.74714318  0.71416280  1
  O  O344  1  0.38270014  0.25029098  0.24069040  1
  O  O345  1  0.36676556  0.24313420  0.74682021  1
  O  O346  1  0.38376109  0.75766345  0.23750438  1
  O  O347  1  0.35977715  0.73800491  0.74640514  1
  O  O348  1  0.97122747  0.24640720  0.32695752  1
  O  O349  1  0.84213575  0.18483811  0.79532426  1
  O  O350  1  0.87896361  0.72397866  0.26201914  1
  O  O351  1  0.87757373  0.70798708  0.72005872  1
  O  O352  1  0.38300205  0.49207791  0.48872787  1
  O  O353  1  0.36238514  0.51257869  0.97735924  1
  O  O354  1  0.35811640  0.97924915  0.49465596  1
  O  O355  1  0.38312470  1.01033227  0.98025271  1
  O  O356  1  0.88107280  0.48754456  0.49161394  1
  O  O357  1  0.89611739  0.50137316  1.00116701  1
  O  O358  1  0.87928710  1.03265194  0.48016204  1
  O  O359  1  0.87316722  1.02323936  1.01424372  1
  O  O360  1  0.13145492  0.01954392  -0.00454376  1
  O  O361  1  0.14523340  0.00130693  0.50883746  1
  O  O362  1  0.11883225  0.50829891  0.00876449  1
  O  O363  1  0.10721396  0.48736480  0.50221024  1
  O  O364  1  0.63381734  -0.03024243  -0.03457115  1
  O  O365  1  0.61381020  -0.08400218  0.53824087  1
  O  O366  1  0.62798569  0.51065764  -0.00758006  1
  O  O367  1  0.60310592  0.49144676  0.50273888  1
  O  O368  1  0.36322366  0.37837114  0.12779689  1
  O  O369  1  0.36276070  0.38578294  0.60622570  1
  O  O370  1  0.37856203  0.92131035  0.11793139  1
  O  O371  1  0.37507668  0.87495080  0.61890903  1
  O  O372  1  0.86376477  0.36811616  0.12391059  1
  O  O373  1  0.85546629  0.38629878  0.61347605  1
  O  O374  1  0.88719239  0.87243509  0.11383498  1
  O  O375  1  0.85271389  0.96095626  0.65861025  1
  O  O376  1  0.15625808  0.11887470  0.36953999  1
  O  O377  1  0.11898113  0.14077032  0.88860935  1
  O  O378  1  0.12373519  0.61785036  0.38134077  1
  O  O379  1  0.11518347  0.62152200  0.88504879  1
  O  O380  1  0.61027572  0.13956782  0.39160251  1
  O  O381  1  0.65364435  0.10561636  0.81268360  1
  O  O382  1  0.63915766  0.61054011  0.38011540  1
  O  O383  1  0.62238723  0.61579473  0.88370077  1
