# generated using pymatgen
data_VZnO4
_symmetry_space_group_name_H-M   'P 1'
_cell_length_a   17.04574819
_cell_length_b   17.14669438
_cell_length_c   17.11626476
_cell_angle_alpha   90.39935163
_cell_angle_beta   90.61184611
_cell_angle_gamma   90.07862309
_symmetry_Int_Tables_number   1
_chemical_formula_structural   VZnO4
_chemical_formula_sum   'V64 Zn64 O256'
_cell_volume   5002.29966435
_cell_formula_units_Z   64
loop_
 _symmetry_equiv_pos_site_id
 _symmetry_equiv_pos_as_xyz
  1  'x, y, z'
loop_
 _atom_site_type_symbol
 _atom_site_label
 _atom_site_symmetry_multiplicity
 _atom_site_fract_x
 _atom_site_fract_y
 _atom_site_fract_z
 _atom_site_occupancy
  V  V0  1  0.49386065  0.24862507  0.76181048  1
  V  V1  1  0.45139989  0.35096244  0.35250616  1
  V  V2  1  0.51428383  0.00769871  -0.00061442  1
  V  V3  1  0.35135869  0.75909393  0.61439572  1
  V  V4  1  0.74663706  0.85530642  0.62613115  1
  V  V5  1  0.74889041  0.01334741  0.74757375  1
  V  V6  1  0.25161118  0.37562294  0.62521262  1
  V  V7  1  0.14085403  0.76228982  0.87830199  1
  V  V8  1  0.87231083  0.01187839  0.86701441  1
  V  V9  1  0.61975090  0.22879874  0.89370961  1
  V  V10  1  0.37901631  0.01499114  0.34924933  1
  V  V11  1  0.48715101  0.61385485  0.63737323  1
  V  V12  1  0.13064976  0.26327012  0.38205772  1
  V  V13  1  0.62702748  0.00123738  0.61706029  1
  V  V14  1  0.87652530  0.84699633  0.50682244  1
  V  V15  1  0.00138656  0.74223417  0.73814530  1
  V  V16  1  0.27950676  0.51350059  0.26661363  1
  V  V17  1  0.41341988  0.24536277  0.12711042  1
  V  V18  1  -0.03278318  0.01482339  0.51259069  1
  V  V19  1  -0.00568761  0.88075860  0.86708532  1
  V  V20  1  0.19020637  0.40087812  0.13333242  1
  V  V21  1  0.76426464  0.24088662  0.02497530  1
  V  V22  1  0.62177295  0.52492377  0.12730918  1
  V  V23  1  0.49283783  0.12547347  0.63366489  1
  V  V24  1  0.52700826  0.11619103  0.15650768  1
  V  V25  1  0.90908588  0.38516260  0.01157997  1
  V  V26  1  -0.00858769  0.90582418  0.37055930  1
  V  V27  1  0.36869299  -0.01121244  0.87935585  1
  V  V28  1  0.48502491  0.50793207  0.48031015  1
  V  V29  1  0.27599456  0.23226860  0.51233001  1
  V  V30  1  0.12080686  0.12456559  0.50173762  1
  V  V31  1  0.63255794  0.89196045  0.29677366  1
  V  V32  1  0.48378242  0.50471445  -0.00937753  1
  V  V33  1  0.85562049  0.86228321  -0.02393535  1
  V  V34  1  0.48061613  -0.00340980  0.51151924  1
  V  V35  1  0.48401895  0.86687923  0.38210867  1
  V  V36  1  0.00129006  0.24009244  0.25775666  1
  V  V37  1  0.39725356  0.75032752  0.10184229  1
  V  V38  1  0.63284521  0.74403137  0.85592188  1
  V  V39  1  -0.00308597  0.25090464  0.79254870  1
  V  V40  1  0.59436958  0.47101245  0.64514387  1
  V  V41  1  0.83536695  0.39490138  0.47697821  1
  V  V42  1  0.50102527  0.87041792  0.88549398  1
  V  V43  1  0.73726730  0.87566996  0.13668527  1
  V  V44  1  -0.01305170  0.42258268  0.37744928  1
  V  V45  1  0.02205641  0.55772876  0.61171012  1
  V  V46  1  0.48830544  0.75532297  0.74618888  1
  V  V47  1  0.12370288  0.01059236  0.63197186  1
  V  V48  1  0.27947014  0.90840068  0.13246617  1
  V  V49  1  0.10393414  0.63401260  -0.00663844  1
  V  V50  1  0.13178896  0.88601267  0.74251914  1
  V  V51  1  0.12574906  0.76064854  0.37336561  1
  V  V52  1  0.63507524  0.60702483  -0.03304736  1
  V  V53  1  0.24738185  0.11823886  0.36198348  1
  V  V54  1  0.66105753  0.35723998  0.24153959  1
  V  V55  1  0.13172610  0.37248716  0.78378293  1
  V  V56  1  0.48626059  0.36897049  0.89130455  1
  V  V57  1  0.00532326  0.75315715  0.24356601  1
  V  V58  1  0.24157360  0.13032115  0.88390920  1
  V  V59  1  0.36370495  0.11466252  0.75158551  1
  V  V60  1  0.08418295  0.10931673  0.04160922  1
  V  V61  1  -0.01718120  0.15672155  0.62935945  1
  V  V62  1  0.34003591  0.62098234  0.76073188  1
  V  V63  1  0.74966654  0.36517405  0.67884521  1
  Zn  Zn64  1  0.17676038  0.20084443  0.18488871  1
  Zn  Zn65  1  0.15538732  0.22550346  0.66746297  1
  Zn  Zn66  1  0.18183120  0.71015084  0.17483725  1
  Zn  Zn67  1  0.16576978  0.69610093  0.66991424  1
  Zn  Zn68  1  0.70762718  0.17233858  0.19912420  1
  Zn  Zn69  1  0.67432995  0.18377651  0.70528990  1
  Zn  Zn70  1  0.75723752  0.73215670  -0.00259230  1
  Zn  Zn71  1  0.67854177  0.66752303  0.68400813  1
  Zn  Zn72  1  0.29225088  0.31404054  0.25853178  1
  Zn  Zn73  1  0.30880069  0.30160223  0.81279355  1
  Zn  Zn74  1  0.30710657  0.83090961  0.29988842  1
  Zn  Zn75  1  0.31250696  0.82060689  0.80262483  1
  Zn  Zn76  1  0.83490802  0.31430872  0.18616545  1
  Zn  Zn77  1  0.80688967  0.30136436  0.84213037  1
  Zn  Zn78  1  0.81999640  0.82748485  0.31238851  1
  Zn  Zn79  1  0.81721495  0.80680289  0.78687609  1
  Zn  Zn80  1  0.31153995  0.41885891  0.44163912  1
  Zn  Zn81  1  0.10370856  0.42593421  0.96781952  1
  Zn  Zn82  1  0.20263525  0.92092528  0.39999769  1
  Zn  Zn83  1  0.17341062  0.95988457  0.94163053  1
  Zn  Zn84  1  0.63758537  0.33843581  0.42982132  1
  Zn  Zn85  1  0.67276695  0.39934559  0.94254527  1
  Zn  Zn86  1  0.67356937  0.80520983  0.44772458  1
  Zn  Zn87  1  0.68114934  0.93270633  0.90984600  1
  Zn  Zn88  1  0.33613518  0.09105807  0.06040841  1
  Zn  Zn89  1  0.27348227  0.01540244  0.53414679  1
  Zn  Zn90  1  0.32543605  0.55444888  0.10048214  1
  Zn  Zn91  1  0.32426318  0.54902641  0.58349332  1
  Zn  Zn92  1  0.68548101  0.05956833  0.04766350  1
  Zn  Zn93  1  0.79985682  0.08998642  0.57553305  1
  Zn  Zn94  1  0.79881372  0.52642617  0.02675253  1
  Zn  Zn95  1  0.82900780  0.54785448  0.62150685  1
  Zn  Zn96  1  0.44581078  0.44031805  0.16873818  1
  Zn  Zn97  1  0.41440079  0.43203220  0.71076554  1
  Zn  Zn98  1  0.46260935  0.93078180  0.18156960  1
  Zn  Zn99  1  0.42711999  0.93576645  0.68962135  1
  Zn  Zn100  1  1.00108021  0.39614620  0.18069129  1
  Zn  Zn101  1  0.94734521  0.41750695  0.70915784  1
  Zn  Zn102  1  0.91454236  0.87200816  0.17767979  1
  Zn  Zn103  1  0.93354261  0.93771816  0.68567262  1
  Zn  Zn104  1  0.03870202  0.08247221  0.33313761  1
  Zn  Zn105  1  0.05279919  0.07276811  0.80754225  1
  Zn  Zn106  1  0.07724587  0.58624082  0.30084349  1
  Zn  Zn107  1  0.12585083  0.58474234  0.77972295  1
  Zn  Zn108  1  0.57788742  0.05888705  0.34696931  1
  Zn  Zn109  1  0.56484883  0.05366831  0.80690428  1
  Zn  Zn110  1  0.56328727  0.49002642  0.31228303  1
  Zn  Zn111  1  0.53668686  0.55920045  0.81342108  1
  Zn  Zn112  1  0.48499631  0.21329481  0.46259030  1
  Zn  Zn113  1  0.42594422  0.18250596  0.94120885  1
  Zn  Zn114  1  0.49126789  0.70580957  0.47288416  1
  Zn  Zn115  1  0.43043907  0.68645563  0.93258044  1
  Zn  Zn116  1  0.93803793  0.22484123  0.45290359  1
  Zn  Zn117  1  0.93039768  0.17666684  0.96196136  1
  Zn  Zn118  1  1.02141960  0.71595445  0.52958667  1
  Zn  Zn119  1  0.94503298  0.68970387  0.91262126  1
  Zn  Zn120  1  0.07203017  0.27733348  0.05482137  1
  Zn  Zn121  1  0.05324191  0.35736608  0.56777054  1
  Zn  Zn122  1  0.05419828  0.81963024  0.05130324  1
  Zn  Zn123  1  0.18136436  0.83327698  0.55003622  1
  Zn  Zn124  1  0.58428997  0.31169010  0.07338123  1
  Zn  Zn125  1  0.59981435  0.28870776  0.59468120  1
  Zn  Zn126  1  0.60125199  0.74232282  0.08482341  1
  Zn  Zn127  1  0.55512891  0.81896033  0.57518901  1
  O  O128  1  0.13000602  0.11646305  0.13321214  1
  O  O129  1  0.10483822  0.12659142  0.62210261  1
  O  O130  1  0.15334569  0.65374220  0.08076719  1
  O  O131  1  0.10926575  0.59506288  0.65743378  1
  O  O132  1  0.63333442  0.11208082  0.13466021  1
  O  O133  1  0.60479903  0.10708490  0.64189400  1
  O  O134  1  0.61765560  0.62212560  0.08189785  1
  O  O135  1  0.58804175  0.61161172  0.63437262  1
  O  O136  1  0.34780728  0.34694504  0.35555199  1
  O  O137  1  0.38724720  0.34743716  0.88813495  1
  O  O138  1  0.38217770  0.89950568  0.36459491  1
  O  O139  1  0.39144784  0.88153035  0.86500444  1
  O  O140  1  0.88120200  0.42497719  0.38651758  1
  O  O141  1  0.83194903  0.38816825  0.92625205  1
  O  O142  1  0.88310350  0.86783331  0.40007503  1
  O  O143  1  0.88614583  0.87284119  0.85635257  1
  O  O144  1  0.26868408  0.00786261  0.36641461  1
  O  O145  1  0.26980230  -0.02036862  0.88395879  1
  O  O146  1  0.29858479  0.50705580  0.36327255  1
  O  O147  1  0.28866204  0.46737318  0.89537986  1
  O  O148  1  0.69570719  0.10386473  0.45163137  1
  O  O149  1  0.75574184  -0.00232461  0.85229379  1
  O  O150  1  0.70371451  0.58357106  0.43046063  1
  O  O151  1  0.77535973  0.45001496  0.93152588  1
  O  O152  1  0.24595320  0.47665988  0.09591671  1
  O  O153  1  0.24373831  0.47338394  0.61162385  1
  O  O154  1  0.28968885  1.00461615  0.11629270  1
  O  O155  1  0.22046754  1.02315009  0.63598466  1
  O  O156  1  0.71378919  0.49674328  0.10192712  1
  O  O157  1  0.69752090  0.44432133  0.63240419  1
  O  O158  1  0.72619630  0.96080545  0.09009065  1
  O  O159  1  0.73493524  1.00798156  0.62435872  1
  O  O160  1  0.00643848  0.36758976  0.29372487  1
  O  O161  1  0.01529101  0.36026784  0.77948456  1
  O  O162  1  -0.03289135  0.92250588  0.27634363  1
  O  O163  1  0.00562916  0.86937436  0.74932958  1
  O  O164  1  0.48058293  0.41023405  0.27367942  1
  O  O165  1  0.47782014  0.35102609  0.76802676  1
  O  O166  1  0.51924442  0.88839828  0.27727777  1
  O  O167  1  0.49416706  0.85588756  0.74666290  1
  O  O168  1  0.53195065  0.10582484  0.25405923  1
  O  O169  1  0.49076838  0.12330267  0.75024302  1
  O  O170  1  0.54079259  0.68374970  0.26469339  1
  O  O171  1  0.47341646  0.63403053  0.74770245  1
  O  O172  1  1.00177225  0.13973830  0.24729751  1
  O  O173  1  0.99948895  0.15009538  0.73793019  1
  O  O174  1  1.01006583  0.65471901  0.23589548  1
  O  O175  1  1.02331887  0.65086586  0.77329696  1
  O  O176  1  0.37054505  0.20962681  0.03630809  1
  O  O177  1  0.37233323  0.22480431  0.49920933  1
  O  O178  1  0.38538037  0.76206246  0.00300315  1
  O  O179  1  0.38215887  0.74497836  0.52256660  1
  O  O180  1  0.86228389  0.26545058  -0.00651006  1
  O  O181  1  0.87954332  0.30686518  0.50184637  1
  O  O182  1  0.86379870  0.75563952  -0.04036946  1
  O  O183  1  0.91149597  0.75637105  0.51345668  1
  O  O184  1  0.12555444  0.22964832  0.49251873  1
  O  O185  1  0.11521853  0.19280231  0.99533325  1
  O  O186  1  0.10851211  0.77324252  0.47987085  1
  O  O187  1  0.11911332  0.76646138  0.97816078  1
  O  O188  1  0.58144988  0.26781430  0.48955660  1
  O  O189  1  0.59232214  0.23034970  0.98981782  1
  O  O190  1  0.59596182  0.74507639  0.50125540  1
  O  O191  1  0.62954281  0.72709634  0.96555392  1
  O  O192  1  0.52147642  0.22599186  0.13711025  1
  O  O193  1  0.50129245  0.22831103  0.64606335  1
  O  O194  1  0.49839456  0.75999597  0.11947414  1
  O  O195  1  0.48609246  0.73953580  0.63796341  1
  O  O196  1  1.02952501  0.27746067  0.16210972  1
  O  O197  1  1.00319676  0.25272582  0.61596489  1
  O  O198  1  1.00900042  0.80752261  0.15020032  1
  O  O199  1  1.03815671  0.74161867  0.64162314  1
  O  O200  1  0.01959753  0.23658301  0.37489883  1
  O  O201  1  0.00686509  0.22413562  0.88624078  1
  O  O202  1  0.01688310  0.78617077  0.35127133  1
  O  O203  1  0.01225900  0.77069574  0.85794697  1
  O  O204  1  0.48684280  0.25811672  0.35572775  1
  O  O205  1  0.49508683  0.24182368  0.87250802  1
  O  O206  1  0.46931226  0.77010043  0.38059082  1
  O  O207  1  0.49528073  0.75712990  0.86102007  1
  O  O208  1  0.23843867  0.12034485  0.49636261  1
  O  O209  1  0.25527679  0.10387561  0.98000415  1
  O  O210  1  0.22617566  0.60805351  0.50220667  1
  O  O211  1  0.24453554  0.52337935  0.89673309  1
  O  O212  1  0.72803934  0.15316126  0.50476877  1
  O  O213  1  0.74531178  0.14426165  1.00711324  1
  O  O214  1  0.74620349  0.63721184  0.45393406  1
  O  O215  1  0.73928958  0.61609186  0.97961056  1
  O  O216  1  0.15396788  0.35834334  0.04492110  1
  O  O217  1  0.26434164  0.34311795  0.51491073  1
  O  O218  1  0.22626979  0.88428250  0.02778474  1
  O  O219  1  0.24007604  0.91356857  0.50412948  1
  O  O220  1  0.70236916  0.32559157  0.03385059  1
  O  O221  1  0.73808601  0.37685806  0.46150314  1
  O  O222  1  0.75652124  0.86085836  -0.04566332  1
  O  O223  1  0.76572300  0.84447719  0.50940539  1
  O  O224  1  0.17662459  0.55651171  0.24259952  1
  O  O225  1  0.12265037  0.47212118  0.77047524  1
  O  O226  1  0.11572465  0.99829430  0.23933786  1
  O  O227  1  0.10330942  0.99508536  0.73688154  1
  O  O228  1  0.61595288  0.53982822  0.22554459  1
  O  O229  1  0.59656987  0.49513620  0.74185565  1
  O  O230  1  0.65776871  0.98662467  0.30545568  1
  O  O231  1  0.64143949  0.99529109  0.74051882  1
  O  O232  1  0.39823082  0.00830000  0.25530877  1
  O  O233  1  0.38313184  0.00507198  0.76793374  1
  O  O234  1  0.36651295  0.51675630  0.20833408  1
  O  O235  1  0.35320052  0.52174650  0.75147552  1
  O  O236  1  0.91871142  0.01141764  0.13882901  1
  O  O237  1  0.86061484  -0.00065116  0.75283534  1
  O  O238  1  0.85592191  0.56754461  0.13718639  1
  O  O239  1  0.88391549  0.49183398  0.78963723  1
  O  O240  1  0.15227522  0.35543884  0.38774086  1
  O  O241  1  0.14719675  0.36726398  0.88064034  1
  O  O242  1  0.09253650  0.91161878  0.37536341  1
  O  O243  1  0.11113051  0.88646393  0.86285484  1
  O  O244  1  0.63010409  0.39848255  0.33394207  1
  O  O245  1  0.59533485  0.34539124  0.87972912  1
  O  O246  1  0.59062126  0.87898956  0.39836173  1
  O  O247  1  0.60957444  0.85149623  0.86411222  1
  O  O248  1  0.42574977  0.11521130  0.13536680  1
  O  O249  1  0.38737995  0.10680230  0.64760571  1
  O  O250  1  0.37792407  0.65125492  0.10618891  1
  O  O251  1  0.36370304  0.63838706  0.64159333  1
  O  O252  1  0.87087594  0.05676870  0.16718515  1
  O  O253  1  0.88334347  0.15018426  0.62252124  1
  O  O254  1  0.93012146  0.55067246  0.14574575  1
  O  O255  1  0.93563210  0.58627701  0.65271812  1
  O  O256  1  0.22272648  0.30086176  0.16515982  1
  O  O257  1  0.25726110  0.22552869  0.61079548  1
  O  O258  1  0.28375805  0.76896300  0.15125308  1
  O  O259  1  0.24371098  0.75322649  0.61013644  1
  O  O260  1  0.78009896  0.22916301  0.12884973  1
  O  O261  1  0.70613107  0.27444698  0.64202465  1
  O  O262  1  0.71164580  0.78051445  0.09283844  1
  O  O263  1  0.73455532  0.75994551  0.63993467  1
  O  O264  1  0.23937902  0.22532379  0.39441420  1
  O  O265  1  0.25317810  0.22778241  0.87913798  1
  O  O266  1  0.22118694  0.80442645  0.36981703  1
  O  O267  1  0.23769328  0.78011399  0.87620443  1
  O  O268  1  0.80506770  0.17666406  0.33997369  1
  O  O269  1  0.72346959  0.25181756  0.90047470  1
  O  O270  1  0.85274188  0.59148714  0.31816885  1
  O  O271  1  0.72981786  0.74852825  0.83698779  1
  O  O272  1  -0.01764880  0.12615781  0.04594946  1
  O  O273  1  -0.00399740  0.12946516  0.51187074  1
  O  O274  1  0.00675815  0.65623350  0.00279346  1
  O  O275  1  0.02211580  0.60071605  0.52114108  1
  O  O276  1  0.50418033  0.10414440  -0.01134932  1
  O  O277  1  0.49368441  0.11502311  0.52826858  1
  O  O278  1  0.50683458  0.60532610  -0.03187013  1
  O  O279  1  0.47058024  0.61013058  0.52760411  1
  O  O280  1  0.48125506  0.40025387  0.43706594  1
  O  O281  1  0.50490954  0.38752440  0.99310558  1
  O  O282  1  0.48685584  0.89153013  0.49818769  1
  O  O283  1  0.50606192  0.87897648  0.98236700  1
  O  O284  1  1.02102530  0.38489362  0.46361040  1
  O  O285  1  1.00488555  0.36086537  0.98899182  1
  O  O286  1  0.97285398  0.90719719  0.50455349  1
  O  O287  1  0.98424786  0.87195415  0.97119786  1
  O  O288  1  0.51028697  0.54800040  0.39196523  1
  O  O289  1  0.48605230  0.47663825  0.87822576  1
  O  O290  1  0.48420684  1.01257923  0.39853227  1
  O  O291  1  0.50481027  0.97933571  0.87289063  1
  O  O292  1  1.02065652  0.51461045  0.36141469  1
  O  O293  1  0.92377363  0.54124807  0.83434881  1
  O  O294  1  0.98199535  1.01341767  0.40187859  1
  O  O295  1  0.98269904  0.99040356  0.85433158  1
  O  O296  1  0.08516323  -0.02643155  0.17894116  1
  O  O297  1  -0.01162683  0.02103587  0.62125745  1
  O  O298  1  -0.05281636  0.50493369  0.20646547  1
  O  O299  1  0.01346742  0.45309383  0.62060125  1
  O  O300  1  0.51853788  0.00226349  0.10657714  1
  O  O301  1  0.50358847  -0.00417607  0.62468645  1
  O  O302  1  0.51694271  0.49995233  0.09593253  1
  O  O303  1  0.47282547  0.51221787  0.64808877  1
  O  O304  1  0.24422636  0.42012123  0.24354525  1
  O  O305  1  0.23486285  0.35700724  0.74533048  1
  O  O306  1  0.25530725  0.90543331  0.22940497  1
  O  O307  1  0.22979825  0.88787503  0.75263018  1
  O  O308  1  0.75676041  0.38116917  0.22965544  1
  O  O309  1  0.73598399  0.36699784  0.77615064  1
  O  O310  1  0.80265300  0.89081850  0.21575388  1
  O  O311  1  0.75828069  0.88746953  0.72474230  1
  O  O312  1  0.23561925  0.13128970  0.26721434  1
  O  O313  1  0.26543165  0.11868961  0.76154453  1
  O  O314  1  0.23655546  0.61789175  0.24327722  1
  O  O315  1  0.23798973  0.63578076  0.74847945  1
  O  O316  1  0.77901864  0.12439606  0.28637247  1
  O  O317  1  0.75260663  0.11258360  0.74015264  1
  O  O318  1  0.75633257  0.64177704  0.22621333  1
  O  O319  1  0.75679214  0.59320011  0.68625155  1
  O  O320  1  0.35850164  0.11584057  0.37005394  1
  O  O321  1  0.36607090  0.10558743  0.87057062  1
  O  O322  1  0.47955747  0.64735167  0.25516399  1
  O  O323  1  0.35912136  0.63880074  0.85799739  1
  O  O324  1  0.85839377  0.14736369  0.38831298  1
  O  O325  1  0.87858553  0.10812710  0.88316437  1
  O  O326  1  0.85905518  0.63941155  0.37141094  1
  O  O327  1  0.88019666  0.60028718  0.86269825  1
  O  O328  1  0.10414777  0.43993631  0.16677591  1
  O  O329  1  0.14825654  0.33979936  0.62654472  1
  O  O330  1  0.17460695  0.87467469  0.09139568  1
  O  O331  1  0.12150210  0.89644315  0.63478459  1
  O  O332  1  0.60534922  0.38932677  0.15799276  1
  O  O333  1  0.55443998  0.38122723  0.64158741  1
  O  O334  1  0.64778264  0.87003009  0.19479685  1
  O  O335  1  0.63982087  0.88751548  0.61625924  1
  O  O336  1  0.12448456  0.24299070  0.28071816  1
  O  O337  1  0.10844298  0.25904595  0.76336342  1
  O  O338  1  0.11914139  0.76487052  0.25383978  1
  O  O339  1  0.12496322  0.77505206  0.76014525  1
  O  O340  1  0.65578090  0.25878365  0.25079337  1
  O  O341  1  0.59828731  0.24125906  0.76810962  1
  O  O342  1  0.70904446  0.82659768  0.33794819  1
  O  O343  1  0.59851066  0.73159970  0.75164757  1
  O  O344  1  0.36279206  0.23654713  0.21258472  1
  O  O345  1  0.38440650  0.22280362  0.76169102  1
  O  O346  1  0.33672510  0.75385449  0.21805396  1
  O  O347  1  0.37318757  0.74520071  0.74124177  1
  O  O348  1  0.90258816  0.25894088  0.25759049  1
  O  O349  1  0.89559784  0.26534574  0.78569273  1
  O  O350  1  0.90212165  0.77042813  0.25322051  1
  O  O351  1  0.90051461  0.74839211  0.73773005  1
  O  O352  1  0.38089689  0.48952809  0.50437700  1
  O  O353  1  0.38829031  0.50925266  1.00776995  1
  O  O354  1  0.38317458  1.00683853  0.51325677  1
  O  O355  1  0.40043510  0.99739973  0.97932611  1
  O  O356  1  0.84457513  0.47622010  0.53733243  1
  O  O357  1  0.90660223  0.48409421  1.00869742  1
  O  O358  1  0.86905030  1.02477680  0.51103069  1
  O  O359  1  0.86429065  0.97330461  0.96189944  1
  O  O360  1  0.10105242  0.01761945  -0.00038861  1
  O  O361  1  0.10190089  0.01652102  0.52343084  1
  O  O362  1  0.10594211  0.53495727  -0.02140440  1
  O  O363  1  0.17905124  0.55860869  0.47738939  1
  O  O364  1  0.61746440  -0.00307004  -0.02245603  1
  O  O365  1  0.60409589  0.00459850  0.51993073  1
  O  O366  1  0.62044960  0.50610361  -0.02881336  1
  O  O367  1  0.57118075  0.48896808  0.53145590  1
  O  O368  1  0.41873350  0.34458536  0.11510449  1
  O  O369  1  0.34964089  0.36254066  0.64976118  1
  O  O370  1  0.38151778  0.87266073  0.12565414  1
  O  O371  1  0.36703008  0.85716352  0.63344851  1
  O  O372  1  0.90143923  0.37236888  0.11383246  1
  O  O373  1  0.84766719  0.37979311  0.66645212  1
  O  O374  1  0.85196462  0.86158567  0.07828573  1
  O  O375  1  0.85940308  0.88091687  0.61037371  1
  O  O376  1  0.13621732  0.10448056  0.38936897  1
  O  O377  1  0.14738601  0.10020153  0.86154838  1
  O  O378  1  0.13064711  0.66292878  0.37109709  1
  O  O379  1  0.13592448  0.65492084  0.88455535  1
  O  O380  1  0.64255420  0.13900754  0.40454659  1
  O  O381  1  0.62049629  0.13118328  0.86928784  1
  O  O382  1  0.71442864  0.68200025  0.26819236  1
  O  O383  1  0.61947558  0.62775432  0.86262832  1
