# generated using pymatgen
data_VZnO4
_symmetry_space_group_name_H-M   'P 1'
_cell_length_a   16.96931247
_cell_length_b   17.02347901
_cell_length_c   17.03739374
_cell_angle_alpha   89.95721544
_cell_angle_beta   89.95201975
_cell_angle_gamma   90.08612654
_symmetry_Int_Tables_number   1
_chemical_formula_structural   VZnO4
_chemical_formula_sum   'V64 Zn64 O256'
_cell_volume   4921.69800825
_cell_formula_units_Z   64
loop_
 _symmetry_equiv_pos_site_id
 _symmetry_equiv_pos_as_xyz
  1  'x, y, z'
loop_
 _atom_site_type_symbol
 _atom_site_label
 _atom_site_symmetry_multiplicity
 _atom_site_fract_x
 _atom_site_fract_y
 _atom_site_fract_z
 _atom_site_occupancy
  V  V0  1  0.62820997  0.24606730  0.36087469  1
  V  V1  1  0.63141253  0.83691721  0.71891775  1
  V  V2  1  0.13535166  0.74214926  0.37171510  1
  V  V3  1  0.26862583  0.52402642  0.73612972  1
  V  V4  1  0.75794534  0.25711160  0.50676578  1
  V  V5  1  0.87916089  0.09649892  0.74263080  1
  V  V6  1  0.63507344  0.24445737  0.88831342  1
  V  V7  1  0.88834371  0.64363658  0.74589894  1
  V  V8  1  0.00595584  0.36372682  0.86771652  1
  V  V9  1  0.11011160  0.26584914  0.36716036  1
  V  V10  1  -0.00070800  0.00372611  0.50163721  1
  V  V11  1  0.27154921  0.62795230  0.89730300  1
  V  V12  1  0.74494357  0.49925255  0.73912072  1
  V  V13  1  0.61221326  0.60822280  0.01354218  1
  V  V14  1  0.50089993  0.37553453  0.88358975  1
  V  V15  1  0.35113219  0.49749822  0.36276204  1
  V  V16  1  0.75897657  0.50416846  0.23224632  1
  V  V17  1  0.26079600  0.25607430  0.49104703  1
  V  V18  1  0.00420539  0.14345530  0.62956513  1
  V  V19  1  0.00271022  0.87599335  0.37951893  1
  V  V20  1  0.49759126  0.13226314  0.63062121  1
  V  V21  1  0.12691637  0.01905129  0.11988149  1
  V  V22  1  0.11409830  0.38376094  0.23564434  1
  V  V23  1  0.13064847  0.13545967  0.49183636  1
  V  V24  1  0.50674134  -0.01665632  0.50581458  1
  V  V25  1  0.13214291  -0.00514290  0.62672855  1
  V  V26  1  0.11994777  0.87149062  0.77371765  1
  V  V27  1  0.50651184  0.12091088  0.12377082  1
  V  V28  1  0.37917489  0.86894944  -0.01307058  1
  V  V29  1  0.61751916  0.75395416  0.88849227  1
  V  V30  1  0.23253447  0.51279207  0.22464022  1
  V  V31  1  0.13560824  0.63153896  0.50313822  1
  V  V32  1  0.62766176  0.12693712  0.48628000  1
  V  V33  1  0.87121263  0.01604411  0.37186047  1
  V  V34  1  0.37354567  0.00873229  0.39215790  1
  V  V35  1  0.23989574  0.13235776  0.87995417  1
  V  V36  1  0.12155228  0.51611288  0.63310638  1
  V  V37  1  0.25909061  0.87591744  0.12744407  1
  V  V38  1  0.84112356  0.84470537  0.50358832  1
  V  V39  1  -0.01099497  0.74904198  0.24366080  1
  V  V40  1  0.00448565  0.01919271  -0.01015968  1
  V  V41  1  0.37510830  0.25205012  0.63586465  1
  V  V42  1  0.74844683  0.35805957  0.11635842  1
  V  V43  1  0.76538579  0.12394369  0.87429757  1
  V  V44  1  0.88171804  0.87963922  -0.00175253  1
  V  V45  1  0.88086992  0.15929123  0.23203642  1
  V  V46  1  0.61616636  0.50302617  0.61922087  1
  V  V47  1  0.00267013  0.58798623  0.08436823  1
  V  V48  1  0.75657543  0.74186347  0.02399861  1
  V  V49  1  0.74848109  0.91158973  0.12006232  1
  V  V50  1  0.62967376  0.62708300  0.48194031  1
  V  V51  1  0.12613810  0.89360589  0.24979086  1
  V  V52  1  0.38421303  0.01308955  0.87900079  1
  V  V53  1  0.63617715  0.87143738  0.25118958  1
  V  V54  1  0.49000875  0.48206093  0.49193647  1
  V  V55  1  0.26591552  0.00154640  0.74419068  1
  V  V56  1  0.61922116  0.37583461  0.24173805  1
  V  V57  1  0.86808259  0.36337269  -0.00517555  1
  V  V58  1  0.74620700  0.62790152  0.86913317  1
  V  V59  1  0.87898863  0.49755201  0.87264912  1
  V  V60  1  0.64484286  0.01153604  0.63980419  1
  V  V61  1  0.12931082  0.35936014  0.74340924  1
  V  V62  1  0.62468093  0.36177880  0.73912541  1
  V  V63  1  -0.01207965  0.50313749  0.48836117  1
  Zn  Zn64  1  0.05095224  0.20059163  0.17208325  1
  Zn  Zn65  1  0.20015477  0.18000521  0.68141184  1
  Zn  Zn66  1  0.16868703  0.69807489  0.18072262  1
  Zn  Zn67  1  0.06787936  0.70199153  0.69480685  1
  Zn  Zn68  1  0.70537935  0.17913866  0.19020094  1
  Zn  Zn69  1  0.69340937  0.17913468  0.68506761  1
  Zn  Zn70  1  0.67209509  0.68353843  0.19585426  1
  Zn  Zn71  1  0.56559057  0.67738351  0.69663162  1
  Zn  Zn72  1  0.28376426  0.33392888  0.32411962  1
  Zn  Zn73  1  0.30870149  0.31935114  0.81210547  1
  Zn  Zn74  1  0.30446957  0.84709948  0.33056569  1
  Zn  Zn75  1  0.29295340  0.81608867  0.81882725  1
  Zn  Zn76  1  0.79998363  0.31319619  0.31473910  1
  Zn  Zn77  1  0.80671282  0.31578187  0.80653932  1
  Zn  Zn78  1  0.83346660  0.86250369  0.29543736  1
  Zn  Zn79  1  0.80684440  0.81787944  0.81406448  1
  Zn  Zn80  1  0.17240766  0.43763935  0.44714328  1
  Zn  Zn81  1  0.19964711  0.44418916  0.89711341  1
  Zn  Zn82  1  0.18075620  0.94953370  0.43616630  1
  Zn  Zn83  1  0.19693783  0.94891590  0.94222275  1
  Zn  Zn84  1  0.68255027  0.42514988  0.43819354  1
  Zn  Zn85  1  0.68642475  0.43726535  0.92952979  1
  Zn  Zn86  1  0.69140872  0.94566023  0.43958285  1
  Zn  Zn87  1  0.72420634  0.93320617  0.92279908  1
  Zn  Zn88  1  0.31008215  0.06272926  0.05787055  1
  Zn  Zn89  1  0.31649360  0.06561926  0.55927275  1
  Zn  Zn90  1  0.18221453  0.57191669  0.05533430  1
  Zn  Zn91  1  0.30802334  0.43069218  0.56897140  1
  Zn  Zn92  1  0.83595058  0.07806765  0.05927462  1
  Zn  Zn93  1  0.81773330  0.08242242  0.55708140  1
  Zn  Zn94  1  0.81768137  0.55423302  0.06541755  1
  Zn  Zn95  1  0.80788308  0.57218138  0.56378473  1
  Zn  Zn96  1  0.48357558  0.35902324  0.36700170  1
  Zn  Zn97  1  0.44700847  0.42492888  0.68807032  1
  Zn  Zn98  1  0.44204873  0.91370583  0.22010069  1
  Zn  Zn99  1  0.48888675  0.97781481  0.73149054  1
  Zn  Zn100  1  0.93144116  0.43768523  0.18444395  1
  Zn  Zn101  1  0.94511212  0.44622789  0.69570107  1
  Zn  Zn102  1  0.94182739  0.94533285  0.18064632  1
  Zn  Zn103  1  0.94415155  0.92001796  0.67446908  1
  Zn  Zn104  1  0.05152373  0.07109314  0.31149453  1
  Zn  Zn105  1  0.06430881  0.06404612  0.80870894  1
  Zn  Zn106  1  0.05299832  0.56573832  0.31267670  1
  Zn  Zn107  1  0.06583757  0.56435626  0.82065122  1
  Zn  Zn108  1  0.55066893  0.04102881  0.31348983  1
  Zn  Zn109  1  0.59791709  0.03495910  0.86122978  1
  Zn  Zn110  1  0.56312043  0.54517043  0.31616770  1
  Zn  Zn111  1  0.43911225  0.55920359  0.81313358  1
  Zn  Zn112  1  0.44725055  0.18058824  0.43260637  1
  Zn  Zn113  1  0.42441279  0.21362392  0.89749840  1
  Zn  Zn114  1  0.42196288  0.64781165  0.46788146  1
  Zn  Zn115  1  0.43844635  0.68767559  0.95705652  1
  Zn  Zn116  1  0.93753990  0.18594014  0.43600197  1
  Zn  Zn117  1  0.93971510  0.18815364  0.92893803  1
  Zn  Zn118  1  0.94716737  0.68303607  0.55803328  1
  Zn  Zn119  1  0.90494363  0.66909472  0.95936714  1
  Zn  Zn120  1  0.03858268  0.37252058  0.06967100  1
  Zn  Zn121  1  0.06535977  0.32514311  0.56288777  1
  Zn  Zn122  1  0.05169651  0.83565897  0.07518636  1
  Zn  Zn123  1  0.07352989  0.81611911  0.55650535  1
  Zn  Zn124  1  0.56308780  0.30473102  0.06025344  1
  Zn  Zn125  1  0.56710436  0.30806843  0.56077850  1
  Zn  Zn126  1  0.57293274  0.93582841  0.04036861  1
  Zn  Zn127  1  0.62918072  0.81660152  0.54041389  1
  O  O128  1  0.12522747  0.11622326  0.13351719  1
  O  O129  1  0.11696109  0.12072861  0.61851902  1
  O  O130  1  0.09891945  0.62989116  0.11270763  1
  O  O131  1  0.12886795  0.62464875  0.61651167  1
  O  O132  1  0.61167420  0.13010041  0.13901895  1
  O  O133  1  0.61552623  0.12470579  0.61256469  1
  O  O134  1  0.62570491  0.62256379  0.11201243  1
  O  O135  1  0.61741839  0.60319877  0.61481739  1
  O  O136  1  0.37345485  0.38727865  0.36376132  1
  O  O137  1  0.40634939  0.32951057  0.86961125  1
  O  O138  1  0.31518522  0.84406650  0.46372769  1
  O  O139  1  0.36696325  0.88737357  0.88416360  1
  O  O140  1  0.82759974  0.41714437  0.36962608  1
  O  O141  1  0.87566377  0.38386285  0.87007015  1
  O  O142  1  0.88134676  0.88158093  0.40599012  1
  O  O143  1  0.83791470  0.88807845  0.90261548  1
  O  O144  1  0.27251367  0.00167944  0.40146088  1
  O  O145  1  0.26380903  0.00903027  0.86153352  1
  O  O146  1  0.25528951  0.49270024  0.39272891  1
  O  O147  1  0.26163374  0.52706638  0.84876489  1
  O  O148  1  0.77386467  0.00603205  0.38913628  1
  O  O149  1  0.75161665  0.02555706  0.85788153  1
  O  O150  1  0.76809098  0.46810068  0.35985439  1
  O  O151  1  0.75725302  0.50781897  0.86352010  1
  O  O152  1  0.23544099  0.50006535  0.12601755  1
  O  O153  1  0.23889025  0.49470674  0.63294674  1
  O  O154  1  0.23362991  0.99858016  0.12289220  1
  O  O155  1  0.24248636  1.01198528  0.63151266  1
  O  O156  1  0.75113101  0.48685490  0.12777520  1
  O  O157  1  0.74508835  0.50401427  0.63608132  1
  O  O158  1  0.75315494  1.00887987  0.10476977  1
  O  O159  1  0.74229151  1.02507551  0.62268148  1
  O  O160  1  0.01239018  0.38745840  0.24441204  1
  O  O161  1  0.01736098  0.37920247  0.75672358  1
  O  O162  1  0.01226953  0.87668168  0.25833703  1
  O  O163  1  0.02194884  0.88644375  0.74853104  1
  O  O164  1  0.52133618  0.37157835  0.24426651  1
  O  O165  1  0.52186147  0.37378775  0.75805882  1
  O  O166  1  0.46002448  0.76696312  0.18445982  1
  O  O167  1  0.54726015  0.88130323  0.75368100  1
  O  O168  1  0.50317050  0.10800689  0.22892684  1
  O  O169  1  0.49946190  0.12390808  0.72642605  1
  O  O170  1  0.49763897  0.60674796  0.24226225  1
  O  O171  1  0.49332512  0.60511797  0.73045522  1
  O  O172  1  0.99006676  0.13404943  0.24348422  1
  O  O173  1  0.99470954  0.12119516  0.73553800  1
  O  O174  1  0.99902239  0.64973740  0.25878641  1
  O  O175  1  0.99386251  0.63437898  0.76002361  1
  O  O176  1  0.40572920  0.21253458  0.00968574  1
  O  O177  1  0.35999245  0.24365747  0.48031413  1
  O  O178  1  0.37157179  0.77015241  -0.00337426  1
  O  O179  1  0.37924911  0.72502492  0.54033834  1
  O  O180  1  0.87239062  0.26661523  -0.01726483  1
  O  O181  1  0.85609912  0.23342999  0.49258277  1
  O  O182  1  0.86448478  0.76632189  -0.00030127  1
  O  O183  1  0.86487537  0.74881850  0.50666360  1
  O  O184  1  0.12912975  0.24387511  0.50067729  1
  O  O185  1  0.20605877  0.32057285  0.99774360  1
  O  O186  1  0.12672026  0.74360373  0.48364048  1
  O  O187  1  0.12133468  0.76216024  0.99206056  1
  O  O188  1  0.62949132  0.23765982  0.48965137  1
  O  O189  1  0.63766935  0.25227012  0.98703181  1
  O  O190  1  0.60207823  0.72368421  0.48137646  1
  O  O191  1  0.65307353  0.72509295  0.99831942  1
  O  O192  1  0.50073519  0.22511946  0.13154506  1
  O  O193  1  0.48932424  0.24138177  0.61526466  1
  O  O194  1  0.49657706  0.74231336  0.12717042  1
  O  O195  1  0.45879297  0.76971070  0.65710176  1
  O  O196  1  1.01715044  0.26580808  0.09181322  1
  O  O197  1  1.00858421  0.24073662  0.62162576  1
  O  O198  1  1.00081699  0.76209654  0.14375899  1
  O  O199  1  1.00560691  0.75769835  0.62014750  1
  O  O200  1  0.01343197  0.25251590  0.38748103  1
  O  O201  1  -0.00584129  0.26568809  0.86477846  1
  O  O202  1  0.01539789  0.77304520  0.37189637  1
  O  O203  1  0.08299123  0.73993791  0.93400371  1
  O  O204  1  0.51924481  0.24934696  0.37429575  1
  O  O205  1  0.53273203  0.24202437  0.86852582  1
  O  O206  1  0.44597912  0.75917158  0.39172312  1
  O  O207  1  0.52034279  0.75280870  0.90585804  1
  O  O208  1  0.23526803  0.13581910  0.50321500  1
  O  O209  1  0.25083429  0.11829889  0.98038068  1
  O  O210  1  0.23075235  0.62314309  0.49431568  1
  O  O211  1  0.26522490  0.62445275  0.99684215  1
  O  O212  1  0.73081217  0.12787504  0.49560170  1
  O  O213  1  0.78427844  0.12888263  0.97171492  1
  O  O214  1  0.72818848  0.62726701  0.50898484  1
  O  O215  1  0.78021057  0.63502801  0.98870434  1
  O  O216  1  0.26239990  0.37369902  -0.03368201  1
  O  O217  1  0.24311531  0.35871816  0.50478002  1
  O  O218  1  0.26964860  0.89141500  0.01896183  1
  O  O219  1  0.25433482  0.86649296  0.50132494  1
  O  O220  1  0.75748982  0.37828183  0.00461615  1
  O  O221  1  0.74825335  0.35709985  0.49968731  1
  O  O222  1  0.75056362  0.85834516  0.02315941  1
  O  O223  1  0.73676698  0.85515228  0.49915162  1
  O  O224  1  0.12529164  0.49451345  0.25604025  1
  O  O225  1  0.14023996  0.52043242  0.73955872  1
  O  O226  1  0.11496513  0.99715152  0.24231378  1
  O  O227  1  0.12983357  0.99613240  0.73311916  1
  O  O228  1  0.63996748  0.47737639  0.25653867  1
  O  O229  1  0.63578191  0.49442728  0.73289983  1
  O  O230  1  0.54849542  0.93573518  0.24785775  1
  O  O231  1  0.62615201  1.02363743  0.73780865  1
  O  O232  1  0.38261868  -0.06862591  0.31689589  1
  O  O233  1  0.36645496  -0.01116485  0.74498758  1
  O  O234  1  0.33599137  0.50372556  0.25975600  1
  O  O235  1  0.36749062  0.48814500  0.73847268  1
  O  O236  1  0.88239415  -0.02657203  0.27597082  1
  O  O237  1  0.88057694  -0.00174037  0.73860565  1
  O  O238  1  0.85970267  0.50126375  0.24169147  1
  O  O239  1  0.86216225  0.50351588  0.75271675  1
  O  O240  1  0.11973890  0.36687438  0.37584442  1
  O  O241  1  0.10973008  0.37577235  0.86692722  1
  O  O242  1  0.12203703  0.88281935  0.36417150  1
  O  O243  1  0.13159334  0.88450545  0.87283061  1
  O  O244  1  0.62884173  0.35844134  0.35769090  1
  O  O245  1  0.62352759  0.36364820  0.86503769  1
  O  O246  1  0.65461097  0.88863248  0.34839604  1
  O  O247  1  0.64768484  0.84807405  0.89360843  1
  O  O248  1  0.40382486  0.10997364  0.11983376  1
  O  O249  1  0.38919138  0.13738969  0.61090707  1
  O  O250  1  0.42145485  0.58243114  0.13718181  1
  O  O251  1  0.31542886  0.70068169  0.58597570  1
  O  O252  1  0.88423486  0.14809210  0.13079380  1
  O  O253  1  0.89607475  0.12260226  0.63220348  1
  O  O254  1  0.90886763  0.61113259  0.11512658  1
  O  O255  1  0.87684141  0.63038139  0.64411327  1
  O  O256  1  0.23235190  0.27046862  0.04448212  1
  O  O257  1  0.26936208  0.24017039  0.60743836  1
  O  O258  1  0.24019917  0.77724686  0.13143077  1
  O  O259  1  0.27280615  0.75611831  0.61056811  1
  O  O260  1  0.75136696  0.25985269  0.11917653  1
  O  O261  1  0.74449565  0.24072752  0.60490742  1
  O  O262  1  0.75640292  0.73082758  0.12077146  1
  O  O263  1  0.61768426  0.76448401  0.64256754  1
  O  O264  1  0.22984713  0.25219073  0.38704195  1
  O  O265  1  0.26172352  0.22954248  0.86557139  1
  O  O266  1  0.23311871  0.76083605  0.36153703  1
  O  O267  1  0.24877587  0.72094069  0.86533023  1
  O  O268  1  0.73328849  0.24721508  0.38480903  1
  O  O269  1  0.74670328  0.24218789  0.86233463  1
  O  O270  1  0.78534917  0.69507417  0.36903699  1
  O  O271  1  0.75593626  0.73116751  0.87722287  1
  O  O272  1  -0.00591210  0.11785635  -0.00204223  1
  O  O273  1  0.01190985  0.12340867  0.51232534  1
  O  O274  1  -0.00290666  0.61189218  -0.01435325  1
  O  O275  1  0.01663290  0.61239956  0.50233716  1
  O  O276  1  0.52469131  0.12509587  0.02298857  1
  O  O277  1  0.51523513  0.11903062  0.50480744  1
  O  O278  1  0.51328163  0.61566290  0.00173547  1
  O  O279  1  0.51584545  0.58968745  0.49536315  1
  O  O280  1  0.51432447  0.38026418  0.49080909  1
  O  O281  1  0.51172416  0.36603379  0.98345510  1
  O  O282  1  0.52505049  0.88762985  0.51404834  1
  O  O283  1  0.47335139  0.88588933  1.02033351  1
  O  O284  1  1.00555590  0.40428953  0.51438101  1
  O  O285  1  0.98015113  0.38253092  0.97302879  1
  O  O286  1  1.01797819  0.89467412  0.48970261  1
  O  O287  1  0.98267873  0.86945101  0.99205951  1
  O  O288  1  0.49139893  0.48188584  0.38210330  1
  O  O289  1  0.48519615  0.47297256  0.87308908  1
  O  O290  1  0.49767851  0.99490941  0.40102910  1
  O  O291  1  0.48420447  1.00686151  0.84984812  1
  O  O292  1  0.99897778  0.50233302  0.38842337  1
  O  O293  1  0.98189356  0.49173920  0.85771117  1
  O  O294  1  0.99722620  0.99544229  0.38331905  1
  O  O295  1  1.01255572  1.00428809  0.89140415  1
  O  O296  1  0.01711594  -0.00714658  0.11112790  1
  O  O297  1  0.01685133  0.00384049  0.61399989  1
  O  O298  1  0.00552144  0.48570865  0.10051341  1
  O  O299  1  0.01976825  0.50828051  0.63640398  1
  O  O300  1  0.51730565  0.01707893  0.11346677  1
  O  O301  1  0.50894623  0.01414934  0.61750944  1
  O  O302  1  0.47973958  0.56008979  0.17643571  1
  O  O303  1  0.51277013  0.48251764  0.61089400  1
  O  O304  1  0.22640737  0.39282633  0.25053265  1
  O  O305  1  0.22863459  0.39038638  0.77270373  1
  O  O306  1  0.23131740  0.88451928  0.24683323  1
  O  O307  1  0.23534617  0.89587295  0.75368167  1
  O  O308  1  0.74837176  0.37654966  0.22696181  1
  O  O309  1  0.73759887  0.39300371  0.75562170  1
  O  O310  1  0.74593956  0.88535630  0.22637260  1
  O  O311  1  0.72535208  0.86171681  0.75016569  1
  O  O312  1  0.28142393  0.18760932  0.18542314  1
  O  O313  1  0.24981731  0.10622017  0.75395400  1
  O  O314  1  0.22299886  0.61275500  0.23512621  1
  O  O315  1  0.27860061  0.61866740  0.72775334  1
  O  O316  1  0.78350969  0.12403123  0.24545914  1
  O  O317  1  0.78087700  0.13283132  0.74225954  1
  O  O318  1  0.73536748  0.60088836  0.24213516  1
  O  O319  1  0.75704668  0.61491704  0.76228625  1
  O  O320  1  0.38943847  0.10378319  0.36572110  1
  O  O321  1  0.37050792  0.11518838  0.86710268  1
  O  O322  1  0.37940723  0.59339656  0.38182904  1
  O  O323  1  0.37700322  0.62530835  0.88353651  1
  O  O324  1  0.88968425  0.11535125  0.35574601  1
  O  O325  1  0.88035524  0.13064493  0.84628669  1
  O  O326  1  0.82921741  0.63850163  0.36887472  1
  O  O327  1  0.87043859  0.61216910  0.86081906  1
  O  O328  1  0.12837108  0.37708168  0.13682951  1
  O  O329  1  0.12503020  0.39063732  0.64292176  1
  O  O330  1  0.13256505  0.88728245  0.13851514  1
  O  O331  1  0.13661574  0.89694035  0.61042057  1
  O  O332  1  0.63539555  0.36268821  0.13126417  1
  O  O333  1  0.62513780  0.37758097  0.63539356  1
  O  O334  1  0.64202442  0.89601357  0.12850819  1
  O  O335  1  0.63671484  0.90793468  0.62674214  1
  O  O336  1  0.11634429  0.26560700  0.26221213  1
  O  O337  1  0.13803897  0.26204874  0.73513915  1
  O  O338  1  0.11259326  0.76525753  0.26092019  1
  O  O339  1  0.13260642  0.77310444  0.75426698  1
  O  O340  1  0.63912241  0.25093915  0.25701537  1
  O  O341  1  0.63816993  0.26239616  0.74365669  1
  O  O342  1  0.62007817  0.77283210  0.24195261  1
  O  O343  1  0.62043714  0.74075360  0.78282952  1
  O  O344  1  0.32655988  0.22248280  0.23057761  1
  O  O345  1  0.36675381  0.24790786  0.73266909  1
  O  O346  1  0.40408294  0.76022434  0.33034847  1
  O  O347  1  0.37985667  0.75800706  0.76160458  1
  O  O348  1  0.87699788  0.25791803  0.25415337  1
  O  O349  1  0.87187374  0.29293194  0.70613431  1
  O  O350  1  0.89208229  0.77258778  0.26388285  1
  O  O351  1  0.87436152  0.74042328  0.76077112  1
  O  O352  1  0.38893374  0.48632984  0.50444778  1
  O  O353  1  0.39779249  0.40049771  1.11600575  1
  O  O354  1  0.39299507  0.99822194  0.50149870  1
  O  O355  1  0.37907001  1.00354995  0.98077929  1
  O  O356  1  0.88988196  0.51690277  0.51135618  1
  O  O357  1  0.86621395  0.49254005  0.97438897  1
  O  O358  1  0.89328322  1.02398922  0.48746302  1
  O  O359  1  0.89695226  0.99275454  1.00489696  1
  O  O360  1  0.11743282  0.00136294  0.01100484  1
  O  O361  1  0.12202063  0.01919343  0.50626943  1
  O  O362  1  0.13586542  0.52784699  -0.04459850  1
  O  O363  1  0.12153270  0.51301428  0.51602113  1
  O  O364  1  0.63035203  -0.01270827  -0.03952324  1
  O  O365  1  0.62134412  0.01215568  0.50539941  1
  O  O366  1  0.63886947  0.51272746  -0.00241368  1
  O  O367  1  0.62903087  0.49288432  0.51186786  1
  O  O368  1  0.34151645  0.35581050  0.11794000  1
  O  O369  1  0.38186751  0.35619666  0.61981326  1
  O  O370  1  0.35872960  0.89008649  0.14849518  1
  O  O371  1  0.40486554  0.80118647  0.69943438  1
  O  O372  1  0.86727289  0.37693765  0.10137727  1
  O  O373  1  0.88096807  0.34775357  0.65487900  1
  O  O374  1  0.86195821  0.88992837  0.11166581  1
  O  O375  1  0.87710199  0.88812178  0.58664795  1
  O  O376  1  0.11718072  0.13418734  0.38949440  1
  O  O377  1  0.13994698  0.12414569  0.86574959  1
  O  O378  1  0.12353798  0.63960383  0.37992845  1
  O  O379  1  0.14156090  0.59611233  0.90294970  1
  O  O380  1  0.61641048  0.12614527  0.37855990  1
  O  O381  1  0.65110005  0.13802988  0.86818169  1
  O  O382  1  0.63294123  0.60136135  0.38387530  1
  O  O383  1  0.64579547  0.62682380  0.89184048  1
