# generated using pymatgen
data_VZnO4
_symmetry_space_group_name_H-M   'P 1'
_cell_length_a   16.88638496
_cell_length_b   16.89812761
_cell_length_c   16.88414086
_cell_angle_alpha   90.07946596
_cell_angle_beta   90.03190992
_cell_angle_gamma   90.26420232
_symmetry_Int_Tables_number   1
_chemical_formula_structural   VZnO4
_chemical_formula_sum   'V64 Zn64 O256'
_cell_volume   4817.80406799
_cell_formula_units_Z   64
loop_
 _symmetry_equiv_pos_site_id
 _symmetry_equiv_pos_as_xyz
  1  'x, y, z'
loop_
 _atom_site_type_symbol
 _atom_site_label
 _atom_site_symmetry_multiplicity
 _atom_site_fract_x
 _atom_site_fract_y
 _atom_site_fract_z
 _atom_site_occupancy
  V  V0  1  0.64301521  0.26514384  0.88424329  1
  V  V1  1  0.89266146  0.36937282  -0.00849699  1
  V  V2  1  -0.00333189  0.01133164  0.49866822  1
  V  V3  1  0.86159674  0.25142605  0.14130836  1
  V  V4  1  0.87671870  -0.01462279  0.36256911  1
  V  V5  1  0.36737267  0.01172012  0.36818258  1
  V  V6  1  0.49658817  0.12080673  0.11267645  1
  V  V7  1  0.75434347  0.75740106  0.47559155  1
  V  V8  1  0.62348926  0.63135008  0.00174010  1
  V  V9  1  0.64183562  0.13049743  -0.00578576  1
  V  V10  1  0.24166796  0.86832781  0.62710204  1
  V  V11  1  0.11159124  0.25040434  0.87473552  1
  V  V12  1  0.24713783  0.63656926  0.88538119  1
  V  V13  1  0.62135163  0.24761863  0.38396586  1
  V  V14  1  0.87102962  0.77024214  0.63566650  1
  V  V15  1  -0.01852206  0.86681692  0.88027545  1
  V  V16  1  0.12423126  0.66531091  0.00073706  1
  V  V17  1  0.75996590  0.13536610  0.36682707  1
  V  V18  1  0.76295764  0.62047130  0.87264603  1
  V  V19  1  0.11547971  0.86134173  0.76251057  1
  V  V20  1  -0.02114713  0.47695989  0.51801853  1
  V  V21  1  0.63279014  -0.00251598  0.13243355  1
  V  V22  1  0.38127801  0.26077930  0.62538955  1
  V  V23  1  0.25018856  0.11755779  0.88447686  1
  V  V24  1  0.01170680  0.01099779  0.00208818  1
  V  V25  1  0.87341142  0.22734799  0.60443043  1
  V  V26  1  0.51183042  0.00585977  0.51057829  1
  V  V27  1  0.11874279  0.00872502  0.62166010  1
  V  V28  1  0.01354329  0.85454443  0.38659225  1
  V  V29  1  0.51011648  0.86989419  0.37189708  1
  V  V30  1  0.48147245  0.61167220  0.12206078  1
  V  V31  1  0.62348944  0.63208554  0.46602084  1
  V  V32  1  0.23494250  0.74771968  0.49295580  1
  V  V33  1  0.85950824  0.49535578  0.36385133  1
  V  V34  1  0.49593025  0.25122123  0.25314461  1
  V  V35  1  0.00868518  0.60177198  0.12663406  1
  V  V36  1  0.63685262  0.50034100  0.12707129  1
  V  V37  1  0.24814595  -0.00342404  0.75678183  1
  V  V38  1  0.37088516  0.89186489  -0.02243681  1
  V  V39  1  0.24644607  0.21383268  0.51458640  1
  V  V40  1  0.37657006  0.87179734  0.49591149  1
  V  V41  1  0.38719205  0.74841661  0.63337429  1
  V  V42  1  0.36519562  0.61825855  0.75401508  1
  V  V43  1  0.26722681  0.87532615  0.12244705  1
  V  V44  1  0.37422787  0.24997958  0.12033686  1
  V  V45  1  0.49670966  0.37508191  0.85514021  1
  V  V46  1  0.49654300  0.49477382  0.48286027  1
  V  V47  1  0.00892108  0.13782375  0.12942795  1
  V  V48  1  0.38477862  0.38201567  -0.00267879  1
  V  V49  1  0.63466879  0.37661621  0.24591852  1
  V  V50  1  0.49537893  0.75500042  0.24256332  1
  V  V51  1  0.75488902  0.76561326  0.01086379  1
  V  V52  1  0.62236482  0.51981383  0.63747938  1
  V  V53  1  0.14770532  0.51453227  0.62400185  1
  V  V54  1  0.13372978  0.88428649  0.24391971  1
  V  V55  1  0.36160187  0.62377368  0.26748614  1
  V  V56  1  -0.00269400  0.75785674  0.22618328  1
  V  V57  1  0.37865472  0.12189314  0.74570424  1
  V  V58  1  0.24408517  0.25310482  -0.00196793  1
  V  V59  1  0.12691463  0.36610606  0.73994172  1
  V  V60  1  0.86668611  0.02462291  0.88400038  1
  V  V61  1  0.73511198  0.37437399  0.60173047  1
  V  V62  1  0.13811195  0.25950353  0.38144509  1
  V  V63  1  0.21620650  0.62329490  0.37303127  1
  Zn  Zn64  1  0.16464487  0.22816408  0.17387516  1
  Zn  Zn65  1  0.18968940  0.18584241  0.69560127  1
  Zn  Zn66  1  0.18280170  0.69949702  0.18715986  1
  Zn  Zn67  1  0.18729376  0.68683342  0.68913389  1
  Zn  Zn68  1  0.68358569  0.17901230  0.19310773  1
  Zn  Zn69  1  0.73738201  0.21755461  0.71755975  1
  Zn  Zn70  1  0.67340252  0.70077237  0.19578533  1
  Zn  Zn71  1  0.74038866  0.65189651  0.66455050  1
  Zn  Zn72  1  0.30025737  0.26856948  0.30968780  1
  Zn  Zn73  1  0.31440737  0.30501316  0.80899596  1
  Zn  Zn74  1  0.31177878  0.81243253  0.30951902  1
  Zn  Zn75  1  0.30967229  0.80967918  0.81350243  1
  Zn  Zn76  1  0.81365499  0.31598943  0.31725905  1
  Zn  Zn77  1  0.84096300  0.30285606  0.81640848  1
  Zn  Zn78  1  0.82397167  0.67352215  0.31210879  1
  Zn  Zn79  1  0.80419492  0.79832571  0.82321958  1
  Zn  Zn80  1  0.12252940  0.46514185  0.41815042  1
  Zn  Zn81  1  0.22210100  0.41766622  0.89126527  1
  Zn  Zn82  1  0.18480494  0.93720815  0.43797160  1
  Zn  Zn83  1  0.18531855  0.92875280  0.94445683  1
  Zn  Zn84  1  0.67726893  0.44285163  0.42665029  1
  Zn  Zn85  1  0.67867650  0.44945377  0.93714745  1
  Zn  Zn86  1  0.69216138  0.94315980  0.43458830  1
  Zn  Zn87  1  0.70531797  0.96277744  0.95518571  1
  Zn  Zn88  1  0.31280563  0.05583410  0.06516825  1
  Zn  Zn89  1  0.31928640  0.05016566  0.56669574  1
  Zn  Zn90  1  0.30964293  0.56860419  0.05557866  1
  Zn  Zn91  1  0.31567558  0.57202155  0.55432532  1
  Zn  Zn92  1  0.81825176  0.06652810  0.07385126  1
  Zn  Zn93  1  0.81906698  0.08183584  0.52136784  1
  Zn  Zn94  1  0.79614063  0.61501115  0.11693593  1
  Zn  Zn95  1  0.79764937  0.55528685  0.54182572  1
  Zn  Zn96  1  0.41861852  0.43124994  0.20396451  1
  Zn  Zn97  1  0.44158531  0.44251632  0.67231507  1
  Zn  Zn98  1  0.43631219  0.94304183  0.18754897  1
  Zn  Zn99  1  0.43080902  0.94099466  0.68654044  1
  Zn  Zn100  1  0.91509301  0.44819954  0.17698183  1
  Zn  Zn101  1  0.95419366  0.37922487  0.67900890  1
  Zn  Zn102  1  0.98976719  0.97387720  0.21295125  1
  Zn  Zn103  1  0.93714155  0.93691746  0.68950400  1
  Zn  Zn104  1  0.06480661  0.08159714  0.31786831  1
  Zn  Zn105  1  0.06485920  0.05812896  0.81890407  1
  Zn  Zn106  1  0.00564826  0.61542867  0.34987851  1
  Zn  Zn107  1  0.11172398  0.54348121  0.82671317  1
  Zn  Zn108  1  0.55161970  0.06371880  0.31095836  1
  Zn  Zn109  1  0.57810917  0.14892932  0.77590591  1
  Zn  Zn110  1  0.55235826  0.56077573  0.30369123  1
  Zn  Zn111  1  0.56327114  0.55560525  0.82070518  1
  Zn  Zn112  1  0.43787586  0.18452194  0.44633553  1
  Zn  Zn113  1  0.44299250  0.19289018  0.92919022  1
  Zn  Zn114  1  0.43621785  0.68600566  0.44039283  1
  Zn  Zn115  1  0.44317351  0.67947471  0.93129487  1
  Zn  Zn116  1  0.95312577  0.18235399  0.42658219  1
  Zn  Zn117  1  0.92897499  0.18628714  0.95179881  1
  Zn  Zn118  1  0.92620577  0.66343275  0.50663084  1
  Zn  Zn119  1  0.93009178  0.68296093  0.96007796  1
  Zn  Zn120  1  0.05306751  0.31954235  0.06136034  1
  Zn  Zn121  1  0.05893861  0.30292557  0.55729335  1
  Zn  Zn122  1  0.05671977  0.83641834  0.06352128  1
  Zn  Zn123  1  0.05062973  0.81117002  0.56927617  1
  Zn  Zn124  1  0.56454282  0.31427054  0.06294269  1
  Zn  Zn125  1  0.55363759  0.31809986  0.56358462  1
  Zn  Zn126  1  0.56066988  0.81081597  0.06766906  1
  Zn  Zn127  1  0.57289095  0.80839170  0.55905174  1
  O  O128  1  0.11202011  0.14095033  0.12570650  1
  O  O129  1  0.12409793  0.10654611  0.63992182  1
  O  O130  1  0.12460928  0.63450238  0.10823740  1
  O  O131  1  0.12792828  0.61342806  0.62736670  1
  O  O132  1  0.61516931  0.12429348  0.11399948  1
  O  O133  1  0.61150640  0.10092409  0.66239484  1
  O  O134  1  0.60655238  0.61293209  0.12714794  1
  O  O135  1  0.63204787  0.62035722  0.62698553  1
  O  O136  1  0.33473193  0.43180072  0.36778276  1
  O  O137  1  0.38667460  0.36182957  0.88494104  1
  O  O138  1  0.37628503  0.87780191  0.38766016  1
  O  O139  1  0.36219203  0.88776101  0.87690515  1
  O  O140  1  0.87772216  0.39366802  0.36652826  1
  O  O141  1  0.88424148  0.37186109  0.88970232  1
  O  O142  1  0.90903089  0.88628323  0.37392167  1
  O  O143  1  0.88231153  0.88786005  0.85753941  1
  O  O144  1  0.26846919  -0.00638671  0.38766239  1
  O  O145  1  0.23956038  0.00939451  0.87104319  1
  O  O146  1  0.21334939  0.52278713  0.37782578  1
  O  O147  1  0.21746843  0.52701525  0.87509805  1
  O  O148  1  0.77613191  -0.02480756  0.36592231  1
  O  O149  1  0.76937069  -0.00182746  0.86758790  1
  O  O150  1  0.75872702  0.50144603  0.36635846  1
  O  O151  1  0.74217906  0.51969663  0.87894787  1
  O  O152  1  0.22499429  0.49908104  0.12024560  1
  O  O153  1  0.24701900  0.50515313  0.61455048  1
  O  O154  1  0.24992893  0.98110215  0.12039441  1
  O  O155  1  0.23942586  0.98585547  0.63326111  1
  O  O156  1  0.73421624  0.50940018  0.13509536  1
  O  O157  1  0.72571154  0.49055853  0.60980492  1
  O  O158  1  0.73455232  1.00601387  0.12265949  1
  O  O159  1  0.67959731  1.06322836  0.66318535  1
  O  O160  1  0.11797872  0.39611452  0.20836446  1
  O  O161  1  0.02667111  0.37145215  0.76470818  1
  O  O162  1  0.01043380  0.86629888  0.26174333  1
  O  O163  1  0.00969120  0.88026375  0.76369498  1
  O  O164  1  0.50158990  0.35642596  0.24061385  1
  O  O165  1  0.48965331  0.37423844  0.75575744  1
  O  O166  1  0.48502617  0.86434426  0.26021094  1
  O  O167  1  0.50810802  0.86667675  0.75247077  1
  O  O168  1  0.50567594  0.14302989  0.23077024  1
  O  O169  1  0.47585123  0.10721172  0.76638160  1
  O  O170  1  0.48052768  0.63286743  0.24228160  1
  O  O171  1  0.48172686  0.63813804  0.77781823  1
  O  O172  1  0.99855170  0.11105756  0.22821375  1
  O  O173  1  0.96625257  0.08628951  0.75068615  1
  O  O174  1  1.01853074  0.64462330  0.22812273  1
  O  O175  1  0.98957893  0.60391726  0.74838814  1
  O  O176  1  0.37068561  0.25482310  0.00599166  1
  O  O177  1  0.35960264  0.23633656  0.51652961  1
  O  O178  1  0.41193212  0.77902385  -0.00971903  1
  O  O179  1  0.36613299  0.75560328  0.51307673  1
  O  O180  1  0.87589293  0.26622964  0.01064331  1
  O  O181  1  0.88297621  0.23476423  0.50137956  1
  O  O182  1  0.85476692  0.74824033  0.01918922  1
  O  O183  1  0.85832441  0.75312219  0.49569367  1
  O  O184  1  0.13999628  0.24453767  0.49773564  1
  O  O185  1  0.13992612  0.25208341  0.99778631  1
  O  O186  1  0.13807142  0.75743029  0.50980038  1
  O  O187  1  0.12342336  0.76386817  1.00142832  1
  O  O188  1  0.60981009  0.25412323  0.48151756  1
  O  O189  1  0.62727969  0.24565181  0.99568060  1
  O  O190  1  0.63195307  0.73833121  0.49335159  1
  O  O191  1  0.61594835  0.73461005  1.00258178  1
  O  O192  1  0.48844197  0.24450115  0.12614467  1
  O  O193  1  0.48126858  0.24783174  0.61859079  1
  O  O194  1  0.49664281  0.74242077  0.13863166  1
  O  O195  1  0.48536641  0.76075396  0.62365028  1
  O  O196  1  0.99554321  0.24234398  0.12641133  1
  O  O197  1  0.96717377  0.27349309  0.62746139  1
  O  O198  1  0.98785465  0.76890117  0.12664167  1
  O  O199  1  0.96997867  0.74167752  0.60327839  1
  O  O200  1  0.05598108  0.19108540  0.36954062  1
  O  O201  1  0.01450669  0.23141277  0.88347961  1
  O  O202  1  0.00854651  0.75642917  0.38965236  1
  O  O203  1  -0.01939752  0.76861229  0.89086034  1
  O  O204  1  0.50127710  0.24405428  0.35976957  1
  O  O205  1  0.51533931  0.26273809  0.87330638  1
  O  O206  1  0.48961014  0.76562859  0.37170052  1
  O  O207  1  0.49699452  0.70171024  0.82825302  1
  O  O208  1  0.24339551  0.11507979  0.50854217  1
  O  O209  1  0.25772165  0.12872235  0.98856097  1
  O  O210  1  0.24726348  0.63945502  0.48541383  1
  O  O211  1  0.23776217  0.63358031  0.99554944  1
  O  O212  1  0.72791908  0.09055161  0.45698187  1
  O  O213  1  0.74061452  0.12990295  1.00426615  1
  O  O214  1  0.73094774  0.63294874  0.48743275  1
  O  O215  1  0.73213167  0.63394286  1.01251885  1
  O  O216  1  0.26315127  0.35604654  -0.01500066  1
  O  O217  1  0.31512404  0.40029096  0.43207945  1
  O  O218  1  0.26519047  0.87487228  0.00557390  1
  O  O219  1  0.25596233  0.86680287  0.50935477  1
  O  O220  1  0.77828119  0.41307187  0.00877369  1
  O  O221  1  0.74097798  0.37928335  0.50172262  1
  O  O222  1  0.74104257  0.86365528  -0.01187985  1
  O  O223  1  0.73468811  0.85570172  0.49369260  1
  O  O224  1  0.17854728  0.42088648  0.24297143  1
  O  O225  1  0.12364661  0.48333971  0.72630038  1
  O  O226  1  0.10468090  0.98558077  0.25404336  1
  O  O227  1  0.13148979  0.98894017  0.74368009  1
  O  O228  1  0.61370872  0.48441411  0.24195274  1
  O  O229  1  0.62051515  0.50674713  0.73731129  1
  O  O230  1  0.61491365  1.00775416  0.23229403  1
  O  O231  1  0.60586704  0.98925894  0.78110346  1
  O  O232  1  0.37742392  -0.00264870  0.26834325  1
  O  O233  1  0.35672634  0.00328961  0.74766274  1
  O  O234  1  0.36171548  0.52615092  0.23966620  1
  O  O235  1  0.38418208  0.52306366  0.73598028  1
  O  O236  1  0.89114647  -0.00084584  0.26425579  1
  O  O237  1  0.90897090  0.03145832  0.75919941  1
  O  O238  1  0.88903629  0.50993411  0.26405176  1
  O  O239  1  0.95457393  0.54991556  0.78752374  1
  O  O240  1  0.11196084  0.35451828  0.38187003  1
  O  O241  1  0.12090123  0.35267035  0.88431448  1
  O  O242  1  0.12026287  0.87748228  0.36456623  1
  O  O243  1  0.11577897  0.87619334  0.86632215  1
  O  O244  1  0.62496553  0.36080345  0.35738546  1
  O  O245  1  0.61357768  0.36984493  0.88527593  1
  O  O246  1  0.60747731  0.88130013  0.36982108  1
  O  O247  1  0.59711215  0.95722875  0.84628099  1
  O  O248  1  0.38632835  0.13470922  0.11360967  1
  O  O249  1  0.37224255  0.11995405  0.64167220  1
  O  O250  1  0.37904367  0.62942665  0.12195040  1
  O  O251  1  0.36839978  0.64219724  0.63798054  1
  O  O252  1  0.88714637  0.14514619  0.11727004  1
  O  O253  1  0.86530645  0.12614869  0.61339214  1
  O  O254  1  0.90879477  0.60981449  0.11038150  1
  O  O255  1  0.84737266  0.63483692  0.61255677  1
  O  O256  1  0.26402407  0.23727488  0.10817549  1
  O  O257  1  0.25472685  0.24005760  0.61722838  1
  O  O258  1  0.24683883  0.77426568  0.12806605  1
  O  O259  1  0.25338950  0.75711227  0.61776040  1
  O  O260  1  0.76095113  0.24234675  0.13461824  1
  O  O261  1  0.76792995  0.26768009  0.60843869  1
  O  O262  1  0.72174547  0.76149951  0.10973087  1
  O  O263  1  0.76397230  0.74907928  0.60807352  1
  O  O264  1  0.24978582  0.24834067  0.40961316  1
  O  O265  1  0.24365050  0.23641473  0.88595914  1
  O  O266  1  0.24777952  0.75376381  0.39036958  1
  O  O267  1  0.24782402  0.73754743  0.87521979  1
  O  O268  1  0.73926729  0.24187815  0.37375803  1
  O  O269  1  0.74199346  0.27750457  0.88424593  1
  O  O270  1  0.75673100  0.74609529  0.37549632  1
  O  O271  1  0.74583524  0.73437888  0.89907428  1
  O  O272  1  0.00380857  0.11760610  0.00791194  1
  O  O273  1  0.00448875  0.10985268  0.50862712  1
  O  O274  1  0.02105510  0.63111942  0.01124683  1
  O  O275  1  0.01058538  0.58881832  0.49898033  1
  O  O276  1  0.50677155  0.13447065  0.00939369  1
  O  O277  1  0.50083114  0.10568019  0.50047672  1
  O  O278  1  0.50246843  0.62589058  0.01584173  1
  O  O279  1  0.51682879  0.62462142  0.49193028  1
  O  O280  1  0.50367478  0.39308061  0.49476192  1
  O  O281  1  0.48601577  0.37488467  1.00158705  1
  O  O282  1  0.49360483  0.87296542  0.48957122  1
  O  O283  1  0.47324239  0.84010925  0.98681062  1
  O  O284  1  0.99400401  0.37788378  0.49749832  1
  O  O285  1  0.99199720  0.39256498  1.00481411  1
  O  O286  1  1.01817669  0.88715133  0.48787601  1
  O  O287  1  0.99449582  0.89317448  0.98573519  1
  O  O288  1  0.49438214  0.50046214  0.38029549  1
  O  O289  1  0.50266236  0.47573689  0.87527998  1
  O  O290  1  0.48903616  0.98838815  0.38329274  1
  O  O291  1  0.51949929  0.86390390  0.82563757  1
  O  O292  1  1.01535135  0.50717137  0.39999536  1
  O  O293  1  0.99624991  0.51838492  0.84905046  1
  O  O294  1  1.00491864  1.00892021  0.38946192  1
  O  O295  1  0.98892162  1.00139119  0.88724786  1
  O  O296  1  -0.00984873  0.00792323  0.10563905  1
  O  O297  1  0.01286147  -0.01190946  0.61499919  1
  O  O298  1  0.01783913  0.50373089  0.14133880  1
  O  O299  1  -0.03066411  0.47789946  0.61941385  1
  O  O300  1  0.49984608  0.01895158  0.12593052  1
  O  O301  1  0.49849312  -0.01534255  0.61063514  1
  O  O302  1  0.48854230  0.51117078  0.13584751  1
  O  O303  1  0.52222771  0.49533519  0.61074016  1
  O  O304  1  0.34826004  0.37802631  0.30425945  1
  O  O305  1  0.23147939  0.37680997  0.77913457  1
  O  O306  1  0.24144311  0.87844010  0.24449412  1
  O  O307  1  0.23737544  0.87777031  0.74689544  1
  O  O308  1  0.73307996  0.37016474  0.24554481  1
  O  O309  1  0.77915695  0.38761973  0.72069428  1
  O  O310  1  0.79365668  0.87181308  0.20396743  1
  O  O311  1  0.71589129  0.86344881  0.75282760  1
  O  O312  1  0.23620520  0.08384628  0.23652274  1
  O  O313  1  0.25518082  0.11215079  0.75996254  1
  O  O314  1  0.25028580  0.64182663  0.26670978  1
  O  O315  1  0.25863606  0.62883378  0.76118305  1
  O  O316  1  0.74113536  0.11353308  0.26993379  1
  O  O317  1  0.73347099  0.09198921  0.71425966  1
  O  O318  1  0.76300499  0.64175163  0.22261120  1
  O  O319  1  0.74573860  0.63940842  0.77499829  1
  O  O320  1  0.37699683  0.11276765  0.37857177  1
  O  O321  1  0.35741403  0.13467164  0.86405100  1
  O  O322  1  0.36512451  0.62207637  0.36940952  1
  O  O323  1  0.35802684  0.62320189  0.87118589  1
  O  O324  1  0.86511757  0.11531127  0.37889778  1
  O  O325  1  0.86732307  0.12507666  0.87728039  1
  O  O326  1  0.89257716  0.61145847  0.38153878  1
  O  O327  1  0.86336030  0.62353815  0.88948280  1
  O  O328  1  0.13719563  0.33969698  0.14071956  1
  O  O329  1  0.12979065  0.34877026  0.64102263  1
  O  O330  1  0.12936609  0.88383863  0.13857090  1
  O  O331  1  0.12852469  0.87748735  0.63751918  1
  O  O332  1  0.62053163  0.38857982  0.13133433  1
  O  O333  1  0.63655286  0.36564562  0.62736290  1
  O  O334  1  0.60823670  0.90093547  0.11163846  1
  O  O335  1  0.63521678  0.86742389  0.64880016  1
  O  O336  1  0.18388630  0.24924654  0.28299248  1
  O  O337  1  0.13011151  0.25201575  0.76671164  1
  O  O338  1  0.11129582  0.76977457  0.24545688  1
  O  O339  1  0.12361169  0.76295693  0.74795163  1
  O  O340  1  0.61206180  0.26096004  0.24563231  1
  O  O341  1  0.64169885  0.24211387  0.77295718  1
  O  O342  1  0.59446597  0.74654895  0.25930970  1
  O  O343  1  0.66687495  0.82297802  0.70685972  1
  O  O344  1  0.38103969  0.24643346  0.23213313  1
  O  O345  1  0.36587757  0.23294347  0.73634525  1
  O  O346  1  0.38005142  0.73678073  0.25559038  1
  O  O347  1  0.37130504  0.74816619  0.73863923  1
  O  O348  1  0.87628318  0.25576364  0.24217637  1
  O  O349  1  0.84991220  0.23561652  0.72972403  1
  O  O350  1  0.90485038  0.74693358  0.26293452  1
  O  O351  1  0.86736807  0.75659714  0.73618284  1
  O  O352  1  0.40061967  0.51702533  0.51104866  1
  O  O353  1  0.35946310  0.47897414  1.00538219  1
  O  O354  1  0.38512447  0.98568486  0.49769380  1
  O  O355  1  0.38495739  0.98916292  0.99800168  1
  O  O356  1  0.87691436  0.49382028  0.48560851  1
  O  O357  1  0.83601832  0.46893290  1.01369664  1
  O  O358  1  0.89217502  0.99726391  0.49034294  1
  O  O359  1  0.87774554  1.01010083  0.98803764  1
  O  O360  1  0.11145041  -0.00094487  -0.00360918  1
  O  O361  1  0.12474637  -0.00066907  0.51673012  1
  O  O362  1  0.17779398  0.47168050  0.07000339  1
  O  O363  1  0.10752804  0.47504458  0.53515674  1
  O  O364  1  0.62373511  0.02280607  0.00571953  1
  O  O365  1  0.60977358  -0.01383970  0.49888004  1
  O  O366  1  0.62199621  0.50940482  0.02097792  1
  O  O367  1  0.61562770  0.51776638  0.49143186  1
  O  O368  1  0.37428095  0.35862421  0.11432949  1
  O  O369  1  0.37085262  0.35982631  0.63164506  1
  O  O370  1  0.37087839  0.87703329  0.11859113  1
  O  O371  1  0.36235885  0.86616924  0.62194558  1
  O  O372  1  0.88187927  0.36043581  0.11995865  1
  O  O373  1  0.83655476  0.40293176  0.66454119  1
  O  O374  1  0.84463826  0.87292652  0.15338948  1
  O  O375  1  0.87050907  0.87243586  0.62761358  1
  O  O376  1  0.20407919  0.09601082  0.30103612  1
  O  O377  1  0.14062292  0.13281439  0.86902790  1
  O  O378  1  0.12088857  0.64440809  0.36641825  1
  O  O379  1  0.12703050  0.64204603  0.89351299  1
  O  O380  1  0.62110476  0.14591181  0.36289530  1
  O  O381  1  0.62607671  0.14273702  0.88948353  1
  O  O382  1  0.62272758  0.62833568  0.36606531  1
  O  O383  1  0.62223725  0.61504950  0.90054753  1
