# generated using pymatgen
data_VZnO4
_symmetry_space_group_name_H-M   'P 1'
_cell_length_a   16.90037254
_cell_length_b   16.97413842
_cell_length_c   17.05438794
_cell_angle_alpha   89.91045022
_cell_angle_beta   89.82112559
_cell_angle_gamma   90.34789202
_symmetry_Int_Tables_number   1
_chemical_formula_structural   VZnO4
_chemical_formula_sum   'V64 Zn64 O256'
_cell_volume   4892.25954564
_cell_formula_units_Z   64
loop_
 _symmetry_equiv_pos_site_id
 _symmetry_equiv_pos_as_xyz
  1  'x, y, z'
loop_
 _atom_site_type_symbol
 _atom_site_label
 _atom_site_symmetry_multiplicity
 _atom_site_fract_x
 _atom_site_fract_y
 _atom_site_fract_z
 _atom_site_occupancy
  V  V0  1  0.49376425  0.12667808  0.12120184  1
  V  V1  1  0.13377290  0.61064092  0.49178638  1
  V  V2  1  0.75162971  0.25485269  0.00315405  1
  V  V3  1  0.50657508  0.36507510  0.37499489  1
  V  V4  1  0.47593622  0.26567378  0.76126752  1
  V  V5  1  0.35779379  0.13151133  0.24409644  1
  V  V6  1  0.11523843  0.87282513  0.24280006  1
  V  V7  1  0.23195603  -0.00521131  0.74252061  1
  V  V8  1  0.51214772  0.24724923  0.24988692  1
  V  V9  1  0.60248528  0.88008641  0.25395969  1
  V  V10  1  0.00568482  0.38018025  0.36575798  1
  V  V11  1  0.25446572  0.61465581  0.35144169  1
  V  V12  1  0.70395133  -0.02620167  0.76648015  1
  V  V13  1  0.11618610  0.74911350  0.36832556  1
  V  V14  1  0.48337454  0.48191148  0.51049838  1
  V  V15  1  0.73916882  0.39484041  0.60464558  1
  V  V16  1  0.11801394  0.11980217  -0.01355361  1
  V  V17  1  -0.02725227  0.61383166  0.13309215  1
  V  V18  1  0.52342867  0.14555294  0.62906625  1
  V  V19  1  0.87658051  0.25938760  0.12606293  1
  V  V20  1  0.49680842  0.38539277  0.89284503  1
  V  V21  1  0.87333133  0.11610296  0.24680032  1
  V  V22  1  0.63357678  0.25594265  0.86759172  1
  V  V23  1  0.12920650  0.85886590  0.73540105  1
  V  V24  1  0.00342343  0.62160070  0.62161476  1
  V  V25  1  0.62618042  0.51001647  0.11131552  1
  V  V26  1  0.26135144  0.11913740  0.88145627  1
  V  V27  1  0.75667483  -0.01276401  0.24758532  1
  V  V28  1  0.01324319  0.25307781  0.24051194  1
  V  V29  1  0.86037170  0.74791583  0.61757448  1
  V  V30  1  0.13391317  0.62317731  0.00323928  1
  V  V31  1  0.72394969  0.52048212  0.26233013  1
  V  V32  1  0.00604175  0.10397636  0.11704995  1
  V  V33  1  0.72487507  0.49723014  0.76346482  1
  V  V34  1  0.24759446  0.35582721  0.12540007  1
  V  V35  1  0.36632884  0.48170696  0.35748831  1
  V  V36  1  0.63287735  0.12770367  0.00028484  1
  V  V37  1  0.87235697  0.60828466  0.75681999  1
  V  V38  1  0.00543857  -0.00887467  0.50261222  1
  V  V39  1  0.52250042  0.76919288  0.72778148  1
  V  V40  1  0.11717450  0.75335035  0.89012561  1
  V  V41  1  0.12308753  0.24561932  0.38805358  1
  V  V42  1  0.49361628  0.62917739  0.61335094  1
  V  V43  1  0.63277260  -0.00595669  0.11349338  1
  V  V44  1  -0.00796297  0.49183841  0.49384043  1
  V  V45  1  0.29773441  0.80343163  -0.04997093  1
  V  V46  1  0.88966255  0.36565217  -0.02509697  1
  V  V47  1  0.48479495  0.73176122  0.24922955  1
  V  V48  1  0.48852608  -0.01220044  -0.01150473  1
  V  V49  1  0.25755807  0.74831298  0.50886888  1
  V  V50  1  0.38091503  0.64671127  0.77017633  1
  V  V51  1  0.36398517  0.74228487  0.12512219  1
  V  V52  1  -0.00029865  0.74433864  0.74907547  1
  V  V53  1  0.24865387  0.88373445  0.11891357  1
  V  V54  1  0.13860742  0.49018631  0.63286547  1
  V  V55  1  0.89841543  -0.00073132  0.86642873  1
  V  V56  1  0.38218372  0.33302884  0.01407948  1
  V  V57  1  -0.00676131  0.50308943  -0.01227890  1
  V  V58  1  0.74321025  0.23011962  0.49291903  1
  V  V59  1  0.38122679  0.11074377  0.74623601  1
  V  V60  1  0.87665342  0.24496851  0.62159561  1
  V  V61  1  0.26709390  -0.03362545  0.29319266  1
  V  V62  1  0.60664992  0.74991328  0.38924832  1
  V  V63  1  0.25239161  0.13406328  0.39280381  1
  Zn  Zn64  1  0.18310145  0.18514822  0.16955439  1
  Zn  Zn65  1  0.18303075  0.20342897  0.75081061  1
  Zn  Zn66  1  0.17457561  0.69100054  0.17813791  1
  Zn  Zn67  1  0.19551523  0.66998424  0.69061626  1
  Zn  Zn68  1  0.69190446  0.18333138  0.18317245  1
  Zn  Zn69  1  0.71567589  0.20013252  0.69339293  1
  Zn  Zn70  1  0.67560140  0.68672385  0.19563031  1
  Zn  Zn71  1  0.67946247  0.65954811  0.67043044  1
  Zn  Zn72  1  0.31277336  0.30156601  0.30412236  1
  Zn  Zn73  1  0.26481249  0.32638614  0.88467569  1
  Zn  Zn74  1  0.30054231  0.79440432  0.31121036  1
  Zn  Zn75  1  0.33433066  0.82597603  0.76729988  1
  Zn  Zn76  1  0.79749289  0.37818124  0.39288235  1
  Zn  Zn77  1  0.80567335  0.32229246  0.79630468  1
  Zn  Zn78  1  0.78061883  0.83592547  0.35045079  1
  Zn  Zn79  1  0.82722608  0.84243337  0.76891445  1
  Zn  Zn80  1  0.18426683  0.42808194  0.30168098  1
  Zn  Zn81  1  0.21397820  0.45595657  0.97649601  1
  Zn  Zn82  1  0.19858243  0.92494837  0.43857223  1
  Zn  Zn83  1  0.17271611  0.94518231  0.92781906  1
  Zn  Zn84  1  0.66628902  0.45805320  0.43632591  1
  Zn  Zn85  1  0.69259040  0.43335092  0.94157261  1
  Zn  Zn86  1  0.69890030  1.06304471  0.42099867  1
  Zn  Zn87  1  0.78272508  0.90269895  0.94280364  1
  Zn  Zn88  1  0.30963029  0.06044671  0.06000497  1
  Zn  Zn89  1  0.31326597  0.07854408  0.57465031  1
  Zn  Zn90  1  0.30392989  0.55999865  0.09839156  1
  Zn  Zn91  1  0.32338351  0.55564492  0.55875467  1
  Zn  Zn92  1  0.82017292  0.05857142  0.05231183  1
  Zn  Zn93  1  0.81599734  0.06273413  0.57477058  1
  Zn  Zn94  1  0.83793969  0.48245670  0.10937186  1
  Zn  Zn95  1  0.81427141  0.56419389  0.56063421  1
  Zn  Zn96  1  0.44420571  0.43181929  0.18289617  1
  Zn  Zn97  1  0.41206543  0.45207918  0.71108345  1
  Zn  Zn98  1  0.42642316  0.94710695  0.17510140  1
  Zn  Zn99  1  0.50365069  0.96663010  0.69837880  1
  Zn  Zn100  1  1.11724519  0.48318207  0.13306403  1
  Zn  Zn101  1  0.91912039  0.44115151  0.65904017  1
  Zn  Zn102  1  0.93021851  0.92325080  0.16930022  1
  Zn  Zn103  1  0.94063539  0.92973047  0.69134729  1
  Zn  Zn104  1  0.07746028  0.06271703  0.30177398  1
  Zn  Zn105  1  0.06498389  0.06813119  0.79921304  1
  Zn  Zn106  1  0.05680980  0.56301823  0.30264853  1
  Zn  Zn107  1  0.07289903  0.56220501  0.81659524  1
  Zn  Zn108  1  0.56758100  0.06911101  0.29160073  1
  Zn  Zn109  1  0.56289812  0.07807355  0.82113044  1
  Zn  Zn110  1  0.54690077  0.56454589  0.32496506  1
  Zn  Zn111  1  0.52620565  0.55449011  0.79619054  1
  Zn  Zn112  1  0.55360366  0.18464808  0.43540145  1
  Zn  Zn113  1  0.44639631  0.17861673  0.93202554  1
  Zn  Zn114  1  0.43562888  0.67592306  0.43115478  1
  Zn  Zn115  1  0.45671090  0.78122995  0.91278671  1
  Zn  Zn116  1  0.89501471  0.22912053  0.40207066  1
  Zn  Zn117  1  0.92320111  0.16578023  0.94057020  1
  Zn  Zn118  1  0.93840637  0.68883924  0.44204762  1
  Zn  Zn119  1  0.93837008  0.68284172  0.92942362  1
  Zn  Zn120  1  0.06819550  0.30256784  0.04845206  1
  Zn  Zn121  1  0.06027282  0.31430423  0.56700260  1
  Zn  Zn122  1  0.03739471  0.80700329  0.07649369  1
  Zn  Zn123  1  0.07041079  0.79876128  0.55816638  1
  Zn  Zn124  1  0.57089461  0.31665329  0.07282702  1
  Zn  Zn125  1  0.55995609  0.30521917  0.56245513  1
  Zn  Zn126  1  0.54054280  0.82462472  0.07353551  1
  Zn  Zn127  1  0.51756007  0.83253631  0.55617722  1
  O  O128  1  0.11078734  0.12183300  0.11318263  1
  O  O129  1  0.08856642  0.15017574  0.72743134  1
  O  O130  1  0.10983249  0.62905605  0.10773782  1
  O  O131  1  0.11810729  0.61826597  0.61029300  1
  O  O132  1  0.61727173  0.11416501  0.11990443  1
  O  O133  1  0.62249529  0.15204241  0.64308445  1
  O  O134  1  0.62676741  0.61115335  0.12804126  1
  O  O135  1  0.59119154  0.59932106  0.62656029  1
  O  O136  1  0.37261164  0.37763789  0.36538593  1
  O  O137  1  0.38613488  0.36486877  0.90753301  1
  O  O138  1  0.30290361  0.89907132  0.36018141  1
  O  O139  1  0.35589666  0.85059509  0.88053345  1
  O  O140  1  0.90894886  0.35125171  0.38320468  1
  O  O141  1  0.87993230  0.35665319  0.87721417  1
  O  O142  1  0.87306384  0.87723781  0.38631824  1
  O  O143  1  0.86537276  0.87305601  0.86962350  1
  O  O144  1  0.23413990  0.02468774  0.37907783  1
  O  O145  1  0.24426229  0.00972158  0.85817565  1
  O  O146  1  0.25561293  0.50256342  0.36226153  1
  O  O147  1  0.34174964  0.52531947  0.93331994  1
  O  O148  1  0.75257935  0.00203217  0.34582983  1
  O  O149  1  0.72364304  -0.02573306  0.86484079  1
  O  O150  1  0.74686965  0.47608624  0.35750895  1
  O  O151  1  0.74979570  0.48819796  0.85928828  1
  O  O152  1  0.23795531  0.47537132  0.09165784  1
  O  O153  1  0.23672052  0.50356736  0.61473775  1
  O  O154  1  0.24475086  0.98296183  0.11800624  1
  O  O155  1  0.25087765  1.00925764  0.64589451  1
  O  O156  1  0.73193913  0.48870337  0.15775954  1
  O  O157  1  0.74535739  0.49972674  0.62232059  1
  O  O158  1  0.73664606  1.00418392  0.12428459  1
  O  O159  1  0.74485952  1.02619925  0.66559080  1
  O  O160  1  0.00226141  0.35662686  0.25822978  1
  O  O161  1  0.04814407  0.37452831  0.79183683  1
  O  O162  1  0.01776254  0.88779479  0.24420897  1
  O  O163  1  0.01802901  0.85590980  0.73995425  1
  O  O164  1  0.49410268  0.35120266  0.25471245  1
  O  O165  1  0.47759097  0.37330366  0.78141718  1
  O  O166  1  0.50263380  0.89461094  0.24378303  1
  O  O167  1  0.51465820  0.86102384  0.66775030  1
  O  O168  1  0.48600455  0.12695353  0.24135857  1
  O  O169  1  0.49374547  0.14309696  0.75082499  1
  O  O170  1  0.49117649  0.63407612  0.24764240  1
  O  O171  1  0.49946536  0.65320346  0.73713034  1
  O  O172  1  0.99868800  0.12379085  0.23420881  1
  O  O173  1  0.99099962  0.21996952  0.78648356  1
  O  O174  1  0.98744605  0.61309939  0.23338493  1
  O  O175  1  0.99826321  0.62730454  0.73955321  1
  O  O176  1  0.38515895  0.23377479  0.01284503  1
  O  O177  1  0.34027564  0.29199552  0.52353277  1
  O  O178  1  0.37074793  0.75855101  0.01070485  1
  O  O179  1  0.35561574  0.73477160  0.48653197  1
  O  O180  1  0.87540630  0.25110713  0.00465985  1
  O  O181  1  0.86529274  0.24320297  0.51192281  1
  O  O182  1  0.83583170  0.73091311  -0.02479231  1
  O  O183  1  0.88881973  0.75166281  0.52097836  1
  O  O184  1  0.11201273  0.24842705  0.48576871  1
  O  O185  1  0.12772488  0.22362904  0.99656279  1
  O  O186  1  0.12983734  0.73109458  0.48622680  1
  O  O187  1  0.10182834  0.74649188  0.99230465  1
  O  O188  1  0.64106682  0.24941701  0.48527260  1
  O  O189  1  0.63647803  0.24466354  1.00811844  1
  O  O190  1  0.58590926  0.78489280  0.48050484  1
  O  O191  1  0.72658567  0.79654312  1.07660727  1
  O  O192  1  0.50755529  0.23588286  0.13664534  1
  O  O193  1  0.50561790  0.26642593  0.66311956  1
  O  O194  1  0.47662154  0.76015834  0.13838967  1
  O  O195  1  0.49551796  0.72812213  0.60255885  1
  O  O196  1  0.99479881  0.24758584  0.13002805  1
  O  O197  1  0.97491837  0.27363291  0.63075433  1
  O  O198  1  0.97949661  0.71286432  0.10942469  1
  O  O199  1  1.00376091  0.73506186  0.63122002  1
  O  O200  1  0.01238615  0.24389105  0.35786259  1
  O  O201  1  -0.00024862  0.23278330  0.85820173  1
  O  O202  1  0.01670369  0.73319475  0.37436191  1
  O  O203  1  0.00795853  0.74384832  0.86079330  1
  O  O204  1  0.49594913  0.25312458  0.36126466  1
  O  O205  1  0.51136318  0.25365563  0.86833887  1
  O  O206  1  0.48643442  0.75422906  0.35291840  1
  O  O207  1  0.51903855  0.80484595  0.82126767  1
  O  O208  1  0.26144473  0.13496639  0.49073960  1
  O  O209  1  0.24948861  0.11961577  0.98400845  1
  O  O210  1  0.23880311  0.61846080  0.48944177  1
  O  O211  1  0.23173466  0.62312597  1.01079387  1
  O  O212  1  0.75232530  0.12478810  0.49771164  1
  O  O213  1  0.74151838  0.13738371  1.00607320  1
  O  O214  1  0.78239146  0.62055372  0.45744878  1
  O  O215  1  0.77959575  0.68257849  0.98150867  1
  O  O216  1  0.27465515  0.35218067  0.00522596  1
  O  O217  1  0.27381672  0.31938284  0.52468391  1
  O  O218  1  0.23962117  0.87196821  0.00426560  1
  O  O219  1  0.23973516  0.84750375  0.50491039  1
  O  O220  1  0.77010429  0.36128118  -0.00175289  1
  O  O221  1  0.74684868  0.39842549  0.49954621  1
  O  O222  1  0.77516117  0.85498357  0.05235910  1
  O  O223  1  0.74271049  0.96866356  0.51330886  1
  O  O224  1  0.12358495  0.49823486  0.24286364  1
  O  O225  1  0.12654097  0.51605571  0.72994443  1
  O  O226  1  0.14880167  0.97710812  0.26531165  1
  O  O227  1  0.12756270  0.97711772  0.74610971  1
  O  O228  1  0.62283318  0.50981223  0.26120727  1
  O  O229  1  0.62588310  0.51236419  0.76404147  1
  O  O230  1  0.63256881  0.99505292  0.23442195  1
  O  O231  1  0.59992731  0.99113272  0.75894020  1
  O  O232  1  0.35439771  0.00593164  0.24996878  1
  O  O233  1  0.39920235  0.01103253  0.74611755  1
  O  O234  1  0.38161338  0.49343635  0.25849213  1
  O  O235  1  0.41004423  0.53936566  0.78164785  1
  O  O236  1  0.86556361  -0.00016279  0.22896904  1
  O  O237  1  0.87317786  -0.02029638  0.76469807  1
  O  O238  1  0.84973675  0.46284746  0.24513179  1
  O  O239  1  0.88958238  0.50867513  0.74380045  1
  O  O240  1  0.11696152  0.35544144  0.36688356  1
  O  O241  1  0.21256479  0.42249275  0.87109787  1
  O  O242  1  0.12982479  0.85403142  0.36709416  1
  O  O243  1  0.12633949  0.85597998  0.86813632  1
  O  O244  1  0.60379623  0.37603353  0.37005189  1
  O  O245  1  0.61016500  0.36039487  0.89440935  1
  O  O246  1  0.61069842  0.87398465  0.35177957  1
  O  O247  1  0.67914792  0.80615379  0.89812675  1
  O  O248  1  0.38318791  0.11116938  0.13518347  1
  O  O249  1  0.37945692  0.13647195  0.64727518  1
  O  O250  1  0.36918286  0.64270408  0.12249633  1
  O  O251  1  0.39140704  0.60125464  0.64129758  1
  O  O252  1  0.89103458  0.12801533  0.12051971  1
  O  O253  1  0.87802545  0.14173606  0.62481609  1
  O  O254  1  0.87410428  0.59024178  0.12305833  1
  O  O255  1  0.88999178  0.62650368  0.62708433  1
  O  O256  1  0.25604404  0.25620757  0.12205341  1
  O  O257  1  0.23418875  0.28456514  0.68037338  1
  O  O258  1  0.25821561  0.75738892  0.12573835  1
  O  O259  1  0.24627762  0.72805683  0.60629390  1
  O  O260  1  0.76811074  0.24422530  0.11818975  1
  O  O261  1  0.74973178  0.26317410  0.59414423  1
  O  O262  1  0.75614750  0.75540966  0.13719067  1
  O  O263  1  0.76364174  0.71911595  0.61591629  1
  O  O264  1  0.23571968  0.24352014  0.37125493  1
  O  O265  1  0.24088171  0.22165824  0.85210987  1
  O  O266  1  0.23781996  0.72628059  0.37943721  1
  O  O267  1  0.23249804  0.74654653  0.89655867  1
  O  O268  1  0.77358373  0.26249560  0.39698860  1
  O  O269  1  0.73784403  0.26073057  0.88708995  1
  O  O270  1  0.70782059  0.75751014  0.37572774  1
  O  O271  1  0.68736676  0.73515202  0.88424418  1
  O  O272  1  0.00611625  0.12184612  0.00644769  1
  O  O273  1  0.01884914  0.09320475  0.51027295  1
  O  O274  1  -0.01277646  0.60852462  -0.00146948  1
  O  O275  1  0.00863707  0.61234186  0.50075504  1
  O  O276  1  0.51331967  0.12117186  0.00846812  1
  O  O277  1  0.50379316  0.18829084  0.53712100  1
  O  O278  1  0.54688682  0.72363804  -0.01306999  1
  O  O279  1  0.47680605  0.59966455  0.50944922  1
  O  O280  1  0.49231773  0.36656480  0.48183971  1
  O  O281  1  0.49079054  0.35994207  1.00159454  1
  O  O282  1  0.40588511  0.87112985  0.52507514  1
  O  O283  1  0.49928646  0.88274945  0.98748320  1
  O  O284  1  1.01326507  0.38890788  0.48637355  1
  O  O285  1  0.99410425  0.37213288  0.99163261  1
  O  O286  1  1.00520929  0.88529318  0.50412687  1
  O  O287  1  0.94355862  0.86662669  1.07723044  1
  O  O288  1  0.48338200  0.47944568  0.37487486  1
  O  O289  1  0.51084780  0.48255399  0.89262312  1
  O  O290  1  0.50129543  0.97285478  0.44061759  1
  O  O291  1  0.50138120  1.01392032  0.89385526  1
  O  O292  1  1.00350187  0.48710902  0.37864584  1
  O  O293  1  1.00654030  0.50017102  0.88798498  1
  O  O294  1  1.00308302  0.99693974  0.39998690  1
  O  O295  1  1.00016560  1.00142418  0.86364527  1
  O  O296  1  0.00295157  0.00768770  0.12525041  1
  O  O297  1  0.00359387  -0.01562584  0.60783680  1
  O  O298  1  0.00598063  0.50489322  0.10074383  1
  O  O299  1  0.00691435  0.50262714  0.60934338  1
  O  O300  1  0.50729046  0.00812228  0.11304072  1
  O  O301  1  0.50768602  0.04629422  0.61641245  1
  O  O302  1  0.52180022  0.48764736  0.12298031  1
  O  O303  1  0.46918701  0.46290859  0.60831755  1
  O  O304  1  0.25453634  0.36943304  0.23028264  1
  O  O305  1  0.27235712  0.34454489  0.71645010  1
  O  O306  1  0.24205680  0.87393657  0.23209697  1
  O  O307  1  0.24195121  0.88548296  0.75151213  1
  O  O308  1  0.83206866  0.39074752  0.25809310  1
  O  O309  1  0.74462174  0.39802341  0.73318127  1
  O  O310  1  0.73620074  0.88515018  0.24706561  1
  O  O311  1  0.72272544  0.87971484  0.73700746  1
  O  O312  1  0.25660035  0.12651485  0.23488160  1
  O  O313  1  0.26694242  0.10644238  0.75711935  1
  O  O314  1  0.24141902  0.62783634  0.25468221  1
  O  O315  1  0.27924576  0.64387308  0.76031762  1
  O  O316  1  0.76748675  0.11301226  0.23501939  1
  O  O317  1  0.74677274  0.07775288  0.73124615  1
  O  O318  1  0.74155500  0.61919277  0.26329415  1
  O  O319  1  0.76314349  0.60294132  0.73993747  1
  O  O320  1  0.35092787  0.12687181  0.35405851  1
  O  O321  1  0.36771631  0.12239652  0.86788197  1
  O  O322  1  0.35773395  0.61044420  0.36737351  1
  O  O323  1  0.40190071  0.67946182  0.86352855  1
  O  O324  1  0.88369392  0.12719695  0.34455024  1
  O  O325  1  0.87462310  0.10038686  0.86615096  1
  O  O326  1  0.83818295  0.63047783  0.40596326  1
  O  O327  1  0.87801735  0.62028781  0.85398951  1
  O  O328  1  0.14222246  0.36531515  0.10952768  1
  O  O329  1  0.12034534  0.39119668  0.62543245  1
  O  O330  1  0.13172578  0.85770620  0.13609009  1
  O  O331  1  0.13541622  0.85308519  0.63804595  1
  O  O332  1  0.61615314  0.39597417  0.13539983  1
  O  O333  1  0.64108348  0.37092061  0.61427859  1
  O  O334  1  0.61654314  0.89046186  0.12826016  1
  O  O335  1  0.73057522  0.89823951  0.53280543  1
  O  O336  1  0.11344626  0.24271379  0.24306020  1
  O  O337  1  0.11775756  0.35449617  0.79196673  1
  O  O338  1  0.12666778  0.75774598  0.25950178  1
  O  O339  1  0.12435397  0.74858093  0.75802779  1
  O  O340  1  0.61172046  0.22966008  0.25190634  1
  O  O341  1  0.63656965  0.25428028  0.76954230  1
  O  O342  1  0.59795315  0.76506846  0.24313159  1
  O  O343  1  0.61984980  0.74529171  0.71685053  1
  O  O344  1  0.38274112  0.23257535  0.24334294  1
  O  O345  1  0.38053189  0.24098569  0.76543304  1
  O  O346  1  0.37558571  0.75244204  0.23875140  1
  O  O347  1  0.39888307  0.75135590  0.72365415  1
  O  O348  1  0.88786003  0.23186331  0.23083449  1
  O  O349  1  0.82217834  0.24077402  0.72259404  1
  O  O350  1  0.86509078  0.74382196  0.28531659  1
  O  O351  1  0.88502517  0.72858437  0.73834342  1
  O  O352  1  0.37609627  0.49088719  0.47663476  1
  O  O353  1  0.38572694  0.54038810  0.99007633  1
  O  O354  1  0.35820154  0.99326192  0.50815362  1
  O  O355  1  0.39049642  1.00157866  1.00474862  1
  O  O356  1  0.89288730  0.49872960  0.50075902  1
  O  O357  1  0.88351199  0.47235742  0.99803714  1
  O  O358  1  0.90075504  0.99826718  0.50700859  1
  O  O359  1  0.85791786  0.98945766  0.97249622  1
  O  O360  1  0.13035637  0.01726456  0.00104448  1
  O  O361  1  0.11090687  -0.01805000  0.50088230  1
  O  O362  1  0.11369832  0.51732703  -0.00465753  1
  O  O363  1  0.11767716  0.50969873  0.50459785  1
  O  O364  1  0.62022581  0.00858080  0.01059323  1
  O  O365  1  0.54661630  -0.04433469  0.49496553  1
  O  O366  1  0.64901220  0.50512843  0.01401545  1
  O  O367  1  0.58373703  0.49557676  0.49636028  1
  O  O368  1  0.37052033  0.37561881  0.11211695  1
  O  O369  1  0.32798187  0.37689313  0.67019445  1
  O  O370  1  0.35451621  0.87140379  0.12341210  1
  O  O371  1  0.38320431  0.93703232  0.55907201  1
  O  O372  1  0.87918920  0.35877240  0.11389407  1
  O  O373  1  0.84879774  0.36606459  0.62158751  1
  O  O374  1  0.90319355  0.77196839  0.22977038  1
  O  O375  1  0.86725243  0.84752026  0.64972460  1
  O  O376  1  0.13689562  0.13798295  0.36771921  1
  O  O377  1  0.13452822  0.11698309  0.88286864  1
  O  O378  1  0.13126059  0.62021118  0.37950973  1
  O  O379  1  0.12004260  0.63955767  0.89006580  1
  O  O380  1  0.59611912  0.09082364  0.39356630  1
  O  O381  1  0.62266107  0.14640629  0.89039897  1
  O  O382  1  0.59199699  0.64870285  0.38840341  1
  O  O383  1  0.59409608  0.66974088  0.96588054  1
