# generated using pymatgen
data_VZnO4
_symmetry_space_group_name_H-M   'P 1'
_cell_length_a   16.98130194
_cell_length_b   16.93764178
_cell_length_c   16.91986848
_cell_angle_alpha   90.10442393
_cell_angle_beta   89.98326120
_cell_angle_gamma   90.56163656
_symmetry_Int_Tables_number   1
_chemical_formula_structural   VZnO4
_chemical_formula_sum   'V64 Zn64 O256'
_cell_volume   4866.30480141
_cell_formula_units_Z   64
loop_
 _symmetry_equiv_pos_site_id
 _symmetry_equiv_pos_as_xyz
  1  'x, y, z'
loop_
 _atom_site_type_symbol
 _atom_site_label
 _atom_site_symmetry_multiplicity
 _atom_site_fract_x
 _atom_site_fract_y
 _atom_site_fract_z
 _atom_site_occupancy
  V  V0  1  0.88157229  0.00426083  0.36243721  1
  V  V1  1  0.00146943  0.35374700  0.38738731  1
  V  V2  1  0.63078934  0.48798029  0.13962171  1
  V  V3  1  0.25264588  0.62600440  0.85731741  1
  V  V4  1  0.89975197  0.24582700  0.61853290  1
  V  V5  1  0.62707984  0.51824070  0.63713232  1
  V  V6  1  0.00582162  0.63275068  0.63519699  1
  V  V7  1  0.50745449  -0.02504263  -0.00261657  1
  V  V8  1  0.21897844  0.48752917  0.23112835  1
  V  V9  1  0.39428980  0.38567532  0.00861869  1
  V  V10  1  0.62537297  0.87858065  0.72493586  1
  V  V11  1  0.24528880  0.75545489  0.49361681  1
  V  V12  1  0.10714984  0.76223075  0.36850251  1
  V  V13  1  0.62935672  0.75602515  0.87249090  1
  V  V14  1  -0.00594525  0.48894129  0.01188274  1
  V  V15  1  0.49891695  0.13076550  0.10669988  1
  V  V16  1  0.01015423  0.00427144  0.49247018  1
  V  V17  1  0.11710638  0.60879276  0.48730798  1
  V  V18  1  -0.00617723  0.00006875  -0.01689103  1
  V  V19  1  0.11245089  0.74629016  0.86977558  1
  V  V20  1  0.63241884  0.86178492  0.25919047  1
  V  V21  1  0.24803853  0.87085584  0.63799917  1
  V  V22  1  0.27343311  0.25562715  0.49385858  1
  V  V23  1  0.74759324  0.49703650  0.26774611  1
  V  V24  1  0.48525597  0.74858299  0.24425875  1
  V  V25  1  0.50963902  0.37990211  0.37536586  1
  V  V26  1  0.25582857  0.27087525  0.01268770  1
  V  V27  1  0.61495892  0.65256091  0.50100115  1
  V  V28  1  0.14135864  0.25379590  0.86629237  1
  V  V29  1  0.74804089  0.64987046  0.37526392  1
  V  V30  1  0.88091770  0.62807310  0.26192742  1
  V  V31  1  0.37051687  0.49990326  0.86336528  1
  V  V32  1  0.13344569  0.62365058  0.01021429  1
  V  V33  1  0.87475363  0.63223968  0.75231785  1
  V  V34  1  0.47663261  0.88584142  0.36569139  1
  V  V35  1  0.49599890  0.50340606  0.50592320  1
  V  V36  1  0.88776121  0.87517499  0.51764875  1
  V  V37  1  -0.00336454  0.12941475  0.13245315  1
  V  V38  1  0.13244050  0.13565611  0.49159666  1
  V  V39  1  0.15018500  0.12401055  -0.00261176  1
  V  V40  1  0.00506597  0.37081097  0.85610095  1
  V  V41  1  0.48795454  0.08060902  0.60744439  1
  V  V42  1  0.25673467  0.37553978  0.62800700  1
  V  V43  1  0.12142996  -0.00272087  0.64016256  1
  V  V44  1  0.86394972  0.13444841  0.74956930  1
  V  V45  1  0.37648767  0.12335445  0.75769041  1
  V  V46  1  0.62648941  0.26972939  0.87946649  1
  V  V47  1  0.49352730  0.62122958  0.12474809  1
  V  V48  1  0.87909915  0.86301907  -0.01636189  1
  V  V49  1  0.76579101  -0.01028671  0.76837199  1
  V  V50  1  0.48018382  0.25104259  0.25615977  1
  V  V51  1  0.12331860  0.48972465  0.65194095  1
  V  V52  1  0.74470804  0.00602763  0.24904831  1
  V  V53  1  0.86919166  0.39401841  0.50381445  1
  V  V54  1  0.35286309  -0.01487111  0.88118146  1
  V  V55  1  -0.00242460  0.62728007  0.12551881  1
  V  V56  1  0.86887131  0.49109886  0.86585163  1
  V  V57  1  0.64751686  0.61988950  0.00647286  1
  V  V58  1  0.37689168  0.52032448  0.36533355  1
  V  V59  1  0.25554881  -0.00103160  0.23860089  1
  V  V60  1  0.74444926  0.87178332  0.11808697  1
  V  V61  1  0.76288536  0.75840344  0.52766828  1
  V  V62  1  0.87633512  0.75676637  0.13397543  1
  V  V63  1  0.13249018  -0.01471281  0.11421963  1
  Zn  Zn64  1  0.30963093  0.18430668  0.19158440  1
  Zn  Zn65  1  0.19082977  0.19106313  0.68060028  1
  Zn  Zn66  1  0.18226873  0.66912574  0.21005955  1
  Zn  Zn67  1  0.18192449  0.68722292  0.68251206  1
  Zn  Zn68  1  0.68918387  0.18405843  0.18204032  1
  Zn  Zn69  1  0.67045613  0.06804566  0.66306221  1
  Zn  Zn70  1  0.69240106  0.68648286  0.18586374  1
  Zn  Zn71  1  0.68355141  0.68021345  0.70235924  1
  Zn  Zn72  1  0.32100894  0.33227229  0.32966232  1
  Zn  Zn73  1  0.36212610  0.33144227  0.78337522  1
  Zn  Zn74  1  0.30361541  0.80251947  0.31294588  1
  Zn  Zn75  1  0.26244014  0.83122798  0.84611763  1
  Zn  Zn76  1  0.77311085  0.33521932  0.37623306  1
  Zn  Zn77  1  0.83551526  0.28918198  0.82851473  1
  Zn  Zn78  1  0.94643125  0.82898334  0.32036933  1
  Zn  Zn79  1  0.80149450  0.79918971  0.80454161  1
  Zn  Zn80  1  0.19864038  0.42148236  0.41302627  1
  Zn  Zn81  1  0.18244807  0.44420523  0.93621221  1
  Zn  Zn82  1  0.18609291  0.93223928  0.42844964  1
  Zn  Zn83  1  0.14434515  0.95701608  0.88953256  1
  Zn  Zn84  1  0.68580409  0.46205108  0.45252524  1
  Zn  Zn85  1  0.67096475  0.46056707  0.93139471  1
  Zn  Zn86  1  0.75733292  0.86932596  0.38169710  1
  Zn  Zn87  1  0.68813960  0.93950042  0.94035342  1
  Zn  Zn88  1  0.32823876  0.05518276  0.06644704  1
  Zn  Zn89  1  0.28567595  0.08336806  0.60313634  1
  Zn  Zn90  1  0.31246085  0.54406101  0.07227059  1
  Zn  Zn91  1  0.28336928  0.53982370  0.52469548  1
  Zn  Zn92  1  0.82993571  0.04349309  0.07015765  1
  Zn  Zn93  1  0.82373054  0.05159847  0.57211619  1
  Zn  Zn94  1  0.81748042  0.54974259  0.07200196  1
  Zn  Zn95  1  0.81483078  0.57376614  0.56834179  1
  Zn  Zn96  1  0.44163195  0.43864897  0.19468730  1
  Zn  Zn97  1  0.42369719  0.46491663  0.67315259  1
  Zn  Zn98  1  0.46476718  0.96707097  0.20574548  1
  Zn  Zn99  1  0.42348274  0.92784105  0.69405671  1
  Zn  Zn100  1  0.92018231  0.43823694  0.19325605  1
  Zn  Zn101  1  0.93673751  0.43483798  0.67957420  1
  Zn  Zn102  1  0.95093111  0.94706738  0.18071125  1
  Zn  Zn103  1  0.94686268  0.94363767  0.69440345  1
  Zn  Zn104  1  0.12659224  0.10501860  0.27998445  1
  Zn  Zn105  1  0.06369349  0.07956157  0.80541473  1
  Zn  Zn106  1  0.06372050  0.55028619  0.30845681  1
  Zn  Zn107  1  0.05964449  0.56139912  0.82102309  1
  Zn  Zn108  1  0.57155965  0.06393589  0.32224995  1
  Zn  Zn109  1  0.53489521  0.01260626  0.79342927  1
  Zn  Zn110  1  0.56595091  0.57431981  0.31782664  1
  Zn  Zn111  1  0.56337423  0.58017055  0.82151981  1
  Zn  Zn112  1  0.47144465  0.21061458  0.46889754  1
  Zn  Zn113  1  0.42177158  0.19292486  0.92333366  1
  Zn  Zn114  1  0.43056018  0.70556207  0.42707596  1
  Zn  Zn115  1  0.45994547  0.64308937  0.92369557  1
  Zn  Zn116  1  0.93519660  0.18266129  0.43792933  1
  Zn  Zn117  1  0.95243623  0.16609285  0.89744751  1
  Zn  Zn118  1  0.94201915  0.68477196  0.45312233  1
  Zn  Zn119  1  0.93043956  0.67963095  0.93939005  1
  Zn  Zn120  1  0.03580245  0.28216049  0.01934092  1
  Zn  Zn121  1  0.06706440  0.32334011  0.56043109  1
  Zn  Zn122  1  0.05666035  0.80648765  0.05238155  1
  Zn  Zn123  1  0.07079625  0.81117841  0.56143933  1
  Zn  Zn124  1  0.55863146  0.31536117  0.07321051  1
  Zn  Zn125  1  0.55391407  0.34154020  0.70750912  1
  Zn  Zn126  1  0.56571743  0.79519271  0.05721018  1
  Zn  Zn127  1  0.58770771  0.85157038  0.52436071  1
  O  O128  1  0.11530181  0.11859245  0.09557519  1
  O  O129  1  0.13704361  0.10436707  0.61121068  1
  O  O130  1  0.10434108  0.62804277  0.12385494  1
  O  O131  1  0.11675534  0.60692566  0.62344560  1
  O  O132  1  0.60028789  0.14212133  0.12905107  1
  O  O133  1  0.58644085  0.11589305  0.61957819  1
  O  O134  1  0.62509230  0.62339247  0.11948757  1
  O  O135  1  0.62805653  0.64557100  0.60221921  1
  O  O136  1  0.40122418  0.40004182  0.38050387  1
  O  O137  1  0.36993355  0.39582406  0.88164083  1
  O  O138  1  0.37755329  0.87612275  0.36788878  1
  O  O139  1  0.35920640  0.88247850  0.87376906  1
  O  O140  1  0.88145473  0.36425142  0.40034959  1
  O  O141  1  0.89416488  0.37672999  0.87405904  1
  O  O142  1  0.87499808  0.88572905  0.38873172  1
  O  O143  1  0.86599428  0.85433146  0.88690661  1
  O  O144  1  0.23927204  -0.02839647  0.33472947  1
  O  O145  1  0.25236511  -0.00319422  0.88407503  1
  O  O146  1  0.28202978  0.50440979  0.41048088  1
  O  O147  1  0.25344233  0.51816955  0.88407762  1
  O  O148  1  0.76582677  -0.01168856  0.35436438  1
  O  O149  1  0.75900060  -0.00634163  0.86945772  1
  O  O150  1  0.74798129  0.52766922  0.37196670  1
  O  O151  1  0.77152294  0.48360847  0.87459949  1
  O  O152  1  0.24832465  0.47449827  0.13534563  1
  O  O153  1  0.22956213  0.49186748  0.61593641  1
  O  O154  1  0.23881107  0.99820562  0.11623010  1
  O  O155  1  0.23255233  0.98217183  0.61844842  1
  O  O156  1  0.74207889  0.50098629  0.14964854  1
  O  O157  1  0.72468539  0.51871164  0.60930871  1
  O  O158  1  0.76316321  0.97983382  0.13771238  1
  O  O159  1  0.75357451  0.99935019  0.64193202  1
  O  O160  1  -0.01479314  0.40333919  0.28277561  1
  O  O161  1  0.00272546  0.36599038  0.75874025  1
  O  O162  1  -0.00055414  0.86273135  0.23028568  1
  O  O163  1  0.00439851  0.87876674  0.76289670  1
  O  O164  1  0.50354683  0.36251930  0.26404193  1
  O  O165  1  0.45710272  0.37785491  0.73654379  1
  O  O166  1  0.51773629  0.86451883  0.24087139  1
  O  O167  1  0.52504770  0.89409560  0.74540694  1
  O  O168  1  0.51679279  0.15814846  0.27681409  1
  O  O169  1  0.48676899  0.09627629  0.73353872  1
  O  O170  1  0.50843734  0.64500840  0.24714676  1
  O  O171  1  0.50565702  0.74292138  0.65468901  1
  O  O172  1  1.02810282  0.12848592  0.22856487  1
  O  O173  1  0.96737874  0.12832122  0.78026101  1
  O  O174  1  0.98562003  0.61470357  0.23990226  1
  O  O175  1  0.99729065  0.61597220  0.74190097  1
  O  O176  1  0.36202460  0.27326798  -0.01568927  1
  O  O177  1  0.37212965  0.25488281  0.50576848  1
  O  O178  1  0.35704054  0.76732169  0.03725219  1
  O  O179  1  0.34459716  0.74010034  0.49198912  1
  O  O180  1  0.80784767  0.19540118  0.00930257  1
  O  O181  1  0.87250206  0.23755384  0.51881902  1
  O  O182  1  0.88000169  0.75804176  0.01232503  1
  O  O183  1  0.87298151  0.76222760  0.50695476  1
  O  O184  1  0.11433932  0.23255334  0.50526624  1
  O  O185  1  0.14246363  0.24018335  0.99649800  1
  O  O186  1  0.12136458  0.74084265  0.48404941  1
  O  O187  1  0.12041705  0.72695147  1.00082823  1
  O  O188  1  0.55900622  0.26587676  0.55084948  1
  O  O189  1  0.62605692  0.27156520  0.98460038  1
  O  O190  1  0.65065074  0.75735221  0.49917006  1
  O  O191  1  0.62651774  0.72695329  0.98486145  1
  O  O192  1  0.49838808  0.24986150  0.15100665  1
  O  O193  1  0.52994607  0.26166881  0.61978117  1
  O  O194  1  0.50278616  0.73633092  0.13435327  1
  O  O195  1  0.48224458  0.78048986  0.59680446  1
  O  O196  1  0.99529179  0.22762934  0.10596687  1
  O  O197  1  0.99746663  0.25121841  0.62650287  1
  O  O198  1  0.98839561  0.73552148  0.12058854  1
  O  O199  1  1.01781040  0.73172759  0.63098785  1
  O  O200  1  -0.01033502  0.25450070  0.36894202  1
  O  O201  1  0.01107717  0.26768278  0.89990840  1
  O  O202  1  0.00060168  0.74854148  0.37974491  1
  O  O203  1  0.01355725  0.74078299  0.88772270  1
  O  O204  1  0.50089177  0.27301636  0.37852610  1
  O  O205  1  0.52439071  0.24998204  0.88685927  1
  O  O206  1  0.49556785  0.77269002  0.35407223  1
  O  O207  1  0.54130198  0.69464315  0.85515072  1
  O  O208  1  0.24259606  0.14367131  0.50912255  1
  O  O209  1  0.25041229  0.13200075  1.00235037  1
  O  O210  1  0.22113497  0.63845607  0.50790551  1
  O  O211  1  0.23066473  0.61377004  1.02564262  1
  O  O212  1  0.73190768  0.11569892  0.49540101  1
  O  O213  1  0.76342342  0.13803411  1.02674210  1
  O  O214  1  0.75983351  0.64747442  0.49034026  1
  O  O215  1  0.74654086  0.62146053  1.01555156  1
  O  O216  1  0.24036948  0.36987218  0.00555144  1
  O  O217  1  0.23940630  0.35838821  0.50371553  1
  O  O218  1  0.34069453  0.83660112  0.02750987  1
  O  O219  1  0.23754185  0.86113003  0.50308945  1
  O  O220  1  0.71813197  0.37685242  -0.01061283  1
  O  O221  1  0.76080599  0.38088038  0.48497620  1
  O  O222  1  0.76663230  0.88265957  0.01256116  1
  O  O223  1  0.76646484  0.86251661  0.50352529  1
  O  O224  1  0.11653479  0.48736027  0.23156885  1
  O  O225  1  0.12887371  0.49823241  0.75118126  1
  O  O226  1  0.13213924  0.99777125  0.21827411  1
  O  O227  1  0.12063358  1.00712347  0.74143781  1
  O  O228  1  0.64087470  0.51437770  0.25277164  1
  O  O229  1  0.62078165  0.57111557  0.72784115  1
  O  O230  1  0.64018192  0.99079761  0.25219024  1
  O  O231  1  0.64446124  0.98871084  0.75548316  1
  O  O232  1  0.35243842  -0.01683803  0.21879593  1
  O  O233  1  0.37552014  -0.00132525  0.77160674  1
  O  O234  1  0.37392990  0.49839398  0.26530656  1
  O  O235  1  0.36122922  0.50481782  0.76345102  1
  O  O236  1  0.87793418  -0.00513290  0.25839636  1
  O  O237  1  0.87028147  0.01159740  0.75190929  1
  O  O238  1  0.85741205  0.52204457  0.24644423  1
  O  O239  1  0.88240727  0.49433073  0.76164739  1
  O  O240  1  0.10094640  0.36641449  0.39230309  1
  O  O241  1  0.11635846  0.36501158  0.87832715  1
  O  O242  1  0.11094477  0.86191328  0.37328444  1
  O  O243  1  0.14762070  0.84562982  0.88700363  1
  O  O244  1  0.60891142  0.39860807  0.38774093  1
  O  O245  1  0.60990933  0.37743100  0.87155347  1
  O  O246  1  0.63768787  0.87098250  0.35872897  1
  O  O247  1  0.62541538  0.85614648  0.88576702  1
  O  O248  1  0.39175799  0.12910229  0.13300590  1
  O  O249  1  0.38907442  0.11807935  0.63538339  1
  O  O250  1  0.39508216  0.60902490  0.12405587  1
  O  O251  1  0.36309672  0.66176445  0.64115542  1
  O  O252  1  0.89777372  0.10585083  0.13523544  1
  O  O253  1  0.87727452  0.13486980  0.63713943  1
  O  O254  1  0.87853009  0.63639154  0.13352755  1
  O  O255  1  0.89613091  0.61673841  0.63766291  1
  O  O256  1  0.26005637  0.25109957  0.11109029  1
  O  O257  1  0.24454315  0.26506575  0.61063913  1
  O  O258  1  0.25421160  0.74850003  0.15293637  1
  O  O259  1  0.22536127  0.76316276  0.60961525  1
  O  O260  1  0.75431504  0.27796103  0.13830800  1
  O  O261  1  0.70807045  0.22705762  0.61208356  1
  O  O262  1  0.76629599  0.76057919  0.12880784  1
  O  O263  1  0.75784645  0.74801492  0.62452091  1
  O  O264  1  0.26144654  0.25404744  0.39244002  1
  O  O265  1  0.23878677  0.25795053  0.88573291  1
  O  O266  1  0.22881663  0.75346464  0.38413414  1
  O  O267  1  0.23698587  0.72622624  0.88701805  1
  O  O268  1  0.72180698  0.23751044  0.33780253  1
  O  O269  1  0.72804312  0.29234397  0.86818115  1
  O  O270  1  0.75879384  0.74902296  0.37355602  1
  O  O271  1  0.72498203  0.72783572  0.86075777  1
  O  O272  1  -0.01299752  0.10568934  -0.01082160  1
  O  O273  1  0.01181629  0.10976100  0.49683532  1
  O  O274  1  -0.00111732  0.61529943  0.01567263  1
  O  O275  1  0.00907351  0.62035761  0.51913308  1
  O  O276  1  0.49091804  0.14616491  0.00845235  1
  O  O277  1  0.48055601  0.10753482  0.50643882  1
  O  O278  1  0.51350956  0.62278671  0.02193320  1
  O  O279  1  0.51656903  0.65910644  0.48919428  1
  O  O280  1  0.49893387  0.40402175  0.49667690  1
  O  O281  1  0.49316500  0.37746591  1.00138869  1
  O  O282  1  0.50956762  0.89428280  0.46075135  1
  O  O283  1  0.49967540  0.87638946  1.01542348  1
  O  O284  1  0.98456588  0.37123215  0.49507204  1
  O  O285  1  1.00278352  0.39002355  1.02006681  1
  O  O286  1  0.99260248  0.88142857  0.50444351  1
  O  O287  1  0.98603793  0.88178251  0.99857554  1
  O  O288  1  0.49679775  0.50932761  0.38420274  1
  O  O289  1  0.47230598  0.53086426  0.87050633  1
  O  O290  1  0.48991972  0.98427683  0.32414996  1
  O  O291  1  0.49173438  0.99053648  0.89437793  1
  O  O292  1  0.98492223  0.46532826  0.34242039  1
  O  O293  1  1.00023171  0.47938916  0.88555589  1
  O  O294  1  0.98923910  0.99425913  0.38914600  1
  O  O295  1  1.02587598  0.99040310  0.88494662  1
  O  O296  1  0.01433442  0.00744390  0.10266809  1
  O  O297  1  0.01484553  -0.00093031  0.61199583  1
  O  O298  1  -0.02250921  0.51053282  0.11853896  1
  O  O299  1  0.01975762  0.49773896  0.63004965  1
  O  O300  1  0.49560273  0.01937212  0.10715953  1
  O  O301  1  0.48384100  -0.01943966  0.60749625  1
  O  O302  1  0.52067900  0.51679590  0.15320898  1
  O  O303  1  0.50710832  0.51945301  0.61284235  1
  O  O304  1  0.23953860  0.40422048  0.29526109  1
  O  O305  1  0.26561447  0.36227830  0.72837470  1
  O  O306  1  0.24303259  0.86137193  0.22755222  1
  O  O307  1  0.23834799  0.86014536  0.73691692  1
  O  O308  1  0.75614086  0.39914901  0.28005963  1
  O  O309  1  0.71030367  0.29795568  0.62727023  1
  O  O310  1  0.73920200  0.87787467  0.23680078  1
  O  O311  1  0.74605717  0.88365782  0.75232676  1
  O  O312  1  0.24307153  0.10542465  0.24452630  1
  O  O313  1  0.27503874  0.12333290  0.72686474  1
  O  O314  1  0.23881424  0.58624520  0.25624288  1
  O  O315  1  0.24803684  0.62840850  0.75825141  1
  O  O316  1  0.75107166  0.10460950  0.23581240  1
  O  O317  1  0.75870721  0.10577185  0.74927855  1
  O  O318  1  0.76058015  0.63255669  0.26406581  1
  O  O319  1  0.77660012  0.62098998  0.73811064  1
  O  O320  1  0.35230465  0.09626449  0.37766516  1
  O  O321  1  0.37545564  0.10528649  0.86680861  1
  O  O322  1  0.38625681  0.62092542  0.36496716  1
  O  O323  1  0.35482801  0.62563761  0.88412905  1
  O  O324  1  0.87382698  0.10230683  0.38248211  1
  O  O325  1  0.84832716  0.17613374  0.85298133  1
  O  O326  1  0.87226476  0.63513627  0.36552713  1
  O  O327  1  0.88816416  0.60379107  0.86279379  1
  O  O328  1  0.12972379  0.32178977  0.18248319  1
  O  O329  1  0.13085721  0.38478629  0.63130505  1
  O  O330  1  0.12196742  0.88770674  0.09901246  1
  O  O331  1  0.12403284  0.88980452  0.62558721  1
  O  O332  1  0.61750991  0.38889935  0.13930603  1
  O  O333  1  0.61773838  0.42164561  0.66376548  1
  O  O334  1  0.64356601  0.86280565  0.11899659  1
  O  O335  1  0.62980191  0.87685793  0.62571397  1
  O  O336  1  0.10517997  0.28387445  0.23879944  1
  O  O337  1  0.13121835  0.23500698  0.76820893  1
  O  O338  1  0.11939765  0.73787343  0.26987578  1
  O  O339  1  0.12144422  0.73349064  0.77098671  1
  O  O340  1  0.66821236  0.25003032  0.28377457  1
  O  O341  1  0.61324419  0.27056241  0.77287985  1
  O  O342  1  0.62625524  0.76040446  0.24531428  1
  O  O343  1  0.63178978  0.77310064  0.75195439  1
  O  O344  1  0.37672416  0.25095863  0.26256948  1
  O  O345  1  0.39388193  0.22266254  0.77889475  1
  O  O346  1  0.38652245  0.75721408  0.24244083  1
  O  O347  1  0.40359918  0.66115320  0.70116100  1
  O  O348  1  0.82341057  0.29701978  0.17109327  1
  O  O349  1  0.85396165  0.24691645  0.72090916  1
  O  O350  1  0.88046657  0.73975397  0.23973068  1
  O  O351  1  0.88279270  0.73148926  0.76339109  1
  O  O352  1  0.39902780  0.53547498  0.50095369  1
  O  O353  1  0.37222095  0.48906651  0.99189415  1
  O  O354  1  0.35909626  1.04224148  0.42461896  1
  O  O355  1  0.38366181  0.99636874  0.98863729  1
  O  O356  1  0.87511719  0.49279087  0.51016234  1
  O  O357  1  0.88834864  0.50282930  0.98727454  1
  O  O358  1  0.88717994  0.99064970  0.49849849  1
  O  O359  1  0.88662053  0.98397123  0.98975048  1
  O  O360  1  0.12245611  0.01279226  -0.00434954  1
  O  O361  1  0.11642767  0.00186256  0.49377780  1
  O  O362  1  0.10380428  0.51310211  -0.00140421  1
  O  O363  1  0.12830150  0.51013938  0.48615774  1
  O  O364  1  0.60779278  -0.00603447  -0.00262854  1
  O  O365  1  0.67766501  0.07441405  0.45876301  1
  O  O366  1  0.63213436  0.50484070  0.03564188  1
  O  O367  1  0.60960165  0.53216801  0.50652569  1
  O  O368  1  0.38564620  0.38457636  0.11021683  1
  O  O369  1  0.35145613  0.40292272  0.60498947  1
  O  O370  1  0.24597784  0.82549893  0.15299763  1
  O  O371  1  0.34854557  0.87239436  0.62899516  1
  O  O372  1  0.85994423  0.35698006  0.13119628  1
  O  O373  1  0.87765031  0.36047024  0.61078206  1
  O  O374  1  0.87296544  0.86316371  0.12183706  1
  O  O375  1  0.88116714  0.88332873  0.61645618  1
  O  O376  1  0.13506559  0.12248398  0.39167430  1
  O  O377  1  0.11844708  0.14066362  0.89113321  1
  O  O378  1  0.10275445  0.62496600  0.38497357  1
  O  O379  1  0.13240320  0.62450089  0.89096475  1
  O  O380  1  0.63442701  0.11879899  0.40748063  1
  O  O381  1  0.65141097  0.17119938  0.87468262  1
  O  O382  1  0.64205690  0.63845860  0.38691065  1
  O  O383  1  0.63665064  0.57217092  0.91152810  1
