# generated using pymatgen
data_VZnO4
_symmetry_space_group_name_H-M   'P 1'
_cell_length_a   17.22542573
_cell_length_b   16.72553834
_cell_length_c   17.43550010
_cell_angle_alpha   89.58622383
_cell_angle_beta   91.31366333
_cell_angle_gamma   89.40184369
_symmetry_Int_Tables_number   1
_chemical_formula_structural   VZnO4
_chemical_formula_sum   'V64 Zn64 O256'
_cell_volume   5021.51257597
_cell_formula_units_Z   64
loop_
 _symmetry_equiv_pos_site_id
 _symmetry_equiv_pos_as_xyz
  1  'x, y, z'
loop_
 _atom_site_type_symbol
 _atom_site_label
 _atom_site_symmetry_multiplicity
 _atom_site_fract_x
 _atom_site_fract_y
 _atom_site_fract_z
 _atom_site_occupancy
  V  V0  1  0.73537349  0.74615762  -0.00457386  1
  V  V1  1  -0.00616028  0.21497099  0.77916539  1
  V  V2  1  0.74712404  0.12678604  0.38661460  1
  V  V3  1  0.22277378  -0.00933795  0.72792254  1
  V  V4  1  0.88182061  0.63039696  0.25020284  1
  V  V5  1  0.36751507  0.25909506  0.13312596  1
  V  V6  1  -0.00761584  0.51491262  -0.00066256  1
  V  V7  1  0.88402962  0.62083585  0.77056870  1
  V  V8  1  0.75073724  0.01229669  0.24453423  1
  V  V9  1  -0.00966816  0.40206904  0.36277366  1
  V  V10  1  0.50657889  0.62463987  0.10875581  1
  V  V11  1  0.36591166  0.87427636  0.00886654  1
  V  V12  1  0.03816563  0.86167663  0.85211081  1
  V  V13  1  0.47049731  0.62147187  0.64861075  1
  V  V14  1  0.45350521  0.29946152  0.52706572  1
  V  V15  1  0.12574202  0.62003262  0.49965849  1
  V  V16  1  0.48589399  0.84719308  0.88207112  1
  V  V17  1  0.87869810  0.37039162  0.00345348  1
  V  V18  1  0.62169661  0.50554098  0.11114918  1
  V  V19  1  0.22923282  0.74449913  -0.00196747  1
  V  V20  1  0.50873251  0.74229836  0.25009602  1
  V  V21  1  0.13179911  0.11911895  0.01620166  1
  V  V22  1  0.27622773  0.54915579  0.84302557  1
  V  V23  1  0.61904708  0.86733909  0.77276031  1
  V  V24  1  0.23662913  0.88480966  0.14031485  1
  V  V25  1  0.75747588  0.50620959  0.24706625  1
  V  V26  1  0.73487514  0.87886987  0.59858530  1
  V  V27  1  0.49087456  0.00500883  -0.01161882  1
  V  V28  1  -0.01597958  0.01539238  -0.01303635  1
  V  V29  1  0.37212006  0.73997488  0.12796353  1
  V  V30  1  0.12830466  0.50242599  0.12666852  1
  V  V31  1  0.63082269  0.37669895  0.24513564  1
  V  V32  1  0.09911703  0.41419317  0.74861206  1
  V  V33  1  0.49395541  0.38196534  0.35694560  1
  V  V34  1  0.74697277  0.64404568  0.36484161  1
  V  V35  1  0.64350803  0.64511647  0.48852809  1
  V  V36  1  0.87667884  0.75525010  0.12403958  1
  V  V37  1  0.75809307  0.37242525  0.12168470  1
  V  V38  1  0.25789811  0.26436590  0.48634783  1
  V  V39  1  0.50248184  0.52357200  0.48354750  1
  V  V40  1  0.00256199  0.63421521  0.12410233  1
  V  V41  1  0.11991755  0.36687296  0.24930923  1
  V  V42  1  0.24534354  0.28354345  0.00626266  1
  V  V43  1  0.86409921  0.23232762  0.64333448  1
  V  V44  1  -0.00581212  0.38697955  0.88171252  1
  V  V45  1  0.25048702  0.50900554  0.26826515  1
  V  V46  1  0.87452158  0.85234382  0.48780619  1
  V  V47  1  0.73979423  0.62586545  0.87005664  1
  V  V48  1  0.35224152  0.14835234  0.74815027  1
  V  V49  1  0.63780340  0.26494502  0.37708506  1
  V  V50  1  0.48626675  0.12908316  0.13491183  1
  V  V51  1  0.12737580  0.24264161  0.88110059  1
  V  V52  1  0.62076825  0.87107103  0.25069646  1
  V  V53  1  0.20315015  0.37127158  0.62366719  1
  V  V54  1  0.73409524  0.25396586  -0.01542220  1
  V  V55  1  0.87613369  0.76570956  0.65273354  1
  V  V56  1  0.01734751  0.11405181  0.57133350  1
  V  V57  1  0.05619189  0.83113501  0.29687216  1
  V  V58  1  0.87994687  0.00313439  0.39588034  1
  V  V59  1  0.74341892  0.87891598  0.11937718  1
  V  V60  1  0.65800414  0.51753751  0.62433516  1
  V  V61  1  0.61617930  0.01040619  0.11797230  1
  V  V62  1  0.87032601  0.88549317  -0.00848412  1
  V  V63  1  -0.01555888  0.13400067  0.12794059  1
  Zn  Zn64  1  0.18682907  0.19242552  0.18152929  1
  Zn  Zn65  1  0.16996504  0.19420656  0.69372485  1
  Zn  Zn66  1  0.18568508  0.69389692  0.19580901  1
  Zn  Zn67  1  0.20850009  0.65561290  0.68989212  1
  Zn  Zn68  1  0.68143023  0.19373316  0.17615835  1
  Zn  Zn69  1  0.71467252  0.08156452  0.66914381  1
  Zn  Zn70  1  0.68952155  0.68911221  0.17794146  1
  Zn  Zn71  1  0.69328857  0.69634629  0.68763578  1
  Zn  Zn72  1  0.30554488  0.31913110  0.30273326  1
  Zn  Zn73  1  0.28184578  0.34020311  0.81059113  1
  Zn  Zn74  1  0.33022745  0.81807784  0.29977725  1
  Zn  Zn75  1  0.20071268  0.79976112  0.80923128  1
  Zn  Zn76  1  0.81025590  0.31647172  0.31125983  1
  Zn  Zn77  1  0.82101760  0.29690446  0.81466511  1
  Zn  Zn78  1  0.81577228  0.82351823  0.30062168  1
  Zn  Zn79  1  0.79945570  0.82058649  0.81914707  1
  Zn  Zn80  1  0.17763866  0.42462869  0.42682792  1
  Zn  Zn81  1  0.16903105  0.45725975  0.93548110  1
  Zn  Zn82  1  0.03995895  0.94918407  0.46786931  1
  Zn  Zn83  1  0.16248186  0.98336750  0.90131533  1
  Zn  Zn84  1  0.68779051  0.46682823  0.42172699  1
  Zn  Zn85  1  0.69948676  0.44883617  0.94183719  1
  Zn  Zn86  1  0.68411985  0.93535788  0.42544831  1
  Zn  Zn87  1  0.66857418  0.93221558  0.94217287  1
  Zn  Zn88  1  0.31146958  0.06004666  0.06859770  1
  Zn  Zn89  1  0.28943572  0.10110947  0.60194593  1
  Zn  Zn90  1  0.30956281  0.56397665  0.02115040  1
  Zn  Zn91  1  0.31891901  0.53698041  0.55938803  1
  Zn  Zn92  1  0.80574776  0.07621660  0.06144828  1
  Zn  Zn93  1  0.86906346  0.01186684  0.61711063  1
  Zn  Zn94  1  0.81424004  0.56444087  0.06155981  1
  Zn  Zn95  1  0.85647577  0.54980904  0.61438691  1
  Zn  Zn96  1  0.38979470  0.47167690  0.14278458  1
  Zn  Zn97  1  0.51227585  0.42544932  0.66156048  1
  Zn  Zn98  1  0.44136929  0.93520061  0.18051411  1
  Zn  Zn99  1  0.33439172  0.94311634  0.82553007  1
  Zn  Zn100  1  0.93883785  0.44164287  0.18123125  1
  Zn  Zn101  1  0.90633558  0.41210139  0.69911369  1
  Zn  Zn102  1  0.92692388  0.95406136  0.16654659  1
  Zn  Zn103  1  1.02857305  0.95537720  0.67934590  1
  Zn  Zn104  1  0.03724427  0.00782455  0.28062363  1
  Zn  Zn105  1  -0.06666341  0.03033034  0.80852074  1
  Zn  Zn106  1  0.06306794  0.56276561  0.30477063  1
  Zn  Zn107  1  0.09303011  0.60906180  0.81688429  1
  Zn  Zn108  1  0.57241767  0.07670776  0.30003947  1
  Zn  Zn109  1  0.48466386  0.01251222  0.76797049  1
  Zn  Zn110  1  0.56977417  0.56218969  0.30224804  1
  Zn  Zn111  1  0.55514711  0.68341710  0.80644298  1
  Zn  Zn112  1  0.56966513  0.12502042  0.47596483  1
  Zn  Zn113  1  0.42224352  0.19380447  0.94779385  1
  Zn  Zn114  1  0.47204974  0.73400801  0.45157846  1
  Zn  Zn115  1  0.41592305  0.67595714  0.94089482  1
  Zn  Zn116  1  0.96132590  0.27095933  0.48804926  1
  Zn  Zn117  1  0.93385467  0.18827675  0.93906734  1
  Zn  Zn118  1  0.94540475  0.70044281  0.41824385  1
  Zn  Zn119  1  0.93126641  0.70284348  0.93916715  1
  Zn  Zn120  1  0.05993411  0.31319770  0.06832566  1
  Zn  Zn121  1  0.02441998  0.44040013  0.55509759  1
  Zn  Zn122  1  0.05791422  0.82908179  0.06557837  1
  Zn  Zn123  1  0.03407311  0.74002334  0.72486823  1
  Zn  Zn124  1  0.56237496  0.31063141  0.07042000  1
  Zn  Zn125  1  0.61444973  0.35746574  0.53583964  1
  Zn  Zn126  1  0.55829427  0.81348399  0.06434854  1
  Zn  Zn127  1  0.55086593  0.81013299  0.57390596  1
  O  O128  1  0.12555099  0.12175666  0.11455677  1
  O  O129  1  0.08972934  0.15517511  0.62499825  1
  O  O130  1  0.10684268  0.62210462  0.13688914  1
  O  O131  1  0.12292572  0.62037097  0.60107458  1
  O  O132  1  0.60595685  0.11975450  0.12434012  1
  O  O133  1  0.60249801  0.10623768  0.70465355  1
  O  O134  1  0.61969764  0.61699645  0.11987455  1
  O  O135  1  0.65576336  0.63183744  0.59238163  1
  O  O136  1  0.39844444  0.37042763  0.35201401  1
  O  O137  1  0.44707842  0.38477747  0.79609784  1
  O  O138  1  0.39058256  0.91999889  0.33333450  1
  O  O139  1  0.37677966  0.86657332  0.90176653  1
  O  O140  1  0.89647141  0.36400892  0.35885902  1
  O  O141  1  0.89089821  0.37716482  0.88541391  1
  O  O142  1  0.85314915  0.89378480  0.38292415  1
  O  O143  1  0.86044914  0.88063521  0.89528392  1
  O  O144  1  0.24859714  0.07550354  0.37168354  1
  O  O145  1  0.24208535  0.01260060  0.83807532  1
  O  O146  1  0.24620068  0.48959246  0.36668982  1
  O  O147  1  0.29042666  0.44624974  0.85393318  1
  O  O148  1  0.73397154  0.01340015  0.35435311  1
  O  O149  1  0.73962857  0.01156231  0.89586763  1
  O  O150  1  0.75691961  0.51714456  0.34979372  1
  O  O151  1  0.75202369  0.52407488  0.88157519  1
  O  O152  1  0.22401038  0.50633246  0.12313578  1
  O  O153  1  0.26763523  0.44557299  0.60417418  1
  O  O154  1  0.26581306  0.98190815  0.13318408  1
  O  O155  1  0.25144020  0.99817470  0.63155626  1
  O  O156  1  0.74059657  0.49776139  0.12642691  1
  O  O157  1  0.75565166  0.50365338  0.61433144  1
  O  O158  1  0.73551220  1.00141633  0.12872800  1
  O  O159  1  0.75771844  0.98085261  0.62843998  1
  O  O160  1  0.00586593  0.38691417  0.25466383  1
  O  O161  1  -0.00216234  0.38242552  0.76742235  1
  O  O162  1  -0.00284435  0.89694590  0.23799979  1
  O  O163  1  0.03800266  0.85479762  0.75154854  1
  O  O164  1  0.52391092  0.39555424  0.26085070  1
  O  O165  1  0.50106585  0.33416240  0.78209116  1
  O  O166  1  0.51708985  0.86533826  0.23484059  1
  O  O167  1  0.47321594  0.86121247  0.78830962  1
  O  O168  1  0.49514260  0.12461354  0.23139204  1
  O  O169  1  0.45696437  0.13877880  0.79896156  1
  O  O170  1  0.51536842  0.63685180  0.23326727  1
  O  O171  1  0.48372442  0.62132070  0.74679285  1
  O  O172  1  1.01259108  0.09701646  0.22019420  1
  O  O173  1  1.01230807  0.11743206  0.77747240  1
  O  O174  1  0.98516437  0.62579805  0.23969916  1
  O  O175  1  0.98648424  0.64349630  0.77444189  1
  O  O176  1  0.34478391  0.25342614  0.00098956  1
  O  O177  1  0.49237162  0.20872500  0.50716430  1
  O  O178  1  0.36930187  0.75385330  0.01695167  1
  O  O179  1  0.47095863  0.83082243  0.50182453  1
  O  O180  1  0.86895944  0.26632272  -0.00436316  1
  O  O181  1  0.86950902  0.27007383  0.55295294  1
  O  O182  1  0.86160458  0.76690172  0.01068820  1
  O  O183  1  0.86658876  0.75121014  0.48101814  1
  O  O184  1  0.18896469  0.34626771  0.51094224  1
  O  O185  1  0.13635822  0.24672488  1.00345076  1
  O  O186  1  0.14856885  0.72177792  0.49673258  1
  O  O187  1  0.13363055  0.76360463  1.01254333  1
  O  O188  1  0.64963724  0.27341317  0.47483078  1
  O  O189  1  0.63709118  0.26889475  0.99899241  1
  O  O190  1  0.62736377  0.74279334  0.48780047  1
  O  O191  1  0.63859718  0.75516616  1.00913837  1
  O  O192  1  0.48655560  0.23647450  0.11290860  1
  O  O193  1  0.56946656  0.12931297  0.63794877  1
  O  O194  1  0.49617501  0.73972720  0.12559004  1
  O  O195  1  0.50483889  0.70969699  0.61485402  1
  O  O196  1  1.00586459  0.23504252  0.12726358  1
  O  O197  1  0.96585726  0.24422185  0.68628687  1
  O  O198  1  0.98530286  0.74895403  0.11478115  1
  O  O199  1  0.97244078  0.75972014  0.63150666  1
  O  O200  1  -0.04912805  0.21073682  0.31128743  1
  O  O201  1  0.01998682  0.26699055  0.88761196  1
  O  O202  1  -0.00562969  0.77118408  0.34639419  1
  O  O203  1  0.00195690  0.77476362  0.89017470  1
  O  O204  1  0.53387871  0.27939468  0.36571203  1
  O  O205  1  0.49132140  0.29193280  0.92796879  1
  O  O206  1  0.50439533  0.74547107  0.34513549  1
  O  O207  1  0.49074629  0.74171791  0.88712662  1
  O  O208  1  0.25320108  0.16685956  0.51684435  1
  O  O209  1  0.23093446  0.11042529  1.00507438  1
  O  O210  1  0.22560916  0.59540589  0.50095470  1
  O  O211  1  0.23762245  0.64472317  1.02261014  1
  O  O212  1  0.74161804  0.11946757  0.47887679  1
  O  O213  1  0.75059204  0.15369469  1.00076243  1
  O  O214  1  0.74931529  0.63112212  0.46791266  1
  O  O215  1  0.75637379  0.63977333  0.99251554  1
  O  O216  1  0.23356447  0.38308505  0.00465372  1
  O  O217  1  0.35165865  0.30471865  0.50861768  1
  O  O218  1  0.26339779  0.86507159  0.01996882  1
  O  O219  1  0.24943501  0.92087741  0.42927733  1
  O  O220  1  0.76106739  0.37598811  0.00646834  1
  O  O221  1  0.77931659  0.39734252  0.47971508  1
  O  O222  1  0.74858079  0.87127835  0.00761263  1
  O  O223  1  0.74881746  0.87848176  0.49830088  1
  O  O224  1  0.12925835  0.50052140  0.23934190  1
  O  O225  1  0.09573760  0.51305550  0.74662594  1
  O  O226  1  0.12315832  0.93130376  0.31897627  1
  O  O227  1  0.12510153  0.99435250  0.72207918  1
  O  O228  1  0.64229798  0.49731713  0.23654437  1
  O  O229  1  0.64000710  0.54234919  0.71344009  1
  O  O230  1  0.62637802  0.99255399  0.23552193  1
  O  O231  1  0.57610751  0.95406133  0.73578627  1
  O  O232  1  0.39182414  -0.02463921  0.28028421  1
  O  O233  1  0.37428873  0.01983082  0.75202004  1
  O  O234  1  0.34466722  0.49083918  0.23897010  1
  O  O235  1  0.44362515  0.45121599  0.74618105  1
  O  O236  1  0.84952721  -0.00516360  0.24763111  1
  O  O237  1  0.92534555  -0.01862702  0.71052774  1
  O  O238  1  0.86594684  0.52091211  0.23173346  1
  O  O239  1  0.87856560  0.52188736  0.75651380  1
  O  O240  1  0.10301840  0.38060061  0.35404817  1
  O  O241  1  0.10918439  0.38997347  0.86063023  1
  O  O242  1  0.09928013  0.88543079  0.38611317  1
  O  O243  1  0.13610737  0.87023252  0.87867192  1
  O  O244  1  0.65254634  0.37566231  0.35747895  1
  O  O245  1  0.60165032  0.42413625  0.86620003  1
  O  O246  1  0.63312744  0.87274608  0.34595084  1
  O  O247  1  0.59851331  0.86769703  0.87623389  1
  O  O248  1  0.38227188  0.13333586  0.11976003  1
  O  O249  1  0.38215487  0.15020246  0.65481626  1
  O  O250  1  0.39268405  0.63681454  0.12603018  1
  O  O251  1  0.37436813  0.61057970  0.62367926  1
  O  O252  1  0.88460966  0.13099062  0.12252469  1
  O  O253  1  0.92299137  0.12127088  0.61161131  1
  O  O254  1  0.88043489  0.63750462  0.12851423  1
  O  O255  1  0.86383223  0.65392252  0.66145544  1
  O  O256  1  0.25574840  0.25429995  0.11120532  1
  O  O257  1  0.23365253  0.27393631  0.63426334  1
  O  O258  1  0.26536586  0.75574059  0.12959016  1
  O  O259  1  0.25094937  0.72146971  0.60853268  1
  O  O260  1  0.74314005  0.26834275  0.11552656  1
  O  O261  1  0.78534031  0.17281553  0.65584383  1
  O  O262  1  0.75552333  0.75899152  0.11329872  1
  O  O263  1  0.75893701  0.77884413  0.63832714  1
  O  O264  1  0.25417203  0.26579820  0.38916066  1
  O  O265  1  0.22717116  0.27367085  0.89433479  1
  O  O266  1  0.30827068  0.75538206  0.39578021  1
  O  O267  1  0.24632709  0.74902765  0.90204410  1
  O  O268  1  0.74781471  0.23592401  0.35968091  1
  O  O269  1  0.74376444  0.27298212  0.88738972  1
  O  O270  1  0.75150076  0.74362980  0.35217587  1
  O  O271  1  0.74661074  0.75296078  0.89484759  1
  O  O272  1  0.01211256  0.13351245  0.01482662  1
  O  O273  1  0.00818285  0.16718444  0.48622128  1
  O  O274  1  -0.01229059  0.62227485  0.00895123  1
  O  O275  1  0.02381427  0.64355181  0.49329130  1
  O  O276  1  0.48377145  0.10866457  0.00172971  1
  O  O277  1  0.62536177  0.12283424  0.57972540  1
  O  O278  1  0.49773792  0.62829496  0.01328943  1
  O  O279  1  0.52340318  0.62651376  0.47023800  1
  O  O280  1  0.50713064  0.38190174  0.47905875  1
  O  O281  1  0.49055367  0.34972298  0.97668285  1
  O  O282  1  0.44772960  0.98467581  0.53921810  1
  O  O283  1  0.48672369  0.87607676  0.99804366  1
  O  O284  1  1.00663501  0.37130205  0.46687590  1
  O  O285  1  0.99401387  0.38399983  0.99878691  1
  O  O286  1  0.97234754  0.86023759  0.48851180  1
  O  O287  1  0.97461333  0.89027620  1.00971693  1
  O  O288  1  0.51812004  0.49260972  0.37961557  1
  O  O289  1  0.55100508  0.47784420  0.87019238  1
  O  O290  1  0.53192446  0.97947473  0.41982513  1
  O  O291  1  0.49155193  0.98799027  0.89179850  1
  O  O292  1  0.98791550  0.50298225  0.36687550  1
  O  O293  1  1.00404557  0.50314865  0.90030871  1
  O  O294  1  0.98054077  1.00618506  0.38133596  1
  O  O295  1  1.00323960  0.95580858  0.87673744  1
  O  O296  1  -0.01396363  0.01632251  0.09419083  1
  O  O297  1  0.03913021  0.00782522  0.56276613  1
  O  O298  1  -0.00041290  0.51730582  0.11748552  1
  O  O299  1  -0.06272192  0.47312683  0.61090121  1
  O  O300  1  0.49927279  0.01077309  0.11750678  1
  O  O301  1  0.40815289  -0.01950666  0.59654658  1
  O  O302  1  0.51674416  0.51360394  0.12993808  1
  O  O303  1  0.51537907  0.53118320  0.59944616  1
  O  O304  1  0.22408905  0.38746196  0.25346170  1
  O  O305  1  0.20028727  0.38266561  0.73475644  1
  O  O306  1  0.25190920  0.86493092  0.23690371  1
  O  O307  1  0.24948280  0.88557074  0.75012191  1
  O  O308  1  0.75293576  0.38522826  0.23577881  1
  O  O309  1  0.65460430  0.31687190  0.75534978  1
  O  O310  1  0.73758840  0.88433640  0.23245535  1
  O  O311  1  0.71625001  0.88496208  0.77234346  1
  O  O312  1  0.25477018  0.12903517  0.25302413  1
  O  O313  1  0.24797566  0.11527116  0.72798471  1
  O  O314  1  0.23740120  0.61185840  0.25693464  1
  O  O315  1  0.27151852  0.58275882  0.75053960  1
  O  O316  1  0.73808573  0.11490377  0.24072245  1
  O  O317  1  0.76019038  0.07281612  0.78330449  1
  O  O318  1  0.75911693  0.62579514  0.24693622  1
  O  O319  1  0.76375527  0.64875011  0.76993056  1
  O  O320  1  0.50339085  0.05308199  0.39349421  1
  O  O321  1  0.39803242  0.13007407  0.85623541  1
  O  O322  1  0.35558197  0.70022636  0.42056041  1
  O  O323  1  0.34455073  0.59917885  0.90172277  1
  O  O324  1  0.85089399  0.10333355  0.37322122  1
  O  O325  1  0.92652297  0.07297902  0.91354729  1
  O  O326  1  0.87091568  0.63607261  0.35056347  1
  O  O327  1  0.86530632  0.64111736  0.87018486  1
  O  O328  1  0.10721281  0.39298426  0.13910444  1
  O  O329  1  0.09737247  0.39521020  0.63731495  1
  O  O330  1  0.13866197  0.88409476  0.12521176  1
  O  O331  1  0.12401015  0.84519210  0.60631741  1
  O  O332  1  0.63026548  0.38712077  0.13058224  1
  O  O333  1  0.62035172  0.41164082  0.62738937  1
  O  O334  1  0.63076349  0.88712197  0.12550692  1
  O  O335  1  0.63659520  0.87293630  0.60882363  1
  O  O336  1  0.12475579  0.26643753  0.24038559  1
  O  O337  1  0.10852340  0.24586648  0.77647940  1
  O  O338  1  0.11568168  0.76729404  0.24939162  1
  O  O339  1  0.13974731  0.70757977  0.76259426  1
  O  O340  1  0.63620287  0.26965187  0.24979790  1
  O  O341  1  0.62739436  0.25834079  0.72278237  1
  O  O342  1  0.61952712  0.76120409  0.23201853  1
  O  O343  1  0.61044490  0.76451627  0.74043769  1
  O  O344  1  0.35762998  0.25059672  0.22917278  1
  O  O345  1  0.33194799  0.24697517  0.77124562  1
  O  O346  1  0.39739565  0.75638515  0.23217438  1
  O  O347  1  0.31127231  0.77426280  0.63640231  1
  O  O348  1  0.89789713  0.22705405  0.26400040  1
  O  O349  1  0.90135695  0.21212936  0.82348468  1
  O  O350  1  0.86729058  0.74448451  0.23139012  1
  O  O351  1  0.87759963  0.78426143  0.74930783  1
  O  O352  1  0.40525177  0.51741803  0.48857088  1
  O  O353  1  0.38494523  0.49144791  1.03738950  1
  O  O354  1  0.30550276  0.93492428  0.47173639  1
  O  O355  1  0.38157436  0.98392091  1.00938103  1
  O  O356  1  0.83759921  0.44007084  0.49271618  1
  O  O357  1  0.88811624  0.49266721  1.00744662  1
  O  O358  1  0.87281457  0.99424095  0.49313893  1
  O  O359  1  0.85828886  0.98730777  1.01088955  1
  O  O360  1  0.10144834  0.01737246  -0.01405871  1
  O  O361  1  0.17055112  -0.13402327  0.55738073  1
  O  O362  1  0.10188463  0.49885707  0.02061821  1
  O  O363  1  0.10488578  0.51330932  0.50160120  1
  O  O364  1  0.59960109  -0.00727282  0.01060986  1
  O  O365  1  0.59335612  -0.00713400  0.47271806  1
  O  O366  1  0.62602806  0.49346550  0.01597849  1
  O  O367  1  0.62506922  0.51278849  0.50007061  1
  O  O368  1  0.38872902  0.35561036  0.12316647  1
  O  O369  1  0.47201621  0.32318852  0.61954245  1
  O  O370  1  0.38203481  0.86122654  0.11642195  1
  O  O371  1  0.34687890  0.80835872  0.58389844  1
  O  O372  1  0.86606598  0.38143859  0.11576747  1
  O  O373  1  0.83530071  0.32023661  0.70474556  1
  O  O374  1  0.85637695  0.87282521  0.12069448  1
  O  O375  1  0.86120083  0.86457383  0.59432053  1
  O  O376  1  0.21103970  0.09214209  0.31060926  1
  O  O377  1  0.12653600  0.14385439  0.89573024  1
  O  O378  1  0.12125428  0.61446298  0.39712609  1
  O  O379  1  0.17994326  0.56294755  0.88052248  1
  O  O380  1  0.63004421  0.14760885  0.37319583  1
  O  O381  1  0.70769268  0.05209920  0.83460642  1
  O  O382  1  0.64294326  0.62567963  0.37028903  1
  O  O383  1  0.64188805  0.63736648  0.86496092  1
