# generated using pymatgen
data_VZnO4
_symmetry_space_group_name_H-M   'P 1'
_cell_length_a   16.94808691
_cell_length_b   16.91826872
_cell_length_c   16.98221076
_cell_angle_alpha   90.04506757
_cell_angle_beta   89.35110235
_cell_angle_gamma   90.43892723
_symmetry_Int_Tables_number   1
_chemical_formula_structural   VZnO4
_chemical_formula_sum   'V64 Zn64 O256'
_cell_volume   4868.89181361
_cell_formula_units_Z   64
loop_
 _symmetry_equiv_pos_site_id
 _symmetry_equiv_pos_as_xyz
  1  'x, y, z'
loop_
 _atom_site_type_symbol
 _atom_site_label
 _atom_site_symmetry_multiplicity
 _atom_site_fract_x
 _atom_site_fract_y
 _atom_site_fract_z
 _atom_site_occupancy
  V  V0  1  0.49276650  0.36432466  0.37640283  1
  V  V1  1  0.24902736  0.10999858  0.37473880  1
  V  V2  1  0.13362720  0.75803756  0.38291453  1
  V  V3  1  0.36824287  0.26348098  0.61132638  1
  V  V4  1  0.88579736  0.61196261  0.25878319  1
  V  V5  1  0.76070434  0.11887820  0.37771561  1
  V  V6  1  -0.01179182  0.63070674  0.61846382  1
  V  V7  1  0.23590498  0.38332059  0.62054031  1
  V  V8  1  0.74634906  0.61790264  0.38136931  1
  V  V9  1  0.58480739  0.00063255  0.12045648  1
  V  V10  1  0.49707380  0.13571298  0.62287351  1
  V  V11  1  0.24711713  0.00618048  0.73517988  1
  V  V12  1  0.76219494  -0.02163081  0.26263847  1
  V  V13  1  0.14665235  0.74646316  0.86189642  1
  V  V14  1  -0.01049094  0.87843047  0.86706838  1
  V  V15  1  0.48209311  0.50927839  -0.01667213  1
  V  V16  1  0.37654154  0.87360305  0.47592456  1
  V  V17  1  0.48504342  0.28907323  0.75616617  1
  V  V18  1  -0.01028562  -0.00867275  0.49381604  1
  V  V19  1  0.11994350  0.11398740  0.51155875  1
  V  V20  1  0.62681848  0.76771473  0.84705027  1
  V  V21  1  0.13171263  0.63523472  0.00774677  1
  V  V22  1  0.13815005  0.61559706  0.50554440  1
  V  V23  1  0.90148693  0.12369766  0.25812574  1
  V  V24  1  0.24496574  0.49309777  0.77651085  1
  V  V25  1  0.23650592  0.47017778  0.22975453  1
  V  V26  1  0.88060369  0.24200726  0.12538435  1
  V  V27  1  0.24362121  0.25294489  0.49674870  1
  V  V28  1  0.38905772  0.25565132  0.12662093  1
  V  V29  1  0.74013284  0.37714852  0.63803991  1
  V  V30  1  0.62889913  0.24324077  0.35765993  1
  V  V31  1  0.39593315  0.12334349  0.25013414  1
  V  V32  1  0.37166943  0.13023760  0.74604408  1
  V  V33  1  0.24489671  0.12677711  0.87241484  1
  V  V34  1  0.75847194  0.75589928  0.50055266  1
  V  V35  1  0.46359558  0.60912871  0.13430077  1
  V  V36  1  0.63049700  0.40118796  0.25490812  1
  V  V37  1  0.27979669  0.76004628  0.00102648  1
  V  V38  1  0.49286710  0.00166922  0.47498138  1
  V  V39  1  0.85735371  0.75609901  0.12318163  1
  V  V40  1  0.11980289  0.25028587  0.36244453  1
  V  V41  1  0.09528737  0.36637516  0.75013304  1
  V  V42  1  0.25296701  -0.00263276  0.22866576  1
  V  V43  1  -0.04310345  0.12632150  0.65295856  1
  V  V44  1  0.01222594  0.74167516  0.23962031  1
  V  V45  1  0.24796902  0.61851079  0.35351630  1
  V  V46  1  0.64469066  0.63687911  0.01207255  1
  V  V47  1  0.48661492  0.61388062  0.61567048  1
  V  V48  1  -0.00150255  0.37394974  0.35886856  1
  V  V49  1  -0.00739200  0.74556404  0.74489321  1
  V  V50  1  -0.00413887  0.49074967  0.50536820  1
  V  V51  1  0.86678624  0.36187733  0.50310543  1
  V  V52  1  0.46687302  0.73977190  0.25142179  1
  V  V53  1  0.10204534  0.24090294  0.86999859  1
  V  V54  1  -0.00241624  -0.01425091  0.01389887  1
  V  V55  1  0.62584810  0.50866048  0.58666695  1
  V  V56  1  0.37345669  0.49569261  0.37372122  1
  V  V57  1  0.74980715  0.36818961  0.11904788  1
  V  V58  1  0.12203186  0.11215387  0.01254514  1
  V  V59  1  0.13227434  0.87521977  0.73613345  1
  V  V60  1  0.12720758  0.87697753  0.21920307  1
  V  V61  1  0.62654413  0.13645501  0.50004051  1
  V  V62  1  0.27449944  0.85447480  0.62882406  1
  V  V63  1  0.61707943  -0.02063812  0.62412210  1
  Zn  Zn64  1  0.19490488  0.18818134  0.18753578  1
  Zn  Zn65  1  0.17990874  0.19315847  0.68656717  1
  Zn  Zn66  1  0.21021362  0.70322097  0.17608257  1
  Zn  Zn67  1  0.19525508  0.68213516  0.68256770  1
  Zn  Zn68  1  0.69619999  0.17274089  0.18115376  1
  Zn  Zn69  1  0.76205027  0.18389716  0.65905250  1
  Zn  Zn70  1  0.69603444  0.66832094  0.20191588  1
  Zn  Zn71  1  0.63869920  0.71627249  0.65707506  1
  Zn  Zn72  1  0.31057300  0.30615895  0.30358062  1
  Zn  Zn73  1  0.29341493  0.30487721  0.80014683  1
  Zn  Zn74  1  0.29998037  0.81280017  0.30568440  1
  Zn  Zn75  1  0.30945814  0.84386608  0.83907663  1
  Zn  Zn76  1  0.81299617  0.30649943  0.30617615  1
  Zn  Zn77  1  0.68814326  0.27704156  0.78363913  1
  Zn  Zn78  1  0.84464457  0.79917959  0.33795474  1
  Zn  Zn79  1  0.79211749  0.78609685  0.70258122  1
  Zn  Zn80  1  0.18097266  0.43809657  0.43072721  1
  Zn  Zn81  1  0.15391261  0.43039301  0.94958953  1
  Zn  Zn82  1  0.19240822  0.93431727  0.45795706  1
  Zn  Zn83  1  0.18863021  0.93712104  0.93059975  1
  Zn  Zn84  1  0.69302973  0.43558085  0.42502078  1
  Zn  Zn85  1  0.62348108  0.49936740  1.10808834  1
  Zn  Zn86  1  0.69644175  0.94506231  0.46603429  1
  Zn  Zn87  1  0.62326459  0.94337927  0.97016967  1
  Zn  Zn88  1  0.31925065  0.11460668  0.06305805  1
  Zn  Zn89  1  0.31458882  0.06556394  0.55684347  1
  Zn  Zn90  1  0.29541469  0.56025228  0.04973533  1
  Zn  Zn91  1  0.32018585  0.54958572  0.55622911  1
  Zn  Zn92  1  0.83324278  0.04186709  0.08486819  1
  Zn  Zn93  1  0.80591197  0.04482407  0.55839190  1
  Zn  Zn94  1  0.80785461  0.56865643  0.08603713  1
  Zn  Zn95  1  0.80875186  0.56054033  0.55685298  1
  Zn  Zn96  1  0.43350469  0.43484617  0.19512612  1
  Zn  Zn97  1  0.45818075  0.49678915  0.76868563  1
  Zn  Zn98  1  0.44699256  0.94299501  0.27994276  1
  Zn  Zn99  1  0.43369436  0.95668038  0.68174493  1
  Zn  Zn100  1  0.93446852  0.42857554  0.17743751  1
  Zn  Zn101  1  0.93076045  0.44135824  0.68184023  1
  Zn  Zn102  1  0.93636466  0.93078656  0.20450487  1
  Zn  Zn103  1  0.95645756  0.92401425  0.65448575  1
  Zn  Zn104  1  0.07119643  0.04562173  0.32211623  1
  Zn  Zn105  1  0.06063577  0.05681782  0.80002145  1
  Zn  Zn106  1  0.06827810  0.55522359  0.31117096  1
  Zn  Zn107  1  0.09512540  0.57860560  0.78243687  1
  Zn  Zn108  1  0.58799019  0.06025502  0.28443077  1
  Zn  Zn109  1  0.66371396  0.07970846  0.79705699  1
  Zn  Zn110  1  0.54876958  0.58602474  0.33043885  1
  Zn  Zn111  1  0.54296109  0.62845370  0.83277892  1
  Zn  Zn112  1  0.43452259  0.18900956  0.43101709  1
  Zn  Zn113  1  0.43664207  0.19332509  0.92853333  1
  Zn  Zn114  1  0.43269635  0.68143871  0.43651449  1
  Zn  Zn115  1  0.48509494  0.73961282  1.02461530  1
  Zn  Zn116  1  0.94279192  0.18926003  0.44525471  1
  Zn  Zn117  1  0.93974513  0.17542087  0.95781421  1
  Zn  Zn118  1  0.95611439  0.68470952  0.42810448  1
  Zn  Zn119  1  0.93107132  0.65296068  0.96406225  1
  Zn  Zn120  1  0.07159002  0.29603113  0.06386999  1
  Zn  Zn121  1  0.05598719  0.29739876  0.56743783  1
  Zn  Zn122  1  0.05507103  0.79183788  0.03888338  1
  Zn  Zn123  1  0.07322832  0.80977568  0.56145920  1
  Zn  Zn124  1  0.54378668  0.33496959  0.07174333  1
  Zn  Zn125  1  0.56225267  0.32284865  0.55958002  1
  Zn  Zn126  1  0.64655298  0.80423829  0.11606771  1
  Zn  Zn127  1  0.49144936  0.81487933  0.58920275  1
  O  O128  1  0.12954800  0.12586521  0.10957279  1
  O  O129  1  0.12770403  0.12720045  0.60994501  1
  O  O130  1  0.14449284  0.64045313  0.10772697  1
  O  O131  1  0.12049445  0.63168942  0.60604942  1
  O  O132  1  0.62661047  0.08695609  0.16564857  1
  O  O133  1  0.61242749  0.13046496  0.60420642  1
  O  O134  1  0.63633813  0.61533568  0.12170252  1
  O  O135  1  0.63896600  0.60421296  0.62213594  1
  O  O136  1  0.38828072  0.36949869  0.36556701  1
  O  O137  1  0.34470683  0.35772221  0.91165701  1
  O  O138  1  0.36145809  0.88180576  0.37751885  1
  O  O139  1  0.42515153  0.88554707  0.84275864  1
  O  O140  1  0.89496330  0.36210535  0.38499055  1
  O  O141  1  0.86116863  0.38636468  0.91690258  1
  O  O142  1  0.90970143  0.79322895  0.44283576  1
  O  O143  1  0.89468050  0.87150027  0.85813006  1
  O  O144  1  0.24454829  0.01065553  0.38536137  1
  O  O145  1  0.24122360  0.01567262  0.84979595  1
  O  O146  1  0.24472764  0.50568309  0.36064203  1
  O  O147  1  0.22957605  0.47866323  0.87431827  1
  O  O148  1  0.75547065  0.01503538  0.39241215  1
  O  O149  1  0.73743294  0.07444180  0.94515689  1
  O  O150  1  0.76370639  0.51886533  0.38848753  1
  O  O151  1  0.80323675  0.42733449  0.90498816  1
  O  O152  1  0.25233294  0.49001278  0.13200317  1
  O  O153  1  0.24122015  0.48233768  0.61784154  1
  O  O154  1  0.25903956  1.01449835  0.13359734  1
  O  O155  1  0.26303883  0.99261349  0.63196614  1
  O  O156  1  0.75161048  0.47626953  0.11974985  1
  O  O157  1  0.73909332  0.48814113  0.61220407  1
  O  O158  1  0.77278052  0.98244524  0.16200830  1
  O  O159  1  0.71664197  0.97729461  0.58451202  1
  O  O160  1  -0.00319358  0.37963135  0.26103356  1
  O  O161  1  -0.00286463  0.36464290  0.73602252  1
  O  O162  1  0.02404866  0.86442977  0.24917894  1
  O  O163  1  0.01347989  0.86445171  0.73782544  1
  O  O164  1  0.51957573  0.38456959  0.26521534  1
  O  O165  1  0.46644757  0.38651559  0.74586872  1
  O  O166  1  0.48363532  0.83847056  0.26345927  1
  O  O167  1  0.47226712  0.89612111  0.78364376  1
  O  O168  1  0.48875498  0.11827656  0.28337569  1
  O  O169  1  0.48459213  0.14411975  0.72871937  1
  O  O170  1  0.49285184  0.61059097  0.23326803  1
  O  O171  1  0.50620183  0.59372900  0.73137296  1
  O  O172  1  0.99993011  0.11918699  0.26847785  1
  O  O173  1  0.97927492  0.12000388  0.75013665  1
  O  O174  1  1.00327954  0.63233831  0.25233950  1
  O  O175  1  1.01108807  0.63512710  0.72905977  1
  O  O176  1  0.38990208  0.21396629  0.02499729  1
  O  O177  1  0.35549500  0.24570560  0.50058094  1
  O  O178  1  0.38044028  0.75237240  -0.01585274  1
  O  O179  1  0.39302799  0.77452462  0.49213085  1
  O  O180  1  0.86267136  0.21745930  0.02764951  1
  O  O181  1  0.88100797  0.26295882  0.50710832  1
  O  O182  1  0.87874484  0.73650461  0.02575763  1
  O  O183  1  0.85828733  0.79466319  0.51024035  1
  O  O184  1  0.12841565  0.23490652  0.49303425  1
  O  O185  1  0.11547969  0.21979626  0.98150769  1
  O  O186  1  0.12174738  0.73469421  0.48671362  1
  O  O187  1  0.15439683  0.76052346  0.97176008  1
  O  O188  1  0.61400522  0.23787283  0.48661781  1
  O  O189  1  0.59492952  0.25212287  0.99849060  1
  O  O190  1  0.60820803  0.81064116  0.35240750  1
  O  O191  1  0.60213463  0.74086593  1.02896710  1
  O  O192  1  0.49216414  0.25503777  0.13405156  1
  O  O193  1  0.48294767  0.25363013  0.61314179  1
  O  O194  1  0.47898040  0.72237850  0.14157788  1
  O  O195  1  0.52510596  0.71939558  0.63504914  1
  O  O196  1  0.98198530  0.26108493  0.11908554  1
  O  O197  1  0.99281116  0.21489787  0.61767681  1
  O  O198  1  1.01578504  0.74755179  0.14049531  1
  O  O199  1  1.00496520  0.73954716  0.62729765  1
  O  O200  1  0.01289165  0.25783086  0.38015124  1
  O  O201  1  0.00276313  0.23109146  0.87874063  1
  O  O202  1  0.03184447  0.74267963  0.35667321  1
  O  O203  1  0.01220150  0.76245439  0.84896048  1
  O  O204  1  0.50947591  0.25801466  0.37345930  1
  O  O205  1  0.47120254  0.27077731  0.85418184  1
  O  O206  1  0.49819748  0.70055053  0.34625722  1
  O  O207  1  0.53384465  0.75123283  0.81751227  1
  O  O208  1  0.23940096  0.12963000  0.49141011  1
  O  O209  1  0.23358170  0.11268738  0.97612936  1
  O  O210  1  0.23922952  0.61431842  0.49849330  1
  O  O211  1  0.24977555  0.65154094  0.99101761  1
  O  O212  1  0.73253886  0.12526384  0.49404268  1
  O  O213  1  0.73018971  0.05624929  1.02123408  1
  O  O214  1  0.75958800  0.64078242  0.49263615  1
  O  O215  1  0.74484662  0.63188848  1.00869586  1
  O  O216  1  0.30112434  0.36055697  -0.02907006  1
  O  O217  1  0.22531101  0.36312157  0.51113914  1
  O  O218  1  0.27272776  0.86065059  -0.05087500  1
  O  O219  1  0.27289675  0.87896804  0.51914015  1
  O  O220  1  0.73479579  0.35040314  0.02660115  1
  O  O221  1  0.76986055  0.37394739  0.48191406  1
  O  O222  1  0.78030717  0.88722832  -0.01697401  1
  O  O223  1  0.69573136  0.83388175  0.48334378  1
  O  O224  1  0.13813586  0.49482569  0.24680780  1
  O  O225  1  0.11256640  0.46816213  0.76402072  1
  O  O226  1  0.13700567  0.98449169  0.24746038  1
  O  O227  1  0.13322517  0.98597625  0.73815316  1
  O  O228  1  0.63065772  0.49900126  0.26451964  1
  O  O229  1  0.72487895  0.52959362  0.81548832  1
  O  O230  1  0.66046558  0.97208235  0.27802758  1
  O  O231  1  0.63159295  1.00367650  0.71982108  1
  O  O232  1  0.35559768  0.01177384  0.26187774  1
  O  O233  1  0.36598860  0.02344301  0.74425108  1
  O  O234  1  0.35127940  0.48327754  0.26454628  1
  O  O235  1  0.34305316  0.50057161  0.76660149  1
  O  O236  1  0.88266448  0.01677704  0.26352187  1
  O  O237  1  0.84598355  0.00627511  0.76238461  1
  O  O238  1  0.89223713  0.51436925  0.24064291  1
  O  O239  1  0.88412383  0.50722508  0.77267076  1
  O  O240  1  0.11458927  0.35841826  0.37701481  1
  O  O241  1  0.11098865  0.34982881  0.86553133  1
  O  O242  1  0.14534784  0.85790043  0.38783072  1
  O  O243  1  0.12938633  0.86426712  0.84982958  1
  O  O244  1  0.62411511  0.35992758  0.36485829  1
  O  O245  1  0.62283366  0.28892889  0.93466723  1
  O  O246  1  0.64899698  0.80727605  0.29255947  1
  O  O247  1  0.62865750  0.85530367  0.89908301  1
  O  O248  1  0.40510219  0.11245191  0.15121097  1
  O  O249  1  0.37819386  0.13897724  0.62335283  1
  O  O250  1  0.36492801  0.60635560  0.13364606  1
  O  O251  1  0.38520202  0.60826945  0.62589100  1
  O  O252  1  0.88060003  0.12734381  0.15012662  1
  O  O253  1  0.85108313  0.12154293  0.63226451  1
  O  O254  1  0.86818361  0.64444204  0.15237452  1
  O  O255  1  0.88936672  0.62515426  0.61675230  1
  O  O256  1  0.28110468  0.20971864  0.12233090  1
  O  O257  1  0.25066443  0.25247740  0.61347210  1
  O  O258  1  0.26700612  0.77204015  0.09922148  1
  O  O259  1  0.27190721  0.75533589  0.63530705  1
  O  O260  1  0.76239107  0.25416927  0.14697728  1
  O  O261  1  0.73457139  0.27937240  0.60903918  1
  O  O262  1  0.75425079  0.75849908  0.13695498  1
  O  O263  1  0.74260441  0.74640628  0.60688558  1
  O  O264  1  0.23565243  0.24749580  0.38153438  1
  O  O265  1  0.23218653  0.23334582  0.86603954  1
  O  O266  1  0.24096489  0.73093584  0.36937883  1
  O  O267  1  0.24537467  0.74285984  0.84168552  1
  O  O268  1  0.73582822  0.23615105  0.37001803  1
  O  O269  1  0.68185972  0.25014006  0.89907027  1
  O  O270  1  0.76744071  0.73513236  0.39169589  1
  O  O271  1  0.77702989  0.82543601  0.94536914  1
  O  O272  1  0.01405442  0.09966352  -0.00292049  1
  O  O273  1  0.01321991  0.10991715  0.48900466  1
  O  O274  1  0.03370521  0.67655072  0.00167040  1
  O  O275  1  0.00722065  0.61620541  0.50537131  1
  O  O276  1  0.54344724  0.12813905  -0.08501597  1
  O  O277  1  0.49956878  0.11886954  0.49791455  1
  O  O278  1  0.49262834  0.61865974  0.02606082  1
  O  O279  1  0.49233349  0.62582994  0.51391148  1
  O  O280  1  0.50868374  0.37932357  0.47379044  1
  O  O281  1  0.51191945  0.41190311  0.99517942  1
  O  O282  1  0.48650799  0.89355842  0.49625729  1
  O  O283  1  0.43038980  0.91071682  1.01411102  1
  O  O284  1  0.99521633  0.38271775  0.51180400  1
  O  O285  1  0.95417532  0.48491328  1.02025658  1
  O  O286  1  1.00421354  0.89866211  0.54698567  1
  O  O287  1  1.00801126  0.87821583  0.97795808  1
  O  O288  1  0.47697782  0.49862530  0.36916420  1
  O  O289  1  0.49451400  0.53240875  0.88079525  1
  O  O290  1  0.50101782  0.99570964  0.37582510  1
  O  O291  1  0.54864532  1.08258047  0.85499631  1
  O  O292  1  1.01193483  0.47942462  0.38822298  1
  O  O293  1  0.92747314  0.54068321  0.83032812  1
  O  O294  1  1.01373902  0.97727926  0.39691966  1
  O  O295  1  1.00806080  0.98016559  0.86575655  1
  O  O296  1  0.00069638  -0.02155493  0.11210463  1
  O  O297  1  -0.01340022  0.03186152  0.61809723  1
  O  O298  1  -0.00950205  0.48912543  0.08886483  1
  O  O299  1  -0.00022706  0.51351804  0.61402693  1
  O  O300  1  0.51009892  -0.02321234  0.18378623  1
  O  O301  1  0.50517057  0.01920160  0.61669434  1
  O  O302  1  0.49731743  0.50299360  0.12017006  1
  O  O303  1  0.52133110  0.50797436  0.61031365  1
  O  O304  1  0.23855503  0.36911236  0.24413857  1
  O  O305  1  0.23622450  0.38163686  0.73789868  1
  O  O306  1  0.24370872  0.88787009  0.24099689  1
  O  O307  1  0.25661322  0.88441758  0.73953651  1
  O  O308  1  0.73306965  0.37250281  0.25492014  1
  O  O309  1  0.74074727  0.37092855  0.73851034  1
  O  O310  1  0.79733764  0.88816738  0.29219999  1
  O  O311  1  0.80529204  0.94690688  0.74303960  1
  O  O312  1  0.23944357  0.10736907  0.26479881  1
  O  O313  1  0.25327456  0.12451530  0.74483798  1
  O  O314  1  0.24414244  0.62160781  0.25454494  1
  O  O315  1  0.21032214  0.58825749  0.74529393  1
  O  O316  1  0.75714734  0.10638156  0.27246465  1
  O  O317  1  0.71691601  0.16877248  0.75933747  1
  O  O318  1  0.77451702  0.63031592  0.27160718  1
  O  O319  1  0.74622396  0.59497018  0.79288905  1
  O  O320  1  0.35133263  0.13489721  0.36983025  1
  O  O321  1  0.35512467  0.13820799  0.85856488  1
  O  O322  1  0.35357936  0.60857825  0.38047944  1
  O  O323  1  0.38542482  0.67656424  0.77980666  1
  O  O324  1  0.86501022  0.13786427  0.37474070  1
  O  O325  1  0.85008092  0.16260671  0.86294274  1
  O  O326  1  0.88706091  0.62252264  0.36315867  1
  O  O327  1  0.89640121  0.60993013  0.85583018  1
  O  O328  1  0.13307068  0.38153442  0.04572743  1
  O  O329  1  0.12759095  0.35738713  0.63993137  1
  O  O330  1  0.12662854  0.86836990  0.12245154  1
  O  O331  1  0.15730294  0.85946248  0.62929141  1
  O  O332  1  0.62852837  0.38280335  0.14383554  1
  O  O333  1  0.63201489  0.39484938  0.61327937  1
  O  O334  1  0.63836936  0.91293511  0.09050684  1
  O  O335  1  0.58482157  0.88414130  0.62696807  1
  O  O336  1  0.12707210  0.23840255  0.26441996  1
  O  O337  1  0.11573191  0.25304879  0.75863958  1
  O  O338  1  0.13487612  0.76530296  0.25098492  1
  O  O339  1  0.12373853  0.75485605  0.74578936  1
  O  O340  1  0.62276652  0.23650433  0.25992426  1
  O  O341  1  0.58337518  0.27927272  0.74066842  1
  O  O342  1  0.61268898  0.75182203  0.22237170  1
  O  O343  1  0.68778688  0.76473633  0.75873595  1
  O  O344  1  0.37263145  0.23002905  0.24332480  1
  O  O345  1  0.37127663  0.24971929  0.73084260  1
  O  O346  1  0.36613420  0.73573376  0.25675045  1
  O  O347  1  0.38710117  0.74595370  0.75896237  1
  O  O348  1  0.88109732  0.23196627  0.24954832  1
  O  O349  1  0.85104028  0.22252605  0.82056470  1
  O  O350  1  0.90484326  0.74757154  0.25157184  1
  O  O351  1  0.89357011  0.74822919  0.74303603  1
  O  O352  1  0.35041228  0.47928288  0.47153967  1
  O  O353  1  0.38183853  0.50634159  0.99414597  1
  O  O354  1  0.38647566  0.99767096  0.49576298  1
  O  O355  1  0.37436927  1.02831386  0.99632205  1
  O  O356  1  0.89329305  0.49230100  0.49786912  1
  O  O357  1  0.89585436  0.54342738  1.00728605  1
  O  O358  1  0.88905520  0.99975323  0.49616480  1
  O  O359  1  0.89841592  1.00315149  0.99857113  1
  O  O360  1  0.11974182  0.00365927  -0.00626880  1
  O  O361  1  0.12229575  0.01006878  0.50552960  1
  O  O362  1  0.12382941  0.53895205  -0.01571412  1
  O  O363  1  0.11422356  0.51021504  0.49701771  1
  O  O364  1  0.55270075  0.02053818  0.02655211  1
  O  O365  1  0.60211828  0.01217530  0.49903935  1
  O  O366  1  0.61327924  0.53882648  -0.00806936  1
  O  O367  1  0.62734383  0.50681292  0.48686983  1
  O  O368  1  0.37499319  0.35526936  0.13064369  1
  O  O369  1  0.34665820  0.36512535  0.61925835  1
  O  O370  1  0.38677233  0.96409124  0.04318781  1
  O  O371  1  0.38280743  0.86862937  0.62800951  1
  O  O372  1  0.86086477  0.35645124  0.13143032  1
  O  O373  1  0.85530371  0.38650670  0.61292956  1
  O  O374  1  0.88671937  0.85221986  0.13607712  1
  O  O375  1  0.84178714  0.89515240  0.67859609  1
  O  O376  1  0.13434568  0.13094939  0.38393080  1
  O  O377  1  0.13028761  0.12841325  0.85977535  1
  O  O378  1  0.13781986  0.62441037  0.38291110  1
  O  O379  1  0.11818125  0.64769246  0.87136545  1
  O  O380  1  0.63114096  0.12995933  0.38020133  1
  O  O381  1  0.69222659  0.02194800  0.89778036  1
  O  O382  1  0.64791196  0.62664220  0.36874988  1
  O  O383  1  0.63516680  0.67120770  0.89697047  1
