# generated using pymatgen
data_VZnO4
_symmetry_space_group_name_H-M   'P 1'
_cell_length_a   17.02782455
_cell_length_b   17.04818442
_cell_length_c   16.97963457
_cell_angle_alpha   90.21908503
_cell_angle_beta   89.29191778
_cell_angle_gamma   89.52529717
_symmetry_Int_Tables_number   1
_chemical_formula_structural   VZnO4
_chemical_formula_sum   'V64 Zn64 O256'
_cell_volume   4928.49387718
_cell_formula_units_Z   64
loop_
 _symmetry_equiv_pos_site_id
 _symmetry_equiv_pos_as_xyz
  1  'x, y, z'
loop_
 _atom_site_type_symbol
 _atom_site_label
 _atom_site_symmetry_multiplicity
 _atom_site_fract_x
 _atom_site_fract_y
 _atom_site_fract_z
 _atom_site_occupancy
  V  V0  1  0.17137986  0.50308645  0.12355344  1
  V  V1  1  0.61214149  0.00244237  0.62172131  1
  V  V2  1  0.50495283  0.52516546  0.00406929  1
  V  V3  1  0.86044672  0.09993129  0.74997003  1
  V  V4  1  -0.01943851  0.88357680  0.87157318  1
  V  V5  1  0.13284183  0.73654459  0.37916646  1
  V  V6  1  0.75472332  0.75549196  0.49986367  1
  V  V7  1  0.14253687  0.00552752  0.62831139  1
  V  V8  1  0.63526695  -0.00176187  0.11673747  1
  V  V9  1  0.24304384  0.76678401  -0.01437778  1
  V  V10  1  -0.01236515  0.11744601  0.62462619  1
  V  V11  1  0.36295470  -0.00430348  0.85837688  1
  V  V12  1  0.61967359  0.75421161  0.87958347  1
  V  V13  1  0.76247081  0.61991602  0.36678945  1
  V  V14  1  0.87299125  0.25159846  0.14245106  1
  V  V15  1  0.73068329  0.25708019  0.50800157  1
  V  V16  1  0.35989797  0.75164738  0.12163637  1
  V  V17  1  0.88236310  0.63083417  0.74284256  1
  V  V18  1  -0.03165369  0.27451676  0.78793981  1
  V  V19  1  0.13615771  0.86548347  0.75586912  1
  V  V20  1  0.27366865  0.12082317  0.35573927  1
  V  V21  1  0.14139127  0.87416581  0.24968335  1
  V  V22  1  0.36957750  0.61691525  0.25560780  1
  V  V23  1  0.49685104  0.00521601  0.49838660  1
  V  V24  1  0.26720574  0.54478789  0.76622086  1
  V  V25  1  0.87483859  0.26362854  0.61117648  1
  V  V26  1  0.36667535  0.86544844  0.51218458  1
  V  V27  1  -0.00667424  0.87215172  0.37705320  1
  V  V28  1  0.74618340  0.88110499  0.62491574  1
  V  V29  1  0.49320251  0.73788737  0.74035388  1
  V  V30  1  0.72416162  0.11801336  0.87412196  1
  V  V31  1  0.24781693  0.73324237  0.50990242  1
  V  V32  1  0.63566233  0.23665643  0.36459830  1
  V  V33  1  0.12985001  0.12857504  0.49603106  1
  V  V34  1  0.38475142  0.89268541  0.00736145  1
  V  V35  1  0.88075430  0.49740030  0.40305495  1
  V  V36  1  0.15241485  0.41776312  0.74492631  1
  V  V37  1  0.74931375  0.63279712  0.86150955  1
  V  V38  1  0.63720038  0.87628224  0.24782041  1
  V  V39  1  0.87560824  0.88629109  0.02458236  1
  V  V40  1  0.88488457  0.75838979  0.62117760  1
  V  V41  1  0.14299309  0.35192026  0.24796182  1
  V  V42  1  0.53274454  0.36577965  0.88413490  1
  V  V43  1  0.62680665  0.74857243  0.37574060  1
  V  V44  1  0.75705721  0.01358615  0.26656177  1
  V  V45  1  0.01869627  0.37658900  0.39008069  1
  V  V46  1  0.49121152  0.87382204  0.37550119  1
  V  V47  1  0.49202201  0.24797159  0.25196502  1
  V  V48  1  0.37948990  0.25927589  0.11282706  1
  V  V49  1  0.46935194  0.23153804  0.75230386  1
  V  V50  1  0.74373136  0.49678950  0.73523909  1
  V  V51  1  -0.01444062  -0.00576833  0.49299729  1
  V  V52  1  0.20542624  0.23182993  -0.05224294  1
  V  V53  1  0.76743886  0.75027520  -0.00068453  1
  V  V54  1  0.61452656  0.87647003  0.75190167  1
  V  V55  1  -0.00475312  0.73884208  0.23875280  1
  V  V56  1  0.64484994  0.49334078  0.11471002  1
  V  V57  1  0.50366135  0.11652808  0.12488267  1
  V  V58  1  0.10585595  -0.00215008  0.12650355  1
  V  V59  1  0.61864349  0.61602350  0.50602798  1
  V  V60  1  0.37287788  0.34748995  0.49465185  1
  V  V61  1  0.50370557  0.74595085  0.23689145  1
  V  V62  1  0.51443868  0.38286401  0.37820404  1
  V  V63  1  0.00861008  0.61159060  0.61363409  1
  Zn  Zn64  1  0.20101092  0.17709913  0.17331074  1
  Zn  Zn65  1  0.14619359  0.15819840  0.75771700  1
  Zn  Zn66  1  0.18144634  0.67927190  0.18818135  1
  Zn  Zn67  1  0.18107844  0.69709615  0.69229667  1
  Zn  Zn68  1  0.69090288  0.18504730  0.17803744  1
  Zn  Zn69  1  0.71284033  0.15884028  0.64831782  1
  Zn  Zn70  1  0.69984626  0.68667121  0.18645649  1
  Zn  Zn71  1  0.68037248  0.69015642  0.68478501  1
  Zn  Zn72  1  0.31964346  0.31170800  0.31859055  1
  Zn  Zn73  1  0.31494859  0.32324621  0.82594873  1
  Zn  Zn74  1  0.31381479  0.79874095  0.31735275  1
  Zn  Zn75  1  0.31607252  0.82019495  0.81277146  1
  Zn  Zn76  1  0.84566947  0.29144035  0.35799495  1
  Zn  Zn77  1  0.77923570  0.29171755  0.77406078  1
  Zn  Zn78  1  0.81874282  0.81172733  0.31223592  1
  Zn  Zn79  1  0.80900786  0.81681614  0.80544250  1
  Zn  Zn80  1  0.18683065  0.28614884  0.43940768  1
  Zn  Zn81  1  0.20269230  0.42538436  0.92452655  1
  Zn  Zn82  1  0.18210897  0.93761518  0.43137906  1
  Zn  Zn83  1  0.19069070  0.94527684  0.93957654  1
  Zn  Zn84  1  0.68626173  0.43049035  0.44062462  1
  Zn  Zn85  1  0.66635062  0.46464171  0.91166478  1
  Zn  Zn86  1  0.68347690  0.93788372  0.43752768  1
  Zn  Zn87  1  0.70404138  0.93523256  0.93152478  1
  Zn  Zn88  1  0.35176272  0.10901961  0.01513151  1
  Zn  Zn89  1  0.29352855  0.03639195  0.50939157  1
  Zn  Zn90  1  0.33740565  0.56358380  0.06896819  1
  Zn  Zn91  1  0.19015345  0.55848521  0.57825522  1
  Zn  Zn92  1  0.79930417  0.06511970  0.06249276  1
  Zn  Zn93  1  0.81021721  0.06478843  0.54070763  1
  Zn  Zn94  1  0.80841405  0.54396207  0.01923745  1
  Zn  Zn95  1  0.80633849  0.57242547  0.56260552  1
  Zn  Zn96  1  0.45349490  0.43607934  0.18308227  1
  Zn  Zn97  1  0.32819668  0.43101202  0.66718140  1
  Zn  Zn98  1  0.45304362  0.92522628  0.17780140  1
  Zn  Zn99  1  0.43385555  0.92929821  0.68524220  1
  Zn  Zn100  1  0.98436112  0.40986154  0.17885868  1
  Zn  Zn101  1  0.93382215  0.44521183  0.68911018  1
  Zn  Zn102  1  0.93691875  0.93195841  0.19902962  1
  Zn  Zn103  1  0.93659788  0.93138024  0.68083416  1
  Zn  Zn104  1  0.08173337  0.05067638  0.31948980  1
  Zn  Zn105  1  0.03980899  0.01986435  0.79612971  1
  Zn  Zn106  1  0.06344175  0.55352799  0.30464644  1
  Zn  Zn107  1  0.06147919  0.55933372  0.85027085  1
  Zn  Zn108  1  0.56529609  0.06343778  0.31304601  1
  Zn  Zn109  1  0.55414628  0.06645273  0.80932607  1
  Zn  Zn110  1  0.56338426  0.57002142  0.31399450  1
  Zn  Zn111  1  0.55654375  0.55563416  0.80873142  1
  Zn  Zn112  1  0.43935239  0.18457334  0.42685775  1
  Zn  Zn113  1  0.49483905  0.21431271  0.95346491  1
  Zn  Zn114  1  0.43490258  0.68574097  0.43604290  1
  Zn  Zn115  1  0.43739525  0.69739500  0.94028150  1
  Zn  Zn116  1  0.97098449  0.20962275  0.45995218  1
  Zn  Zn117  1  0.84762813  0.20848006  0.92985436  1
  Zn  Zn118  1  0.94275850  0.68729443  0.43453314  1
  Zn  Zn119  1  0.95162372  0.70022253  0.91796412  1
  Zn  Zn120  1  0.09280067  0.36244596  0.04362494  1
  Zn  Zn121  1  0.06201730  0.31564262  0.58224414  1
  Zn  Zn122  1  0.06001829  0.82076368  0.05923350  1
  Zn  Zn123  1  0.07590701  0.82398455  0.56444987  1
  Zn  Zn124  1  0.58841426  0.30989476  0.08069409  1
  Zn  Zn125  1  0.52476823  0.28432297  0.55568381  1
  Zn  Zn126  1  0.56871620  0.82168253  0.05664267  1
  Zn  Zn127  1  0.55996461  0.80649559  0.56287261  1
  O  O128  1  0.14047979  0.09171333  0.13450537  1
  O  O129  1  0.10061612  0.11459575  0.61239094  1
  O  O130  1  0.15505091  0.60327164  0.10804876  1
  O  O131  1  0.11066288  0.63038554  0.62565424  1
  O  O132  1  0.62078656  0.10078697  0.14052574  1
  O  O133  1  0.61650586  0.09944534  0.63432037  1
  O  O134  1  0.62479556  0.60148040  0.16092545  1
  O  O135  1  0.62754439  0.63241347  0.60494611  1
  O  O136  1  0.39468865  0.36631261  0.38858962  1
  O  O137  1  0.41934383  0.38898614  0.85090346  1
  O  O138  1  0.39052459  0.86847926  0.37262301  1
  O  O139  1  0.37594266  0.89399545  0.89092295  1
  O  O140  1  0.86183094  0.40407490  0.36976940  1
  O  O141  1  0.81238656  0.35810420  0.93546237  1
  O  O142  1  0.89474264  0.86846733  0.37829349  1
  O  O143  1  0.87883090  0.88296024  0.86332970  1
  O  O144  1  0.25066578  0.02449962  0.39956709  1
  O  O145  1  0.26693054  0.01285340  0.88433317  1
  O  O146  1  0.19589018  0.50919555  0.41687884  1
  O  O147  1  0.24152661  0.50930021  0.85916554  1
  O  O148  1  0.74447884  -0.00346159  0.36718710  1
  O  O149  1  0.73586770  0.01634372  0.86260284  1
  O  O150  1  0.76018622  0.51706932  0.37902097  1
  O  O151  1  0.74891992  0.52878100  0.86260196  1
  O  O152  1  0.27084579  0.49560421  0.12813393  1
  O  O153  1  0.22830670  0.50334341  0.66907544  1
  O  O154  1  0.30102123  0.99585735  0.18599688  1
  O  O155  1  0.23924796  1.00678029  0.61137181  1
  O  O156  1  0.74688794  0.50741661  0.10218724  1
  O  O157  1  0.75056873  0.50780133  0.63543989  1
  O  O158  1  0.73653132  1.00153264  0.14198308  1
  O  O159  1  0.73102847  0.98365001  0.60818350  1
  O  O160  1  0.03243590  0.38165028  0.27086664  1
  O  O161  1  -0.03587002  0.37305123  0.76933528  1
  O  O162  1  0.00968480  0.86515862  0.26689514  1
  O  O163  1  0.01164324  0.90454709  0.76037020  1
  O  O164  1  0.50201564  0.35669489  0.26118545  1
  O  O165  1  0.47142273  0.38178528  0.78665852  1
  O  O166  1  0.51036932  0.86710768  0.26148915  1
  O  O167  1  0.51241462  0.86362113  0.74660330  1
  O  O168  1  0.51015966  0.13847983  0.24541805  1
  O  O169  1  0.48848959  0.13318785  0.74662864  1
  O  O170  1  0.49865881  0.64621953  0.25463162  1
  O  O171  1  0.50388598  0.63870002  0.75875446  1
  O  O172  1  0.97215094  0.10944487  0.28961994  1
  O  O173  1  0.98156332  0.10092039  0.72711100  1
  O  O174  1  1.00627360  0.64023665  0.25601895  1
  O  O175  1  0.98287644  0.63403814  0.72983646  1
  O  O176  1  0.39445671  0.23360089  0.01270625  1
  O  O177  1  0.41319734  0.25263085  0.51561779  1
  O  O178  1  0.37233760  0.76406211  0.01181461  1
  O  O179  1  0.35909027  0.75670021  0.49117194  1
  O  O180  1  0.87045702  0.24536940  0.03801069  1
  O  O181  1  0.86475415  0.24380313  0.50837270  1
  O  O182  1  0.86948370  0.74984147  -0.00738454  1
  O  O183  1  0.86049279  0.74845267  0.50571267  1
  O  O184  1  0.10438470  0.23380695  0.50435168  1
  O  O185  1  0.12366851  0.26552216  1.00134933  1
  O  O186  1  0.13738612  0.75929193  0.48908371  1
  O  O187  1  0.14542644  0.76435165  1.00618470  1
  O  O188  1  0.62764640  0.25321155  0.50636192  1
  O  O189  1  0.66708733  0.23013265  1.07522951  1
  O  O190  1  0.63361274  0.74744246  0.48890083  1
  O  O191  1  0.63750311  0.76689051  0.98167469  1
  O  O192  1  0.50488703  0.24261534  0.14179359  1
  O  O193  1  0.50161913  0.27185285  0.66448250  1
  O  O194  1  0.51176516  0.75636178  0.13703214  1
  O  O195  1  0.50255642  0.74721466  0.63967258  1
  O  O196  1  0.97041042  0.22881752  0.15519705  1
  O  O197  1  0.98500758  0.22608964  0.60862069  1
  O  O198  1  1.01184410  0.75240828  0.14073738  1
  O  O199  1  0.98383884  0.76644092  0.61317014  1
  O  O200  1  -0.03632048  0.28536667  0.37874177  1
  O  O201  1  -0.05880465  0.25852177  0.88389227  1
  O  O202  1  0.01409576  0.76081955  0.38084264  1
  O  O203  1  0.00757383  0.78530095  0.86904906  1
  O  O204  1  0.51505808  0.25103437  0.36417626  1
  O  O205  1  0.51617708  0.25789311  0.85014266  1
  O  O206  1  0.51049305  0.75985402  0.36568922  1
  O  O207  1  0.51754267  0.75061269  0.87411106  1
  O  O208  1  0.22928475  0.13469081  0.51108097  1
  O  O209  1  0.25124218  0.15695329  0.99839076  1
  O  O210  1  0.24982734  0.63445812  0.51120286  1
  O  O211  1  0.28553570  0.64274629  0.98107650  1
  O  O212  1  0.73822672  0.14668889  0.53077901  1
  O  O213  1  0.76351348  0.12511244  0.97256857  1
  O  O214  1  0.74218684  0.64096678  0.48967472  1
  O  O215  1  0.76448835  0.63930997  0.97007956  1
  O  O216  1  0.26106081  0.32120170  -0.07301425  1
  O  O217  1  0.27404641  0.33691867  0.49139807  1
  O  O218  1  0.26617930  0.86905465  -0.00012760  1
  O  O219  1  0.26786359  0.88042260  0.49142433  1
  O  O220  1  0.76713588  0.39917197  -0.02230649  1
  O  O221  1  0.74428044  0.35764766  0.50599638  1
  O  O222  1  0.76943873  0.86062575  -0.00877385  1
  O  O223  1  0.73957901  0.86178593  0.50734642  1
  O  O224  1  0.12652068  0.50378787  0.22327090  1
  O  O225  1  0.11012555  0.51409240  0.76403959  1
  O  O226  1  0.13063477  0.98154623  0.24611739  1
  O  O227  1  0.13381468  1.03659157  0.73270594  1
  O  O228  1  0.63342311  0.54043285  0.22024817  1
  O  O229  1  0.64346232  0.50436499  0.75407073  1
  O  O230  1  0.63314032  0.98318472  0.25578833  1
  O  O231  1  0.60704676  0.98371437  0.73688991  1
  O  O232  1  0.35342503  -0.01648778  0.23489919  1
  O  O233  1  0.37270158  -0.01107432  0.75892948  1
  O  O234  1  0.39588399  0.52210881  0.23513699  1
  O  O235  1  0.36275252  0.52005079  0.74648424  1
  O  O236  1  0.85421981  -0.00953414  0.24994696  1
  O  O237  1  0.86006087  0.00206736  0.73163652  1
  O  O238  1  0.90274894  0.49878443  0.21040653  1
  O  O239  1  0.86525847  0.52811526  0.73956285  1
  O  O240  1  0.11907570  0.35287548  0.37542055  1
  O  O241  1  0.12926700  0.37707255  0.83317641  1
  O  O242  1  0.12141864  0.86712162  0.36553362  1
  O  O243  1  0.12954293  0.89340153  0.85601263  1
  O  O244  1  0.62031888  0.35834687  0.37648542  1
  O  O245  1  0.63039501  0.36950027  0.86068583  1
  O  O246  1  0.61997880  0.86291666  0.36646902  1
  O  O247  1  0.63488867  0.86812931  0.85691985  1
  O  O248  1  0.40073837  0.12995199  0.12550994  1
  O  O249  1  0.26745669  0.20166826  0.64950636  1
  O  O250  1  0.38471293  0.64937941  0.13174076  1
  O  O251  1  0.40107903  0.61700811  0.60417170  1
  O  O252  1  0.84618204  0.14902995  0.13009434  1
  O  O253  1  0.87816828  0.12208914  0.62292722  1
  O  O254  1  0.92774476  0.60227245  0.08491453  1
  O  O255  1  0.88033730  0.64386303  0.62359528  1
  O  O256  1  0.28192064  0.24496570  0.13083984  1
  O  O257  1  0.21554267  0.25664945  0.65002653  1
  O  O258  1  0.25984264  0.74827781  0.11856948  1
  O  O259  1  0.23548836  0.75633162  0.60612619  1
  O  O260  1  0.76685963  0.27483130  0.15941655  1
  O  O261  1  0.76701822  0.26044875  0.62595588  1
  O  O262  1  0.74349645  0.73543183  0.09605933  1
  O  O263  1  0.74969220  0.75841627  0.61055080  1
  O  O264  1  0.25915927  0.22464651  0.37404499  1
  O  O265  1  0.18214976  0.19125120  0.85909811  1
  O  O266  1  0.23817370  0.74565076  0.38471085  1
  O  O267  1  0.25216713  0.76078357  0.88670902  1
  O  O268  1  0.74284135  0.24747648  0.39474638  1
  O  O269  1  0.75688153  0.22641814  0.86110043  1
  O  O270  1  0.74833615  0.74852078  0.38498430  1
  O  O271  1  0.74270222  0.75044026  0.87497380  1
  O  O272  1  -0.00423749  0.09593850  0.00547373  1
  O  O273  1  0.00053656  0.10792358  0.50115064  1
  O  O274  1  -0.06379602  0.45542906  -0.05364613  1
  O  O275  1  -0.00332851  0.63191454  0.51607158  1
  O  O276  1  0.52421832  0.13373839  0.02725977  1
  O  O277  1  0.49281803  0.10201323  0.49298854  1
  O  O278  1  0.50664445  0.62456647  -0.00601643  1
  O  O279  1  0.52111353  0.63293298  0.48340881  1
  O  O280  1  0.50610372  0.37348120  0.48149175  1
  O  O281  1  0.53040326  0.33644392  0.98361791  1
  O  O282  1  0.48957000  0.86413010  0.48676308  1
  O  O283  1  0.48492856  0.87830867  1.00514729  1
  O  O284  1  1.02018324  0.37757115  0.49092532  1
  O  O285  1  0.99984171  0.41933695  1.07248357  1
  O  O286  1  1.00867645  0.88702029  0.49187486  1
  O  O287  1  0.97703711  0.86889030  0.99302489  1
  O  O288  1  0.51868473  0.48097690  0.36151445  1
  O  O289  1  0.53136720  0.48381376  0.89795594  1
  O  O290  1  0.51155253  0.98070061  0.38596401  1
  O  O291  1  0.46853411  1.02985858  0.89193608  1
  O  O292  1  0.98818569  0.48956575  0.37666621  1
  O  O293  1  0.99562323  0.45022118  0.89983912  1
  O  O294  1  1.00994493  0.98390673  0.38510545  1
  O  O295  1  1.00812435  0.98317603  0.89499908  1
  O  O296  1  0.00644507  0.00095853  0.14084989  1
  O  O297  1  -0.00612455  0.00354460  0.60601548  1
  O  O298  1  -0.00582730  0.57828403  0.06782708  1
  O  O299  1  -0.00370782  0.51403227  0.62127057  1
  O  O300  1  0.51409537  0.00836082  0.13539942  1
  O  O301  1  0.50451038  -0.01246009  0.61130035  1
  O  O302  1  0.51923060  0.49669908  0.10640060  1
  O  O303  1  0.45037594  0.56715500  0.61900057  1
  O  O304  1  0.23762743  0.37427071  0.27778726  1
  O  O305  1  0.25834045  0.38273662  0.74573939  1
  O  O306  1  0.23961933  0.86094946  0.25557553  1
  O  O307  1  0.23670678  0.86696119  0.74592278  1
  O  O308  1  0.83300482  0.47897336  0.22272056  1
  O  O309  1  0.77169252  0.40176582  0.75672195  1
  O  O310  1  0.73699475  0.86688434  0.25345599  1
  O  O311  1  0.73410763  0.86892368  0.72990217  1
  O  O312  1  0.25110468  0.11484083  0.25994980  1
  O  O313  1  0.25546405  0.14401639  0.70092301  1
  O  O314  1  0.27085353  0.63294679  0.24472259  1
  O  O315  1  0.25345502  0.64451241  0.75834130  1
  O  O316  1  0.74291290  0.11191762  0.25500652  1
  O  O317  1  0.75582271  0.12401267  0.74740872  1
  O  O318  1  0.76222892  0.63997309  0.26918762  1
  O  O319  1  0.75520686  0.62935318  0.74833748  1
  O  O320  1  0.37466761  0.11744385  0.36648911  1
  O  O321  1  0.40961711  0.09293891  0.89716947  1
  O  O322  1  0.38026297  0.63188818  0.35535541  1
  O  O323  1  0.33696258  0.63494528  0.92059824  1
  O  O324  1  0.92327176  0.12477618  0.34368457  1
  O  O325  1  0.87512925  0.11119379  0.84757476  1
  O  O326  1  0.87006949  0.61308951  0.38359155  1
  O  O327  1  0.86396243  0.65268830  0.84606186  1
  O  O328  1  0.14627223  0.38018391  0.14752150  1
  O  O329  1  0.10593540  0.37412132  0.66620744  1
  O  O330  1  0.12009872  0.87768913  0.14660907  1
  O  O331  1  0.11777317  0.90232048  0.64188163  1
  O  O332  1  0.63464589  0.39663096  0.13703494  1
  O  O333  1  0.63147250  0.34550669  0.68722494  1
  O  O334  1  0.61896332  0.88368301  0.14249043  1
  O  O335  1  0.62915542  0.87543753  0.63177995  1
  O  O336  1  0.13832795  0.25294892  0.23763536  1
  O  O337  1  0.05623108  0.23147361  0.76133980  1
  O  O338  1  0.12093678  0.75433491  0.26235964  1
  O  O339  1  0.11154943  0.77027622  0.74374377  1
  O  O340  1  0.63413222  0.24541148  0.26426925  1
  O  O341  1  0.65115372  0.28698416  0.72521479  1
  O  O342  1  0.62084788  0.75741566  0.25390486  1
  O  O343  1  0.61675017  0.75972706  0.75545643  1
  O  O344  1  0.39086001  0.24831758  0.24575910  1
  O  O345  1  0.37031521  0.24441696  0.76630835  1
  O  O346  1  0.38995754  0.75402379  0.23787867  1
  O  O347  1  0.39798228  0.75990105  0.76485777  1
  O  O348  1  0.86473725  0.25492006  0.24742436  1
  O  O349  1  0.88102786  0.23645191  0.73057490  1
  O  O350  1  0.89609397  0.75348261  0.25508025  1
  O  O351  1  0.86443992  0.74899985  0.72497339  1
  O  O352  1  0.26782079  0.49730775  0.40329076  1
  O  O353  1  0.40674534  0.50340718  1.00002322  1
  O  O354  1  0.39191622  0.97887525  0.50199547  1
  O  O355  1  0.36866907  0.99034927  1.02142849  1
  O  O356  1  0.87196727  0.49776371  0.50113713  1
  O  O357  1  0.89133265  0.52230968  0.94024979  1
  O  O358  1  0.88611751  0.99791322  0.49136294  1
  O  O359  1  0.86541383  0.98500905  1.01686448  1
  O  O360  1  0.12735950  -0.02673573  0.02973589  1
  O  O361  1  0.11926930  0.00889877  0.51198504  1
  O  O362  1  0.15138827  0.46321167  0.02126576  1
  O  O363  1  0.16548553  0.48548186  0.49024284  1
  O  O364  1  0.63945822  -0.01705450  0.01857900  1
  O  O365  1  0.60799905  -0.01347702  0.51116169  1
  O  O366  1  0.62596738  0.50699046  0.00953946  1
  O  O367  1  0.63526107  0.51845013  0.49117987  1
  O  O368  1  0.39701562  0.35712882  0.12143503  1
  O  O369  1  0.38533798  0.40995622  0.57486643  1
  O  O370  1  0.38019362  0.86102748  0.12053098  1
  O  O371  1  0.37597253  0.86587795  0.61027342  1
  O  O372  1  0.88691325  0.35301331  0.12897605  1
  O  O373  1  0.89639466  0.35904097  0.61839869  1
  O  O374  1  0.87810346  0.86881690  0.12188632  1
  O  O375  1  0.85580715  0.86729151  0.62377792  1
  O  O376  1  0.12292791  0.12321027  0.39302064  1
  O  O377  1  0.03623535  0.14007715  0.96641792  1
  O  O378  1  0.11807433  0.63951961  0.37424766  1
  O  O379  1  0.02462143  0.61844593  0.93141766  1
  O  O380  1  0.62052807  0.13900018  0.38003132  1
  O  O381  1  0.62372584  0.12676560  0.87451327  1
  O  O382  1  0.64152571  0.63602380  0.37527769  1
  O  O383  1  0.64078173  0.64729488  0.86383546  1
