# generated using pymatgen
data_VZnO4
_symmetry_space_group_name_H-M   'P 1'
_cell_length_a   16.95433057
_cell_length_b   17.00024312
_cell_length_c   17.05538616
_cell_angle_alpha   89.44908086
_cell_angle_beta   89.78833867
_cell_angle_gamma   91.26996758
_symmetry_Int_Tables_number   1
_chemical_formula_structural   VZnO4
_chemical_formula_sum   'V64 Zn64 O256'
_cell_volume   4914.36320526
_cell_formula_units_Z   64
loop_
 _symmetry_equiv_pos_site_id
 _symmetry_equiv_pos_as_xyz
  1  'x, y, z'
loop_
 _atom_site_type_symbol
 _atom_site_label
 _atom_site_symmetry_multiplicity
 _atom_site_fract_x
 _atom_site_fract_y
 _atom_site_fract_z
 _atom_site_occupancy
  V  V0  1  0.25248731  0.12560570  0.87639502  1
  V  V1  1  0.44871716  0.93075346  0.90648911  1
  V  V2  1  0.63543714  0.35407011  0.73665584  1
  V  V3  1  0.00566508  0.63690086  0.61801106  1
  V  V4  1  0.24572544  0.50453709  0.25449191  1
  V  V5  1  0.74549734  0.12777900  0.38230100  1
  V  V6  1  0.50942193  0.50998008  0.51978559  1
  V  V7  1  0.87214526  0.15072362  0.21395829  1
  V  V8  1  0.38493856  0.00946925  0.36687365  1
  V  V9  1  0.62088557  0.49155813  0.10725446  1
  V  V10  1  0.83976319  0.30471494  0.54842266  1
  V  V11  1  0.57306426  0.76623343  0.87836089  1
  V  V12  1  0.00887856  0.37488333  0.37550187  1
  V  V13  1  0.47298647  0.26618255  0.25474085  1
  V  V14  1  0.37016722  0.12814553  0.72710609  1
  V  V15  1  0.50010487  0.86643811  0.38909612  1
  V  V16  1  0.12615076  0.86830522  0.74302838  1
  V  V17  1  0.47685209  0.39212539  0.38512327  1
  V  V18  1  0.85989420  0.73171672  0.12219250  1
  V  V19  1  0.84942424  -0.02211368  0.87385898  1
  V  V20  1  0.51275665  0.62154524  0.66334944  1
  V  V21  1  0.00117199  0.35802138  0.86277552  1
  V  V22  1  0.12884035  0.23973887  0.88209537  1
  V  V23  1  0.50404386  0.23471227  0.73019852  1
  V  V24  1  0.75934620  0.01180025  0.21323377  1
  V  V25  1  -0.00160020  0.74369201  0.75606742  1
  V  V26  1  0.23729004  0.88885915  0.11859045  1
  V  V27  1  0.25074183  -0.00364834  0.74602601  1
  V  V28  1  0.74994119  0.49187887  0.74255721  1
  V  V29  1  0.23596584  0.23495027  0.49459462  1
  V  V30  1  0.85245513  0.85951735  0.50914219  1
  V  V31  1  0.61990220  0.26757759  0.37284358  1
  V  V32  1  0.59850996  0.61672636  -0.01183742  1
  V  V33  1  0.88338964  0.15060786  0.72329193  1
  V  V34  1  0.89207100  0.48734418  0.88453064  1
  V  V35  1  0.36218338  0.37445626  0.52330357  1
  V  V36  1  0.87222862  0.62524402  0.25607754  1
  V  V37  1  0.25383487  0.64922967  0.35899650  1
  V  V38  1  0.87864084  0.61501914  0.74346435  1
  V  V39  1  0.75260421  0.37305278  0.11408247  1
  V  V40  1  0.00355486  0.26378550  0.22477247  1
  V  V41  1  0.00483841  0.75394385  0.24864707  1
  V  V42  1  0.13480464  0.73829956  0.89525238  1
  V  V43  1  0.63790815  -0.02263875  0.61583377  1
  V  V44  1  0.76263120  0.61045941  0.89768245  1
  V  V45  1  0.11619692  0.89698061  0.25537323  1
  V  V46  1  0.13342890  0.50522352  0.62964117  1
  V  V47  1  0.86848727  0.01176243  0.39833827  1
  V  V48  1  0.36928311  0.73315007  0.62330440  1
  V  V49  1  0.01591802  0.50915304  0.49364682  1
  V  V50  1  0.51244542  0.12786589  0.12848466  1
  V  V51  1  0.52954958  0.31968375  0.89759246  1
  V  V52  1  0.86607550  0.85193615  0.00619718  1
  V  V53  1  0.40683866  0.44674496  0.88552200  1
  V  V54  1  0.73753905  0.49667223  0.26383068  1
  V  V55  1  -0.01564340  0.87386429  0.38387664  1
  V  V56  1  0.87351411  0.51152016  0.38668095  1
  V  V57  1  0.27103825  0.57530118  0.85431406  1
  V  V58  1  0.10854122  0.00609090  0.62139116  1
  V  V59  1  0.00681634  -0.00514653  0.01099915  1
  V  V60  1  0.50669952  0.75023919  0.24592847  1
  V  V61  1  0.00397113  0.87079346  0.88032040  1
  V  V62  1  0.60478773  0.12095464  0.50170788  1
  V  V63  1  0.12823272  0.35427246  0.72499803  1
  Zn  Zn64  1  0.12823361  0.38584588  0.24096436  1
  Zn  Zn65  1  0.18270799  0.18128666  0.67119349  1
  Zn  Zn66  1  0.30690146  0.70792173  0.18967295  1
  Zn  Zn67  1  0.19039230  0.68609867  0.69601882  1
  Zn  Zn68  1  0.68257964  0.20261791  0.20763700  1
  Zn  Zn69  1  0.70393059  0.18442520  0.67489118  1
  Zn  Zn70  1  0.64948624  0.69197168  0.17078908  1
  Zn  Zn71  1  0.68762070  0.69772499  0.71629234  1
  Zn  Zn72  1  0.29311239  0.32463552  0.32739294  1
  Zn  Zn73  1  0.31106281  0.31001703  0.78608381  1
  Zn  Zn74  1  0.31413867  0.84967133  0.29755800  1
  Zn  Zn75  1  0.31593125  0.81704974  0.82683467  1
  Zn  Zn76  1  0.81814250  0.31317880  0.33826895  1
  Zn  Zn77  1  0.83401918  0.31392652  0.78091406  1
  Zn  Zn78  1  0.80979606  0.82677464  0.29941085  1
  Zn  Zn79  1  0.80747050  0.80083118  0.81769930  1
  Zn  Zn80  1  0.19495256  0.44880213  0.43384465  1
  Zn  Zn81  1  0.14182018  0.43616907  0.92774197  1
  Zn  Zn82  1  0.17269620  0.93969931  0.43486397  1
  Zn  Zn83  1  0.19034056  0.93240588  0.93213195  1
  Zn  Zn84  1  0.69066893  0.43628025  0.45582466  1
  Zn  Zn85  1  0.69255818  0.42163955  0.92798796  1
  Zn  Zn86  1  0.67838326  0.92835985  0.44202560  1
  Zn  Zn87  1  0.67791485  0.91002900  0.95813444  1
  Zn  Zn88  1  0.19215018  0.05693900  0.05841082  1
  Zn  Zn89  1  0.29043537  0.06100936  0.55582706  1
  Zn  Zn90  1  0.30165805  0.54724688  0.03098802  1
  Zn  Zn91  1  0.32979544  0.56010350  0.56698986  1
  Zn  Zn92  1  0.84002233  0.06954268  0.03266461  1
  Zn  Zn93  1  0.80044722  0.07406122  0.56555728  1
  Zn  Zn94  1  0.83243191  0.53264528  0.07888299  1
  Zn  Zn95  1  0.82385779  0.47027701  0.56901276  1
  Zn  Zn96  1  0.44502945  0.42473843  0.18146779  1
  Zn  Zn97  1  0.44178718  0.42580935  0.69905375  1
  Zn  Zn98  1  0.45738994  0.95146885  0.20676704  1
  Zn  Zn99  1  0.44405819  0.92852836  0.70726265  1
  Zn  Zn100  1  0.89972488  0.41450745  0.21843700  1
  Zn  Zn101  1  0.95095989  0.43906610  0.68569524  1
  Zn  Zn102  1  0.91658835  0.93234846  0.18820014  1
  Zn  Zn103  1  0.89763232  0.97794459  0.66616463  1
  Zn  Zn104  1  0.02174868  0.06398405  0.28976764  1
  Zn  Zn105  1  0.05396974  0.05469973  0.80686011  1
  Zn  Zn106  1  0.07604710  0.58182023  0.31121585  1
  Zn  Zn107  1  0.07359291  0.56174363  0.80825564  1
  Zn  Zn108  1  0.59327876  0.01451564  0.32762801  1
  Zn  Zn109  1  0.53480461  0.04004514  0.81051129  1
  Zn  Zn110  1  0.55189528  0.56552985  0.31715072  1
  Zn  Zn111  1  0.57819965  0.53831475  0.81937857  1
  Zn  Zn112  1  0.42671181  0.19581778  0.44204263  1
  Zn  Zn113  1  0.44849415  0.14428457  0.93247325  1
  Zn  Zn114  1  0.44838156  0.69677022  0.44642952  1
  Zn  Zn115  1  0.44301263  0.64374507  0.85973262  1
  Zn  Zn116  1  0.93277716  0.20177630  0.44816142  1
  Zn  Zn117  1  0.94098205  0.15153459  0.90184351  1
  Zn  Zn118  1  0.92987001  0.69228890  0.44233481  1
  Zn  Zn119  1  0.93311330  0.68507354  0.92784011  1
  Zn  Zn120  1  0.06149872  0.31721115  0.04537435  1
  Zn  Zn121  1  0.04380765  0.31070608  0.55896630  1
  Zn  Zn122  1  0.06234858  0.80914676  0.06980522  1
  Zn  Zn123  1  0.00202768  0.85586555  0.60083573  1
  Zn  Zn124  1  0.57361180  0.29453258  0.10055799  1
  Zn  Zn125  1  0.56404946  0.30902938  0.55380676  1
  Zn  Zn126  1  0.55724351  0.83168814  0.06303701  1
  Zn  Zn127  1  0.56075475  0.79628657  0.57537205  1
  O  O128  1  0.14107149  0.13896266  0.13259359  1
  O  O129  1  0.10468252  0.10410404  0.63733892  1
  O  O130  1  0.33229153  0.64814957  0.09196290  1
  O  O131  1  0.11127772  0.61916441  0.63408643  1
  O  O132  1  0.60422851  0.18200570  0.12208734  1
  O  O133  1  0.63206734  0.13407838  0.59887463  1
  O  O134  1  0.62699269  0.60774023  0.09158321  1
  O  O135  1  0.61298614  0.62635793  0.65874620  1
  O  O136  1  0.37684222  0.38813182  0.39197125  1
  O  O137  1  0.42666653  0.34237502  0.91189322  1
  O  O138  1  0.39420718  0.87612625  0.37604229  1
  O  O139  1  0.35132381  0.90174920  0.89407182  1
  O  O140  1  0.89923137  0.40775770  0.36946247  1
  O  O141  1  0.89508280  0.37487309  0.86448090  1
  O  O142  1  0.86791360  0.88739822  0.39042448  1
  O  O143  1  0.88555359  0.85811787  0.88580347  1
  O  O144  1  0.28032000  -0.01705997  0.41117190  1
  O  O145  1  0.22984429  0.01720864  0.85459079  1
  O  O146  1  0.25651273  0.51414615  0.35653099  1
  O  O147  1  0.21361680  0.48979983  0.86164959  1
  O  O148  1  0.76394467  0.01249686  0.36774893  1
  O  O149  1  0.75405687  -0.05096637  0.88005063  1
  O  O150  1  0.76828155  0.49908854  0.37991361  1
  O  O151  1  0.77323673  0.48850982  0.86871407  1
  O  O152  1  0.29109791  0.50033265  0.14605645  1
  O  O153  1  0.23073476  0.51996773  0.61335272  1
  O  O154  1  0.24577013  0.98864228  0.13084185  1
  O  O155  1  0.23002459  1.00373329  0.64248098  1
  O  O156  1  0.72833012  0.49903209  0.14913165  1
  O  O157  1  0.75358413  0.50901977  0.64533305  1
  O  O158  1  0.76624629  1.02620834  0.11452278  1
  O  O159  1  0.73533238  1.00331229  0.63188605  1
  O  O160  1  -0.00312068  0.37491087  0.25835725  1
  O  O161  1  0.01344104  0.37746209  0.75859533  1
  O  O162  1  -0.01368887  0.86951646  0.25980517  1
  O  O163  1  0.01187174  0.85885523  0.76219883  1
  O  O164  1  0.49251239  0.38683619  0.28265412  1
  O  O165  1  0.51681300  0.34285616  0.75464239  1
  O  O166  1  0.49638232  0.85683305  0.25400579  1
  O  O167  1  0.49059119  0.92288191  0.81009706  1
  O  O168  1  0.47206003  0.16601750  0.21777652  1
  O  O169  1  0.48019138  0.12485878  0.74933727  1
  O  O170  1  0.56726662  0.65912954  0.26228957  1
  O  O171  1  0.50133739  0.60363194  0.76422450  1
  O  O172  1  0.98457038  0.15446329  0.23595550  1
  O  O173  1  0.95695309  0.11646704  0.79085224  1
  O  O174  1  0.99195223  0.64723966  0.26549630  1
  O  O175  1  0.99882786  0.62744465  0.74405618  1
  O  O176  1  0.30820614  0.18392207  0.13764221  1
  O  O177  1  0.35490855  0.26668762  0.49581917  1
  O  O178  1  0.39810337  0.76337342  0.05574550  1
  O  O179  1  0.38988105  0.75253957  0.52709408  1
  O  O180  1  0.85049971  0.23555661  -0.06040519  1
  O  O181  1  0.84007477  0.27406477  0.44617917  1
  O  O182  1  0.89327932  0.73855156  0.01634470  1
  O  O183  1  0.86245696  0.76097531  0.49985442  1
  O  O184  1  0.13496285  0.25239886  0.52713267  1
  O  O185  1  0.12872544  0.24676795  0.98081369  1
  O  O186  1  0.19101859  0.77444402  0.49212278  1
  O  O187  1  0.11816734  0.74711411  0.99376839  1
  O  O188  1  0.61425939  0.23580682  0.47718754  1
  O  O189  1  0.68860084  0.19808813  0.95616468  1
  O  O190  1  0.62699177  0.72644130  0.50113872  1
  O  O191  1  0.60474359  0.72190209  0.97489507  1
  O  O192  1  0.47526218  0.31361127  0.15878104  1
  O  O193  1  0.50603648  0.24013724  0.63288660  1
  O  O194  1  0.55409578  0.75923020  0.14855178  1
  O  O195  1  0.49851281  0.72602880  0.64172062  1
  O  O196  1  0.99435976  0.27860884  0.12631927  1
  O  O197  1  0.94272719  0.25600690  0.55028317  1
  O  O198  1  0.99346279  0.75321385  0.14535613  1
  O  O199  1  1.00476796  0.74128523  0.63804439  1
  O  O200  1  0.00214926  0.27564479  0.38020258  1
  O  O201  1  0.00719923  0.25327215  0.87707254  1
  O  O202  1  -0.02351053  0.76951454  0.36596379  1
  O  O203  1  0.01105061  0.75049297  0.87257547  1
  O  O204  1  0.49724439  0.27131559  0.37453367  1
  O  O205  1  0.51549916  0.22224536  0.86570055  1
  O  O206  1  0.50506696  0.75897674  0.36524919  1
  O  O207  1  0.46859984  0.75140940  0.87023336  1
  O  O208  1  0.24550587  0.13540966  0.48536202  1
  O  O209  1  0.24418262  0.11663910  0.97525526  1
  O  O210  1  0.29758562  0.62650288  0.46322279  1
  O  O211  1  0.27100918  0.61993985  0.94410266  1
  O  O212  1  0.74126896  0.12697080  0.48444349  1
  O  O213  1  0.71948528  0.15807073  1.00740342  1
  O  O214  1  0.69194337  0.69269396  0.52899314  1
  O  O215  1  0.77529781  0.59287616  0.99519228  1
  O  O216  1  0.27129787  0.32651939  0.05501560  1
  O  O217  1  0.26413609  0.39562700  0.50712653  1
  O  O218  1  0.23735332  0.87457692  0.02036335  1
  O  O219  1  0.23290321  0.83496625  0.48581605  1
  O  O220  1  0.74555677  0.36987459  0.01462937  1
  O  O221  1  0.76819090  0.38291448  0.51576979  1
  O  O222  1  0.77016924  0.83978883  -0.00597528  1
  O  O223  1  0.75397012  0.87518007  0.50143573  1
  O  O224  1  0.14188591  0.51411571  0.24276499  1
  O  O225  1  0.12191010  0.49346386  0.73051870  1
  O  O226  1  0.09027422  0.99251228  0.24043812  1
  O  O227  1  0.12199773  0.98382116  0.74435413  1
  O  O228  1  0.64082366  0.49866643  0.28190139  1
  O  O229  1  0.64509096  0.47531160  0.75551172  1
  O  O230  1  0.66096208  1.01059529  0.23630961  1
  O  O231  1  0.58827332  1.01036941  0.70858391  1
  O  O232  1  0.36694581  -0.01145995  0.26815852  1
  O  O233  1  0.35588668  0.00751710  0.74134466  1
  O  O234  1  0.35620318  0.49703984  0.20000428  1
  O  O235  1  0.36932919  0.41191714  0.79125183  1
  O  O236  1  0.87800745  0.04437202  0.23591132  1
  O  O237  1  0.86869184  -0.02154600  0.77555233  1
  O  O238  1  0.88863094  0.51954172  0.26745335  1
  O  O239  1  0.87117054  0.49788493  0.75313512  1
  O  O240  1  0.10923935  0.40085831  0.36589402  1
  O  O241  1  0.12343641  0.34542659  0.84516321  1
  O  O242  1  0.08990854  0.89454116  0.37012494  1
  O  O243  1  0.11719370  0.86343753  0.87097996  1
  O  O244  1  0.62888092  0.36624248  0.38505473  1
  O  O245  1  0.62566997  0.35823678  0.85726514  1
  O  O246  1  0.60539447  0.90005788  0.36383841  1
  O  O247  1  0.61811597  0.85630075  0.87484793  1
  O  O248  1  0.30281063  0.14207170  0.19657368  1
  O  O249  1  0.36573329  0.11782365  0.62966912  1
  O  O250  1  0.39776460  0.68970224  0.04900152  1
  O  O251  1  0.38980281  0.62823121  0.63773155  1
  O  O252  1  0.86629717  0.15415137  0.11607200  1
  O  O253  1  0.88970269  0.09467086  0.63504338  1
  O  O254  1  0.88101908  0.62315660  0.14297515  1
  O  O255  1  0.89499032  0.61758601  0.64050335  1
  O  O256  1  0.12892229  0.39020727  0.11542448  1
  O  O257  1  0.24503358  0.24797477  0.60424946  1
  O  O258  1  0.29450323  0.82196042  0.18000974  1
  O  O259  1  0.26795167  0.72742038  0.62462281  1
  O  O260  1  0.75183027  0.27905394  0.14801870  1
  O  O261  1  0.77983207  0.24125953  0.60088149  1
  O  O262  1  0.76207329  0.72289852  0.12120591  1
  O  O263  1  0.72432906  0.72517379  0.59008071  1
  O  O264  1  0.22652292  0.27235996  0.39956368  1
  O  O265  1  0.23677105  0.23849503  0.85767818  1
  O  O266  1  0.27246999  0.74662235  0.34196791  1
  O  O267  1  0.23227833  0.76027743  0.87850035  1
  O  O268  1  0.72170481  0.23765459  0.35248844  1
  O  O269  1  0.79934380  0.24693424  0.88618334  1
  O  O270  1  0.74824599  0.75770656  0.37759912  1
  O  O271  1  0.77084130  0.70912136  0.88843487  1
  O  O272  1  -0.01936554  0.09245851  -0.00563407  1
  O  O273  1  0.04320783  0.12906612  0.45421332  1
  O  O274  1  0.03040546  0.58408234  0.02683045  1
  O  O275  1  0.00119141  0.63192008  0.51359943  1
  O  O276  1  0.46060704  0.15078429  0.04543328  1
  O  O277  1  0.50602510  0.12519683  0.49709870  1
  O  O278  1  0.50422768  0.60073269  -0.03324156  1
  O  O279  1  0.50353901  0.61042431  0.50835751  1
  O  O280  1  0.49118222  0.37656786  0.49628665  1
  O  O281  1  0.56006672  0.31170113  0.99072443  1
  O  O282  1  0.51182919  0.85620825  0.48780278  1
  O  O283  1  0.49290054  0.87415781  0.97698976  1
  O  O284  1  1.00537757  0.40233370  0.48463909  1
  O  O285  1  1.03867075  0.38969830  0.96007499  1
  O  O286  1  0.98330868  0.87098406  0.48571788  1
  O  O287  1  0.99991079  0.87148660  0.99308538  1
  O  O288  1  0.50457424  0.49656651  0.39406550  1
  O  O289  1  0.50703637  0.46607764  0.87640925  1
  O  O290  1  0.48953952  0.98788764  0.37415124  1
  O  O291  1  0.47463470  1.03426570  0.91242312  1
  O  O292  1  1.00267141  0.52395070  0.38952110  1
  O  O293  1  0.99506160  0.49139619  0.86065050  1
  O  O294  1  0.96777987  0.99217548  0.36502650  1
  O  O295  1  0.99638204  0.97845036  0.88346007  1
  O  O296  1  -0.01172758  -0.01815507  0.10835956  1
  O  O297  1  0.01016198  -0.02765115  0.63080124  1
  O  O298  1  0.04565921  0.58931063  0.09728597  1
  O  O299  1  0.00795141  0.51551630  0.60942250  1
  O  O300  1  0.51667822  0.02941192  0.14707568  1
  O  O301  1  0.52438971  -0.00166539  0.64989888  1
  O  O302  1  0.52710397  0.49565938  0.14287648  1
  O  O303  1  0.49753812  0.51025169  0.63217326  1
  O  O304  1  0.24433101  0.39687805  0.25570744  1
  O  O305  1  0.22690729  0.36196644  0.72859037  1
  O  O306  1  0.21144498  0.90561247  0.28378297  1
  O  O307  1  0.23526754  0.88860722  0.75978017  1
  O  O308  1  0.77339457  0.39842384  0.26258950  1
  O  O309  1  0.74620891  0.37457381  0.74792640  1
  O  O310  1  0.80055068  0.91659890  0.23053736  1
  O  O311  1  0.74172023  0.79458223  0.73190140  1
  O  O312  1  0.16071489  0.13342589  0.20351084  1
  O  O313  1  0.25696500  0.11955667  0.74727553  1
  O  O314  1  0.26653665  0.61972859  0.25376861  1
  O  O315  1  0.25075559  0.63131027  0.77328026  1
  O  O316  1  0.76382302  0.12929989  0.25066599  1
  O  O317  1  0.78447727  0.14426869  0.74893807  1
  O  O318  1  0.76736889  0.60499206  0.25621118  1
  O  O319  1  0.76161874  0.60306321  0.76749871  1
  O  O320  1  0.38993385  0.10901597  0.37569047  1
  O  O321  1  0.35428831  0.13254109  0.86165372  1
  O  O322  1  0.35986051  0.62479450  0.40544749  1
  O  O323  1  0.37540318  0.55309108  0.84396863  1
  O  O324  1  0.87019791  0.11908561  0.38947758  1
  O  O325  1  0.84468237  0.07614168  0.91293273  1
  O  O326  1  0.87538414  0.62211013  0.36874307  1
  O  O327  1  0.88036015  0.60167361  0.86841711  1
  O  O328  1  0.14203934  0.46921829  0.09439673  1
  O  O329  1  0.10526848  0.39285901  0.62409773  1
  O  O330  1  0.13331821  0.86831488  0.14566078  1
  O  O331  1  0.12114970  0.86731897  0.64336342  1
  O  O332  1  0.64022133  0.38630349  0.13155750  1
  O  O333  1  0.62309806  0.36502324  0.63842813  1
  O  O334  1  0.63455321  0.91248968  0.05774755  1
  O  O335  1  0.63063322  0.87832514  0.61586785  1
  O  O336  1  0.10174470  0.26901213  0.24218899  1
  O  O337  1  0.10870854  0.25545752  0.71919302  1
  O  O338  1  0.10180604  0.77392801  0.26205990  1
  O  O339  1  0.11994381  0.75670949  0.75913470  1
  O  O340  1  0.59410932  0.25073680  0.27011473  1
  O  O341  1  0.62470978  0.24448643  0.73934365  1
  O  O342  1  0.69280576  0.76850723  0.25981875  1
  O  O343  1  0.61265073  0.71255020  0.80675027  1
  O  O344  1  0.37575227  0.26865611  0.27548665  1
  O  O345  1  0.38793964  0.23554050  0.74179584  1
  O  O346  1  0.41648883  0.71362706  0.23159330  1
  O  O347  1  0.37859630  0.78181731  0.73408045  1
  O  O348  1  0.88238110  0.25253970  0.25513322  1
  O  O349  1  0.90194315  0.25042180  0.72033005  1
  O  O350  1  0.87105346  0.73881047  0.23932940  1
  O  O351  1  0.89321066  0.72883471  0.76635819  1
  O  O352  1  0.39707434  0.48425900  0.51559035  1
  O  O353  1  0.36091607  0.46798644  0.97434979  1
  O  O354  1  0.33559651  0.98482755  0.47692148  1
  O  O355  1  0.38907530  0.97823577  1.04048141  1
  O  O356  1  0.89138918  0.51811558  0.48926656  1
  O  O357  1  0.89243998  0.49119534  0.98184001  1
  O  O358  1  0.86695620  0.99802849  0.49754293  1
  O  O359  1  0.88220268  0.96029371  0.99481568  1
  O  O360  1  0.11273227  -0.00400570  -0.00013175  1
  O  O361  1  0.13198429  -0.00944062  0.52434474  1
  O  O362  1  0.18509093  0.48014540  0.02646693  1
  O  O363  1  0.11863333  0.50940885  0.50502450  1
  O  O364  1  0.63994304  0.04290296  -0.05867521  1
  O  O365  1  0.62371167  0.00807203  0.51195191  1
  O  O366  1  0.62071847  0.48706779  0.00611584  1
  O  O367  1  0.60817534  0.48888918  0.51136438  1
  O  O368  1  0.34092122  0.33280586  0.07345605  1
  O  O369  1  0.37956391  0.36800511  0.62147883  1
  O  O370  1  0.38590308  0.92595970  0.09317904  1
  O  O371  1  0.37878979  0.84109284  0.67002122  1
  O  O372  1  0.85133672  0.42021625  0.11928508  1
  O  O373  1  0.88447504  0.38177798  0.61333359  1
  O  O374  1  0.87499425  0.84520356  0.11254052  1
  O  O375  1  0.88168870  0.87872554  0.60779240  1
  O  O376  1  0.08164555  0.11903708  0.39129555  1
  O  O377  1  0.12418638  0.13777249  0.85615959  1
  O  O378  1  0.15419560  0.63766174  0.37486370  1
  O  O379  1  0.11939778  0.63844296  0.87683015  1
  O  O380  1  0.63062529  0.11097841  0.38525195  1
  O  O381  1  0.63943011  0.07300469  0.87315280  1
  O  O382  1  0.69029473  0.73101202  0.33251217  1
  O  O383  1  0.65176833  0.58910025  0.89685345  1
