# generated using pymatgen
data_VZnO4
_symmetry_space_group_name_H-M   'P 1'
_cell_length_a   17.01432659
_cell_length_b   17.02738567
_cell_length_c   16.95984849
_cell_angle_alpha   89.57336821
_cell_angle_beta   89.71541716
_cell_angle_gamma   90.09815186
_symmetry_Int_Tables_number   1
_chemical_formula_structural   VZnO4
_chemical_formula_sum   'V64 Zn64 O256'
_cell_volume   4913.22489655
_cell_formula_units_Z   64
loop_
 _symmetry_equiv_pos_site_id
 _symmetry_equiv_pos_as_xyz
  1  'x, y, z'
loop_
 _atom_site_type_symbol
 _atom_site_label
 _atom_site_symmetry_multiplicity
 _atom_site_fract_x
 _atom_site_fract_y
 _atom_site_fract_z
 _atom_site_occupancy
  V  V0  1  0.13149059  -0.00628943  0.61253308  1
  V  V1  1  0.51065857  0.12290475  0.11633907  1
  V  V2  1  0.36903753  0.25871983  0.62862116  1
  V  V3  1  0.74001079  0.76669489  0.50761724  1
  V  V4  1  0.74921416  0.36585947  0.61215074  1
  V  V5  1  0.51420202  0.12083866  0.62386092  1
  V  V6  1  0.86742373  0.12757329  0.74926753  1
  V  V7  1  0.48552240  0.87871883  0.37748337  1
  V  V8  1  0.68808501  0.93763730  0.06948293  1
  V  V9  1  0.32594428  0.36041509  -0.03024547  1
  V  V10  1  0.26451442  0.63583887  0.85278121  1
  V  V11  1  0.00136060  0.74947505  0.74187324  1
  V  V12  1  0.75136136  0.26769637  -0.00265192  1
  V  V13  1  0.14783119  0.87910727  0.74759661  1
  V  V14  1  0.75498674  0.01705703  0.24887517  1
  V  V15  1  0.25884264  0.63435492  0.35628735  1
  V  V16  1  0.49589990  0.50083655  0.49576280  1
  V  V17  1  0.88095600  0.87825191  0.00924776  1
  V  V18  1  0.87174227  0.76899209  0.61907137  1
  V  V19  1  0.00333333  -0.01759611  0.48415763  1
  V  V20  1  0.74500791  0.61968088  0.87782993  1
  V  V21  1  0.01403770  0.00780542  0.00397688  1
  V  V22  1  0.74841312  0.12644067  0.39693914  1
  V  V23  1  0.03187404  0.59566990  0.11298535  1
  V  V24  1  0.50730117  0.89279074  0.86445656  1
  V  V25  1  0.27592327  0.11735672  0.38849830  1
  V  V26  1  0.61505457  0.75058419  0.86092085  1
  V  V27  1  0.26907492  0.87572506  0.59509322  1
  V  V28  1  0.50212559  0.36958099  0.88259766  1
  V  V29  1  0.36928530  0.12026691  0.75173261  1
  V  V30  1  0.16336395  0.47358472  0.12790638  1
  V  V31  1  0.25822575  0.75126919  0.00397771  1
  V  V32  1  0.62008306  0.24438960  0.38583854  1
  V  V33  1  0.36174260  0.37215919  0.49938580  1
  V  V34  1  0.49782598  0.25985922  0.24321297  1
  V  V35  1  0.38435949  0.74483560  0.62822214  1
  V  V36  1  0.37961725  0.87388763  0.00738891  1
  V  V37  1  0.88977653  0.74524576  0.13255346  1
  V  V38  1  0.50554543  0.00895065  0.48563901  1
  V  V39  1  0.73087473  0.74577054  0.01174467  1
  V  V40  1  0.62392467  0.40224333  0.75015873  1
  V  V41  1  0.24009412  0.48072708  0.74282562  1
  V  V42  1  0.87371499  0.62375872  0.75130701  1
  V  V43  1  0.64409482  0.37375358  0.25187350  1
  V  V44  1  0.63169414  0.89127519  0.26267125  1
  V  V45  1  0.35940683  0.00222277  0.87251517  1
  V  V46  1  0.12729472  0.12868202  0.48742760  1
  V  V47  1  0.50365710  0.62374331  0.64454176  1
  V  V48  1  0.73638836  0.11797498  0.88585599  1
  V  V49  1  0.88558508  0.23519020  0.11739439  1
  V  V50  1  0.51267215  0.24393297  0.75506934  1
  V  V51  1  0.63295350  0.62024736  0.51111548  1
  V  V52  1  0.13017666  0.74879633  0.87575893  1
  V  V53  1  0.37456641  0.12664652  0.23529610  1
  V  V54  1  0.48913050  0.74817952  0.25475286  1
  V  V55  1  0.63153407  0.50202378  0.13544246  1
  V  V56  1  0.25936534  -0.01064433  0.23960867  1
  V  V57  1  0.11846372  0.75517416  0.38448446  1
  V  V58  1  -0.00718212  0.87624051  0.86924238  1
  V  V59  1  0.10936886  0.87156921  0.23974016  1
  V  V60  1  0.37639467  0.50626879  0.86306870  1
  V  V61  1  -0.00331117  0.24708181  0.27418999  1
  V  V62  1  0.68557759  0.69639050  0.33002438  1
  V  V63  1  0.48397008  0.49837534  0.01535293  1
  Zn  Zn64  1  0.18042931  0.20712092  0.29002343  1
  Zn  Zn65  1  0.20471689  0.16717643  0.66317788  1
  Zn  Zn66  1  0.19181987  0.69839896  0.19083526  1
  Zn  Zn67  1  0.19717753  0.70150725  0.67407136  1
  Zn  Zn68  1  0.68473330  0.19798585  0.16168132  1
  Zn  Zn69  1  0.71846368  0.15241688  0.65346304  1
  Zn  Zn70  1  0.62819044  0.70127424  0.16055161  1
  Zn  Zn71  1  0.69058892  0.68898989  0.68781620  1
  Zn  Zn72  1  0.32673377  0.30857926  0.32576947  1
  Zn  Zn73  1  0.31012501  0.30127041  0.81439105  1
  Zn  Zn74  1  0.31131322  0.80824896  0.32132931  1
  Zn  Zn75  1  0.32760292  0.81523899  0.80897970  1
  Zn  Zn76  1  0.80717580  0.28222218  0.29970358  1
  Zn  Zn77  1  0.73337428  0.26498682  0.77812554  1
  Zn  Zn78  1  0.81868347  0.82985398  0.30382472  1
  Zn  Zn79  1  0.82098405  0.78752283  0.82605415  1
  Zn  Zn80  1  0.24104823  0.47370873  0.28947080  1
  Zn  Zn81  1  0.14830853  0.45905070  0.92825165  1
  Zn  Zn82  1  0.19504043  0.93690793  0.42007296  1
  Zn  Zn83  1  0.19100783  0.93457805  0.94194803  1
  Zn  Zn84  1  0.64273549  0.41088808  0.45963838  1
  Zn  Zn85  1  0.67545971  0.44241643  0.94980050  1
  Zn  Zn86  1  0.68334066  0.95246451  0.44077385  1
  Zn  Zn87  1  0.71057878  0.91467002  0.89260172  1
  Zn  Zn88  1  0.35779135  0.03723263  0.08063472  1
  Zn  Zn89  1  0.32551831  0.05697320  0.56420155  1
  Zn  Zn90  1  0.28172261  0.54981705  0.03282738  1
  Zn  Zn91  1  0.32037567  0.55553371  0.56838182  1
  Zn  Zn92  1  0.82420573  0.06835586  0.05807910  1
  Zn  Zn93  1  0.85001209  0.09350203  0.54918458  1
  Zn  Zn94  1  0.79843781  0.58631693  0.18682721  1
  Zn  Zn95  1  0.80639735  0.56105938  0.57874229  1
  Zn  Zn96  1  0.35646768  0.41584318  0.15777539  1
  Zn  Zn97  1  0.44232589  0.44040127  0.68595604  1
  Zn  Zn98  1  0.44645912  0.94123367  0.19371060  1
  Zn  Zn99  1  0.44017860  0.94028460  0.68663718  1
  Zn  Zn100  1  0.99803618  0.40023767  0.16655140  1
  Zn  Zn101  1  0.81953469  0.44142684  0.72674155  1
  Zn  Zn102  1  0.93844102  0.94904614  0.18607948  1
  Zn  Zn103  1  0.93839283  0.95419856  0.68155790  1
  Zn  Zn104  1  0.07952656  0.05494516  0.29690710  1
  Zn  Zn105  1  0.04357359  0.05246815  0.79208801  1
  Zn  Zn106  1  0.08396464  0.59122169  0.27973594  1
  Zn  Zn107  1  0.06225629  0.56318027  0.80744785  1
  Zn  Zn108  1  0.56442606  0.07160811  0.30735792  1
  Zn  Zn109  1  0.56302598  0.06769781  0.95057057  1
  Zn  Zn110  1  0.56034943  0.55863151  0.31347212  1
  Zn  Zn111  1  0.56021279  0.56567772  0.83040602  1
  Zn  Zn112  1  0.44571375  0.19779112  0.44240610  1
  Zn  Zn113  1  0.42186863  0.19315828  0.93726523  1
  Zn  Zn114  1  0.43781873  0.68862150  0.44338473  1
  Zn  Zn115  1  0.43994163  0.68578588  0.94177456  1
  Zn  Zn116  1  0.95533334  0.11416854  0.37871332  1
  Zn  Zn117  1  0.92169150  0.18301962  0.93500711  1
  Zn  Zn118  1  0.93689514  0.81351344  0.42374454  1
  Zn  Zn119  1  0.89654807  0.65615178  0.97650134  1
  Zn  Zn120  1  0.09837192  0.27204422  0.11765945  1
  Zn  Zn121  1  0.03161499  0.27870645  0.47572603  1
  Zn  Zn122  1  0.06661783  0.81335265  0.06273106  1
  Zn  Zn123  1  0.06859939  0.81082643  0.56433123  1
  Zn  Zn124  1  0.56751862  0.31466251  0.06927803  1
  Zn  Zn125  1  0.56472384  0.31247846  0.57839288  1
  Zn  Zn126  1  0.54973922  0.81800201  0.06113348  1
  Zn  Zn127  1  0.53173168  0.79241837  0.53837115  1
  O  O128  1  0.15174713  0.16506230  -0.00776736  1
  O  O129  1  0.13600242  0.10176562  0.60862823  1
  O  O130  1  0.12585444  0.63261825  0.12098105  1
  O  O131  1  0.12598964  0.63321189  0.61147024  1
  O  O132  1  0.60843095  0.11726168  0.12372088  1
  O  O133  1  0.61149792  0.13421047  0.63005944  1
  O  O134  1  0.59365979  0.59400322  0.14662376  1
  O  O135  1  0.61571393  0.62753903  0.62048973  1
  O  O136  1  0.39408789  0.35464977  0.40548460  1
  O  O137  1  0.38922848  0.38640268  0.87166051  1
  O  O138  1  0.38812744  0.88331076  0.37159378  1
  O  O139  1  0.38734653  0.89106798  0.87120528  1
  O  O140  1  0.87714909  0.35131335  0.38740649  1
  O  O141  1  0.90848455  0.41904039  0.89494207  1
  O  O142  1  0.86111935  0.88230324  0.38682223  1
  O  O143  1  0.89108030  0.85587090  0.89078844  1
  O  O144  1  0.25928930  0.01461821  0.36157929  1
  O  O145  1  0.26168986  -0.00264712  0.87054575  1
  O  O146  1  0.23628050  0.53560184  0.38082021  1
  O  O147  1  0.25545658  0.52567849  0.85722850  1
  O  O148  1  0.73873590  0.02074139  0.36048389  1
  O  O149  1  0.74593744  0.01810507  0.88021433  1
  O  O150  1  0.85866008  0.40975348  0.42701979  1
  O  O151  1  0.73854636  0.52156917  0.89046022  1
  O  O152  1  0.26949834  0.49490409  0.13582141  1
  O  O153  1  0.26558567  0.49377739  0.64608018  1
  O  O154  1  0.26436757  1.00667720  0.13996526  1
  O  O155  1  0.24532324  0.98434379  0.61446757  1
  O  O156  1  0.72928459  0.51578869  0.12925911  1
  O  O157  1  0.75185398  0.47949033  0.63524717  1
  O  O158  1  0.74793894  0.99999243  0.12489258  1
  O  O159  1  0.77720255  0.93460191  0.73619826  1
  O  O160  1  0.00344369  0.35053725  0.26747557  1
  O  O161  1  -0.11183520  0.37954473  0.83813849  1
  O  O162  1  0.01107869  0.88825633  0.24917245  1
  O  O163  1  -0.00105905  0.86812440  0.76069556  1
  O  O164  1  0.48994484  0.35589904  0.24519895  1
  O  O165  1  0.50944599  0.37226946  0.75801297  1
  O  O166  1  0.51230657  0.87458225  0.26013980  1
  O  O167  1  0.50204952  0.88532960  0.76485925  1
  O  O168  1  0.49232721  0.12699148  0.23515769  1
  O  O169  1  0.49463992  0.14072111  0.74596727  1
  O  O170  1  0.50615932  0.65108467  0.27534088  1
  O  O171  1  0.50288043  0.61545875  0.74307148  1
  O  O172  1  1.00067202  0.13112025  0.27278724  1
  O  O173  1  0.95300191  0.06186647  0.72751366  1
  O  O174  1  0.99523380  0.60488496  0.20917118  1
  O  O175  1  0.98905280  0.64173557  0.76283344  1
  O  O176  1  0.33058551  0.26207011  -0.07109346  1
  O  O177  1  0.38616346  0.25684564  0.52227458  1
  O  O178  1  0.36899384  0.76264489  -0.00783169  1
  O  O179  1  0.41216538  0.76595046  0.52482968  1
  O  O180  1  0.86842749  0.25494285  0.00915175  1
  O  O181  1  0.88275208  0.22001098  0.52926452  1
  O  O182  1  0.85370891  0.76244799  0.01704912  1
  O  O183  1  0.86245972  0.75625035  0.51467466  1
  O  O184  1  0.12741418  0.22741547  0.50571073  1
  O  O185  1  0.11435125  0.22756842  1.00469266  1
  O  O186  1  0.12948247  0.75963942  0.48551493  1
  O  O187  1  0.14152464  0.76664232  0.97989637  1
  O  O188  1  0.60720152  0.25618873  0.48395533  1
  O  O189  1  0.65664977  0.24831335  1.03993791  1
  O  O190  1  0.63450281  0.74184605  0.50909562  1
  O  O191  1  0.62834703  0.75600107  0.99622053  1
  O  O192  1  0.50415830  0.23974667  0.13612657  1
  O  O193  1  0.49491727  0.24545172  0.64132182  1
  O  O194  1  0.52309461  0.75343806  0.15202521  1
  O  O195  1  0.50240428  0.73384309  0.63530420  1
  O  O196  1  0.98184638  0.29090249  0.11621271  1
  O  O197  1  0.94271632  0.25595486  0.55715832  1
  O  O198  1  0.98978502  0.74685135  0.11887267  1
  O  O199  1  0.98981753  0.75717192  0.63275952  1
  O  O200  1  -0.00769829  0.24219778  0.37761221  1
  O  O201  1  -0.01798475  0.25650038  0.86075946  1
  O  O202  1  0.01694603  0.75144456  0.37732042  1
  O  O203  1  0.02367979  0.76227611  0.86525997  1
  O  O204  1  0.51572163  0.23487649  0.35594538  1
  O  O205  1  0.49125690  0.26358477  0.86514745  1
  O  O206  1  0.49844231  0.77244078  0.37124223  1
  O  O207  1  0.51263379  0.74776847  0.87744037  1
  O  O208  1  0.25103404  0.11289746  0.49202803  1
  O  O209  1  0.22162470  0.15724649  1.07015117  1
  O  O210  1  0.23285090  0.62608438  0.53040221  1
  O  O211  1  0.26086435  0.64776971  0.97521369  1
  O  O212  1  0.74689027  0.11484996  0.49621077  1
  O  O213  1  0.76541646  0.13494877  0.98858096  1
  O  O214  1  0.73564365  0.63274567  0.51388081  1
  O  O215  1  0.75381761  0.64507368  0.98719240  1
  O  O216  1  0.23139956  0.38248362  -0.05151074  1
  O  O217  1  0.26692028  0.37479708  0.49656183  1
  O  O218  1  0.26793460  0.86378296  -0.01167369  1
  O  O219  1  0.26315700  0.87973295  0.49717532  1
  O  O220  1  0.74817028  0.36845901  -0.00620443  1
  O  O221  1  0.73352379  0.36816106  0.51212042  1
  O  O222  1  0.75181040  0.87384619  0.00435283  1
  O  O223  1  0.73324122  0.86414760  0.49863699  1
  O  O224  1  0.14330974  0.50225574  0.23179932  1
  O  O225  1  0.14356829  0.50885809  0.74510703  1
  O  O226  1  0.14946051  0.98243674  0.25034771  1
  O  O227  1  0.12197352  0.98197457  0.72921798  1
  O  O228  1  0.61935213  0.48201872  0.25153154  1
  O  O229  1  0.61955316  0.49986019  0.75558982  1
  O  O230  1  0.62832108  0.99417345  0.24607745  1
  O  O231  1  0.64875707  0.96322506  0.66409899  1
  O  O232  1  0.37580048  0.01875010  0.24874313  1
  O  O233  1  0.38136604  0.01300241  0.75881916  1
  O  O234  1  0.39918003  0.59847105  0.17891674  1
  O  O235  1  0.37018721  0.49419629  0.76061985  1
  O  O236  1  0.85314825  0.00103474  0.24034104  1
  O  O237  1  0.84423170  -0.03561388  0.76151985  1
  O  O238  1  0.84687518  0.52802651  0.30152700  1
  O  O239  1  0.88504477  0.52520407  0.75947639  1
  O  O240  1  0.05575204  0.42969853  0.40237551  1
  O  O241  1  0.06652465  0.35582981  0.85627072  1
  O  O242  1  0.13691101  0.86395073  0.35713115  1
  O  O243  1  0.12684595  0.87136311  0.85680273  1
  O  O244  1  0.62391948  0.35767747  0.36013168  1
  O  O245  1  0.60574046  0.38781646  0.86998774  1
  O  O246  1  0.62168663  0.88661763  0.36350779  1
  O  O247  1  0.61032522  0.86360484  0.87972820  1
  O  O248  1  0.37546126  0.13928721  0.13418173  1
  O  O249  1  0.38498877  0.13448443  0.63792181  1
  O  O250  1  0.37330851  0.63586420  0.12282914  1
  O  O251  1  0.38711357  0.63791775  0.62211023  1
  O  O252  1  0.89739795  0.13706787  0.11503987  1
  O  O253  1  0.81559446  0.09469428  0.65452622  1
  O  O254  1  0.86510601  0.64531244  0.12041503  1
  O  O255  1  0.86458353  0.63928242  0.64742861  1
  O  O256  1  0.21459359  0.21914217  0.10972095  1
  O  O257  1  0.26884052  0.25293724  0.63445341  1
  O  O258  1  0.24963026  0.74561281  0.10126484  1
  O  O259  1  0.27173572  0.76613529  0.61625995  1
  O  O260  1  0.78145774  0.25223813  0.12581599  1
  O  O261  1  0.73115236  0.26741308  0.64789127  1
  O  O262  1  0.72673217  0.74020478  0.11317244  1
  O  O263  1  0.75845451  0.75672721  0.61837371  1
  O  O264  1  0.25667648  0.22674916  0.36829922  1
  O  O265  1  0.17402753  0.24677853  0.82460858  1
  O  O266  1  0.24064803  0.74228954  0.37638793  1
  O  O267  1  0.24850652  0.75035112  0.86807304  1
  O  O268  1  0.73264856  0.23703462  0.37343163  1
  O  O269  1  0.74626498  0.24877285  0.89593785  1
  O  O270  1  0.75159459  0.74596062  0.39127921  1
  O  O271  1  0.73059472  0.75541306  0.88842299  1
  O  O272  1  -0.00779640  0.10259098  -0.02111726  1
  O  O273  1  0.02595504  0.10986562  0.48697662  1
  O  O274  1  -0.01133127  0.61777511  0.02222247  1
  O  O275  1  0.01586816  0.57357951  0.47110803  1
  O  O276  1  0.49184242  0.13929339  0.00885360  1
  O  O277  1  0.50004033  0.12174764  0.51473724  1
  O  O278  1  0.47594462  0.59803969  0.00814846  1
  O  O279  1  0.51259601  0.61905024  0.50821037  1
  O  O280  1  0.52768955  0.40205167  0.51110476  1
  O  O281  1  0.49938954  0.36895663  0.98682632  1
  O  O282  1  0.51101681  0.88978527  0.48106111  1
  O  O283  1  0.48409118  0.86736805  0.98278723  1
  O  O284  1  1.03635115  0.40156860  0.46845414  1
  O  O285  1  1.03028977  0.30595778  0.90048017  1
  O  O286  1  1.00553526  0.87903552  0.49338077  1
  O  O287  1  0.99382324  0.87585002  0.99110405  1
  O  O288  1  0.49921387  0.50951841  0.39620813  1
  O  O289  1  0.49090097  0.49355160  0.89009027  1
  O  O290  1  0.50373023  1.00046982  0.37983873  1
  O  O291  1  0.50670697  0.99213354  0.88124280  1
  O  O292  1  0.91420539  0.50143221  0.31134811  1
  O  O293  1  1.05116038  0.49278377  0.89210921  1
  O  O294  1  1.00931511  1.00164887  0.38304402  1
  O  O295  1  1.00436734  0.97715873  0.87820602  1
  O  O296  1  -0.00192505  0.00008885  0.10332981  1
  O  O297  1  0.02796960  -0.02184122  0.60678719  1
  O  O298  1  0.04431640  0.48854594  0.11153836  1
  O  O299  1  0.02846323  0.43537968  0.62157179  1
  O  O300  1  0.47833201  0.02298883  0.11641253  1
  O  O301  1  0.50306704  0.02091913  0.63512692  1
  O  O302  1  0.45236708  0.47046767  0.10709156  1
  O  O303  1  0.49262306  0.51913968  0.61749073  1
  O  O304  1  0.30271958  0.39032338  0.25375640  1
  O  O305  1  0.24643627  0.38292725  0.76709019  1
  O  O306  1  0.27403206  0.89124967  0.24978981  1
  O  O307  1  0.24618761  0.87765248  0.74893968  1
  O  O308  1  0.74298441  0.36967863  0.25447479  1
  O  O309  1  0.72747204  0.38029291  0.77045687  1
  O  O310  1  0.73574257  0.89346246  0.25101996  1
  O  O311  1  0.74799567  0.87342670  0.78362703  1
  O  O312  1  0.26933184  0.12099569  0.25982965  1
  O  O313  1  0.27053093  0.12667959  0.74720485  1
  O  O314  1  0.26296428  0.63505445  0.25419076  1
  O  O315  1  0.25703657  0.64113857  0.75273046  1
  O  O316  1  0.73868561  0.11488776  0.23382531  1
  O  O317  1  0.74996244  0.15019706  0.77473687  1
  O  O318  1  0.73235389  0.63796434  0.26408823  1
  O  O319  1  0.75972510  0.63401386  0.76578353  1
  O  O320  1  0.37679874  0.12552250  0.38159426  1
  O  O321  1  0.38158978  0.11032753  0.86475112  1
  O  O322  1  0.35494826  0.63797588  0.39203350  1
  O  O323  1  0.37044336  0.62310780  0.86901275  1
  O  O324  1  0.84648119  0.13671691  0.37703191  1
  O  O325  1  0.86649960  0.12261080  0.85615872  1
  O  O326  1  0.88895058  0.54497516  0.49396323  1
  O  O327  1  0.85587579  0.64531858  0.86976106  1
  O  O328  1  0.15280142  0.37460222  0.12450041  1
  O  O329  1  0.05135545  0.36775692  0.63263810  1
  O  O330  1  0.12643509  0.87035294  0.13863838  1
  O  O331  1  0.14933966  0.87382220  0.62764912  1
  O  O332  1  0.61962075  0.38667782  0.14504814  1
  O  O333  1  0.62778406  0.38121137  0.64734136  1
  O  O334  1  0.62577451  0.88256008  0.13055312  1
  O  O335  1  0.64461604  0.89351517  0.64724553  1
  O  O336  1  0.09741055  0.23581154  0.22758941  1
  O  O337  1  0.13116069  0.19544701  0.78881633  1
  O  O338  1  0.12619809  0.76701102  0.25292817  1
  O  O339  1  0.12250168  0.76589566  0.74592887  1
  O  O340  1  0.61825450  0.26247072  0.24563953  1
  O  O341  1  0.61010489  0.25636555  0.75982252  1
  O  O342  1  0.63218644  0.76355696  0.26709036  1
  O  O343  1  0.62849790  0.75158709  0.76264292  1
  O  O344  1  0.39163850  0.23326533  0.25948748  1
  O  O345  1  0.38313539  0.24148298  0.74601920  1
  O  O346  1  0.39159784  0.76080359  0.24911148  1
  O  O347  1  0.38343604  0.76123776  0.72907538  1
  O  O348  1  0.89269709  0.24592640  0.23596524  1
  O  O349  1  0.89948834  0.21560893  0.72945147  1
  O  O350  1  0.86245268  0.76195414  0.22792323  1
  O  O351  1  0.88486328  0.74900356  0.74094986  1
  O  O352  1  0.38882819  0.48311537  0.50918371  1
  O  O353  1  0.36530694  0.48176767  0.97800424  1
  O  O354  1  0.40652315  1.00006386  0.51338532  1
  O  O355  1  0.37181947  0.98719305  0.98117616  1
  O  O356  1  0.96443724  0.55685386  0.52240152  1
  O  O357  1  0.88222932  0.45126088  1.15445969  1
  O  O358  1  0.90892831  1.00932485  0.50881500  1
  O  O359  1  0.87768460  0.97930323  1.00080396  1
  O  O360  1  0.11357431  -0.00504642  -0.00782211  1
  O  O361  1  0.12629770  -0.00505093  0.49992702  1
  O  O362  1  0.16970636  0.51039960  0.02780842  1
  O  O363  1  0.15965689  0.59817690  0.54969891  1
  O  O364  1  0.63136796  -0.01139801  0.00642077  1
  O  O365  1  0.60668217  0.00416676  0.50623426  1
  O  O366  1  0.59588563  0.48749978  0.02725431  1
  O  O367  1  0.62366702  0.51889563  0.49632139  1
  O  O368  1  0.34229266  0.34557431  0.06664863  1
  O  O369  1  0.38547304  0.36282526  0.62228255  1
  O  O370  1  0.38757443  0.88429061  0.10564831  1
  O  O371  1  0.36878217  0.87867828  0.62417869  1
  O  O372  1  0.84071129  0.40214506  0.11799893  1
  O  O373  1  0.84807385  0.36775132  0.63645054  1
  O  O374  1  0.88421769  0.86718616  0.11257844  1
  O  O375  1  0.87807210  0.86681749  0.62970057  1
  O  O376  1  0.14552085  0.12084832  0.38147119  1
  O  O377  1  0.11133441  0.12987587  0.83835107  1
  O  O378  1  0.13431470  0.64726034  0.36104261  1
  O  O379  1  0.14159345  0.64778971  0.86251790  1
  O  O380  1  0.63235159  0.13636148  0.37304386  1
  O  O381  1  0.63629903  0.12944079  0.88991781  1
  O  O382  1  0.62703812  0.63451089  0.38936566  1
  O  O383  1  0.63485310  0.63953163  0.87525737  1
