# generated using pymatgen
data_VZnO4
_symmetry_space_group_name_H-M   'P 1'
_cell_length_a   16.93747229
_cell_length_b   16.96746303
_cell_length_c   16.85491121
_cell_angle_alpha   90.00865848
_cell_angle_beta   89.97478393
_cell_angle_gamma   89.78798863
_symmetry_Int_Tables_number   1
_chemical_formula_structural   VZnO4
_chemical_formula_sum   'V64 Zn64 O256'
_cell_volume   4843.83073120
_cell_formula_units_Z   64
loop_
 _symmetry_equiv_pos_site_id
 _symmetry_equiv_pos_as_xyz
  1  'x, y, z'
loop_
 _atom_site_type_symbol
 _atom_site_label
 _atom_site_symmetry_multiplicity
 _atom_site_fract_x
 _atom_site_fract_y
 _atom_site_fract_z
 _atom_site_occupancy
  V  V0  1  0.50069336  0.50544087  0.00986687  1
  V  V1  1  0.25346730  0.50186438  0.23202767  1
  V  V2  1  0.60709596  0.24000381  0.38669781  1
  V  V3  1  0.62162415  0.74065565  0.87888208  1
  V  V4  1  0.86741188  0.74460319  0.61521198  1
  V  V5  1  0.26757961  0.11812552  0.88197177  1
  V  V6  1  0.37561804  0.74378609  0.62765459  1
  V  V7  1  0.11774312  0.49199241  0.62111430  1
  V  V8  1  0.52426488  0.87827108  0.36207747  1
  V  V9  1  0.64168533  0.90581621  0.24777453  1
  V  V10  1  0.49914804  0.73595281  0.74542957  1
  V  V11  1  0.35180462  0.35319498  0.48342721  1
  V  V12  1  0.36343143  0.23921527  0.64336221  1
  V  V13  1  0.78168689  0.16479514  0.38714717  1
  V  V14  1  0.88630539  0.50404748  0.38679262  1
  V  V15  1  0.73724930  0.50959151  0.27390414  1
  V  V16  1  0.48071571  0.38498620  0.87904652  1
  V  V17  1  -0.00642258  0.72154401  0.25712006  1
  V  V18  1  0.25629027  -0.00567774  0.23290870  1
  V  V19  1  0.11178283  0.34979089  0.26322224  1
  V  V20  1  -0.00522629  0.10938288  0.62825581  1
  V  V21  1  0.75947664  0.60254506  0.88101129  1
  V  V22  1  0.38588418  0.88022492  0.49989148  1
  V  V23  1  0.36111528  0.85881848  -0.02082387  1
  V  V24  1  0.74895505  0.89254056  0.62255006  1
  V  V25  1  0.12386201  0.25489042  0.88389956  1
  V  V26  1  0.62809994  0.26249620  0.88628109  1
  V  V27  1  0.76468586  0.26295839  0.00975017  1
  V  V28  1  0.61027279  0.37663297  0.23533577  1
  V  V29  1  0.11565631  0.12423719  0.01424928  1
  V  V30  1  0.00286081  0.86940347  0.36657482  1
  V  V31  1  0.75820729  0.74483633  -0.00267776  1
  V  V32  1  0.11487703  -0.02577058  0.11580435  1
  V  V33  1  0.75941920  0.50617340  0.70019881  1
  V  V34  1  0.52475564  0.12405056  0.13931729  1
  V  V35  1  0.12672350  0.12946581  0.46454488  1
  V  V36  1  0.50341531  0.38170564  0.38554584  1
  V  V37  1  0.11648649  0.88538607  0.74817252  1
  V  V38  1  -0.00111847  0.62735410  0.60899108  1
  V  V39  1  0.11533459  0.61153321  0.00029285  1
  V  V40  1  0.25671421  0.62605225  0.86970372  1
  V  V41  1  0.76774495  0.00420663  0.76888669  1
  V  V42  1  0.26027050  0.50914682  0.74688511  1
  V  V43  1  0.36053739  0.22373666  0.10683637  1
  V  V44  1  0.24807342  0.87675333  0.62036850  1
  V  V45  1  0.86708341  -0.00880531  0.35298683  1
  V  V46  1  0.49870319  0.24411720  0.74619178  1
  V  V47  1  0.76767429  0.39024587  0.13316294  1
  V  V48  1  0.35870994  0.52311639  0.37716524  1
  V  V49  1  0.14005394  0.74085523  0.37540633  1
  V  V50  1  0.61228369  0.39698026  0.73401238  1
  V  V51  1  0.88149512  0.73139749  0.12793244  1
  V  V52  1  0.15591283  0.62641711  0.50219393  1
  V  V53  1  0.24936625  0.37205388  0.63632752  1
  V  V54  1  0.26961392  0.00021596  0.75522466  1
  V  V55  1  0.50200749  0.01344091  -0.01428632  1
  V  V56  1  -0.00506185  0.74566055  0.74717494  1
  V  V57  1  -0.07282971  0.19050622  0.19481285  1
  V  V58  1  0.76216219  0.88707851  0.11889084  1
  V  V59  1  0.37726183  0.67029389  0.22281089  1
  V  V60  1  0.88304360  0.88530523  0.50080868  1
  V  V61  1  0.62270947  0.88327129  0.75225799  1
  V  V62  1  0.12375366  0.75080419  0.87311973  1
  V  V63  1  0.50860364  0.01234701  0.51840186  1
  Zn  Zn64  1  0.19275947  0.16878633  0.20380785  1
  Zn  Zn65  1  0.17733525  0.18553944  0.70767134  1
  Zn  Zn66  1  0.17452048  0.65198422  0.20572426  1
  Zn  Zn67  1  0.18641157  0.69188907  0.68545442  1
  Zn  Zn68  1  0.70443709  0.20571248  0.20576634  1
  Zn  Zn69  1  0.69137501  0.19273757  0.72879559  1
  Zn  Zn70  1  0.69477091  0.69282692  0.18749295  1
  Zn  Zn71  1  0.70256587  0.68901770  0.70941340  1
  Zn  Zn72  1  0.28093452  0.30176971  0.28637267  1
  Zn  Zn73  1  0.28573671  0.32219493  0.83386356  1
  Zn  Zn74  1  0.31760442  0.85005335  0.30159640  1
  Zn  Zn75  1  0.31038178  0.81358380  0.81005581  1
  Zn  Zn76  1  0.80818376  0.33348022  0.44190178  1
  Zn  Zn77  1  0.78342803  0.38875869  0.84847927  1
  Zn  Zn78  1  0.81561695  0.81714307  0.30320354  1
  Zn  Zn79  1  0.80739382  0.80676409  0.80663595  1
  Zn  Zn80  1  0.19676247  0.44140862  0.43589264  1
  Zn  Zn81  1  0.18243497  0.44761946  0.93590557  1
  Zn  Zn82  1  0.19302349  0.92853228  0.42617028  1
  Zn  Zn83  1  0.18105702  0.93982370  0.93567815  1
  Zn  Zn84  1  0.67676100  0.45462871  0.46998783  1
  Zn  Zn85  1  0.66500979  0.43511509  0.95686664  1
  Zn  Zn86  1  0.70866640  0.99168204  0.46058882  1
  Zn  Zn87  1  0.68619732  0.93135288  0.93570769  1
  Zn  Zn88  1  0.31441771  0.03660104  0.05212678  1
  Zn  Zn89  1  0.31324525  0.05441100  0.56864670  1
  Zn  Zn90  1  0.31122397  0.59840693  0.06141476  1
  Zn  Zn91  1  0.33942135  0.54631867  0.56813683  1
  Zn  Zn92  1  0.81231159  0.08202423  0.05653222  1
  Zn  Zn93  1  0.79332149  0.14389753  0.57254842  1
  Zn  Zn94  1  0.80645260  0.56014514  0.06783105  1
  Zn  Zn95  1  0.80335288  0.58236940  0.52214676  1
  Zn  Zn96  1  0.42670022  0.43175148  0.19365572  1
  Zn  Zn97  1  0.43941765  0.43798824  0.68078584  1
  Zn  Zn98  1  0.45150955  0.94197242  0.17152953  1
  Zn  Zn99  1  0.44176681  0.93492777  0.68909515  1
  Zn  Zn100  1  0.89868317  0.35637966  0.26668891  1
  Zn  Zn101  1  0.91304690  0.45128942  0.59363918  1
  Zn  Zn102  1  0.94524773  0.92008915  0.17763779  1
  Zn  Zn103  1  0.94095298  0.94254857  0.68348262  1
  Zn  Zn104  1  0.07080311  0.03556664  0.29896408  1
  Zn  Zn105  1  0.05672119  0.08001076  0.81868311  1
  Zn  Zn106  1  0.08645405  0.53238582  0.32999887  1
  Zn  Zn107  1  0.06490409  0.56831900  0.79991108  1
  Zn  Zn108  1  0.54279248  0.05823757  0.32053051  1
  Zn  Zn109  1  0.57774981  0.07255116  0.81830386  1
  Zn  Zn110  1  0.52681295  0.54391216  0.28277999  1
  Zn  Zn111  1  0.55687668  0.56376642  0.82296413  1
  Zn  Zn112  1  0.48890576  0.21966896  0.52248435  1
  Zn  Zn113  1  0.44248637  0.18914426  0.93965558  1
  Zn  Zn114  1  0.44272214  0.70279224  0.43345365  1
  Zn  Zn115  1  0.43363539  0.69266194  0.93936200  1
  Zn  Zn116  1  0.95778946  0.16929823  0.40937211  1
  Zn  Zn117  1  0.97507499  0.25093348  1.01265065  1
  Zn  Zn118  1  0.92645626  0.68601498  0.43587056  1
  Zn  Zn119  1  0.93583528  0.67982408  0.93377608  1
  Zn  Zn120  1  0.16590964  0.29776458  0.09015609  1
  Zn  Zn121  1  0.09671366  0.29332095  0.54567023  1
  Zn  Zn122  1  0.09144650  0.76653935  0.08839957  1
  Zn  Zn123  1  0.06646250  0.80851470  0.55808949  1
  Zn  Zn124  1  0.53461768  0.30612796  0.06229830  1
  Zn  Zn125  1  0.67304488  0.29730838  0.56752535  1
  Zn  Zn126  1  0.58549073  0.84595875  0.04859700  1
  Zn  Zn127  1  0.56353592  0.81637940  0.57027728  1
  O  O128  1  0.13362178  0.11840344  0.11730414  1
  O  O129  1  0.11453944  0.13825909  0.61203191  1
  O  O130  1  0.13176776  0.65488050  0.09655855  1
  O  O131  1  0.12129652  0.62485192  0.61162125  1
  O  O132  1  0.62248396  0.14516812  0.14536392  1
  O  O133  1  0.71926523  0.21061732  0.62200152  1
  O  O134  1  0.58868276  0.65987618  0.13261128  1
  O  O135  1  0.66905852  0.69422601  0.53069103  1
  O  O136  1  0.33618207  0.33716909  0.38515217  1
  O  O137  1  0.38260035  0.37203040  0.86645932  1
  O  O138  1  0.37702921  0.86854664  0.40058584  1
  O  O139  1  0.37913788  0.87172036  0.87928034  1
  O  O140  1  0.87127817  0.39587161  0.37155337  1
  O  O141  1  0.90225603  0.39512480  0.84396452  1
  O  O142  1  0.88324632  0.86885679  0.38280501  1
  O  O143  1  0.87781750  0.88311690  0.88019466  1
  O  O144  1  0.24052654  -0.06531869  0.32440494  1
  O  O145  1  0.24503823  0.00324027  0.86058551  1
  O  O146  1  0.25500897  0.51235552  0.35937787  1
  O  O147  1  0.23722098  0.51378846  0.85526237  1
  O  O148  1  0.76808727  -0.02268091  0.36518292  1
  O  O149  1  0.75326500  -0.00985792  0.86992377  1
  O  O150  1  0.72231113  0.50352561  0.37550943  1
  O  O151  1  0.74841475  0.50006215  0.89096241  1
  O  O152  1  0.27408721  0.51541819  0.13290432  1
  O  O153  1  0.24582439  0.49046781  0.63129193  1
  O  O154  1  0.23900412  0.98758436  0.12588448  1
  O  O155  1  0.25282514  0.98422932  0.64191857  1
  O  O156  1  0.74602718  0.49467622  0.13650690  1
  O  O157  1  0.72988679  0.53458686  0.60843883  1
  O  O158  1  0.76635161  0.98338887  0.09864799  1
  O  O159  1  0.75234454  0.99011968  0.64067619  1
  O  O160  1  0.01362858  0.33708750  0.27578642  1
  O  O161  1  -0.06976322  0.46933859  0.84522481  1
  O  O162  1  -0.00075647  0.85381578  0.26414520  1
  O  O163  1  0.01151439  0.86209317  0.73584800  1
  O  O164  1  0.50646667  0.38311879  0.26721259  1
  O  O165  1  0.49951639  0.37568411  0.75671397  1
  O  O166  1  0.52525259  0.88620239  0.25331979  1
  O  O167  1  0.52061225  0.86874557  0.74537117  1
  O  O168  1  0.49284949  0.11320951  0.23538575  1
  O  O169  1  0.51420029  0.14691062  0.75260003  1
  O  O170  1  0.46749468  0.63199943  0.25903581  1
  O  O171  1  0.49895563  0.63790889  0.75262154  1
  O  O172  1  0.99960421  0.11429952  0.24495851  1
  O  O173  1  0.99443439  0.11374581  0.73088171  1
  O  O174  1  0.99371428  0.62561553  0.25646937  1
  O  O175  1  1.00373223  0.63918379  0.72902783  1
  O  O176  1  0.36937626  0.24923464  0.00863009  1
  O  O177  1  0.37219861  0.25578283  0.52434942  1
  O  O178  1  0.35106925  0.75682771  -0.01823107  1
  O  O179  1  0.38797773  0.76426152  0.52084122  1
  O  O180  1  0.86260128  0.27298072  -0.00140907  1
  O  O181  1  0.86071624  0.23009587  0.42321543  1
  O  O182  1  0.86993367  0.74078881  0.01072242  1
  O  O183  1  0.86841771  0.76169389  0.51110723  1
  O  O184  1  0.15395846  0.22816936  0.47363981  1
  O  O185  1  0.14727421  0.22969030  1.00219687  1
  O  O186  1  0.13172296  0.73619806  0.49182267  1
  O  O187  1  0.11355216  0.75544005  0.97299424  1
  O  O188  1  0.59410050  0.25153125  0.49306839  1
  O  O189  1  0.61500652  0.26325898  0.98681123  1
  O  O190  1  0.62617643  0.75147368  0.49411665  1
  O  O191  1  0.63394608  0.75528837  0.98240997  1
  O  O192  1  0.48145928  0.22292174  0.11681842  1
  O  O193  1  0.47914656  0.25221008  0.63891196  1
  O  O194  1  0.54105776  0.71507490  0.11742239  1
  O  O195  1  0.49408659  0.75050478  0.63764711  1
  O  O196  1  0.97812829  0.24752391  0.12797517  1
  O  O197  1  1.06298907  0.20881535  0.62270869  1
  O  O198  1  0.98923691  0.74695895  0.14131222  1
  O  O199  1  0.98968045  0.74604918  0.62616801  1
  O  O200  1  -0.00177960  0.18594980  0.29104704  1
  O  O201  1  0.03025661  0.27909166  0.91482448  1
  O  O202  1  -0.00649453  0.74714188  0.36678358  1
  O  O203  1  0.00487986  0.73971332  0.85420630  1
  O  O204  1  0.50335136  0.27391565  0.37143405  1
  O  O205  1  0.50438323  0.26418816  0.86730650  1
  O  O206  1  0.50608487  0.78011992  0.38130746  1
  O  O207  1  0.51576498  0.74299938  0.86788279  1
  O  O208  1  0.22489260  0.07521110  0.49230373  1
  O  O209  1  0.24649460  0.10322268  0.98308705  1
  O  O210  1  0.25263594  0.62322939  0.51359626  1
  O  O211  1  0.23568551  0.62245518  0.97595828  1
  O  O212  1  0.74999855  0.10582103  0.46949487  1
  O  O213  1  0.75051126  0.16296282  1.00529538  1
  O  O214  1  0.71752366  0.65789983  0.48008415  1
  O  O215  1  0.75008824  0.63015956  0.98948519  1
  O  O216  1  0.30485138  0.42949852  -0.00563035  1
  O  O217  1  0.24757237  0.36964804  0.51734047  1
  O  O218  1  0.26509065  0.88967704  -0.00545034  1
  O  O219  1  0.25864947  0.88044440  0.51576055  1
  O  O220  1  0.74272052  0.38207884  0.02450481  1
  O  O221  1  0.73942070  0.37567748  0.51980141  1
  O  O222  1  0.74479072  0.85639476  0.01031339  1
  O  O223  1  0.75967126  0.88930868  0.51694679  1
  O  O224  1  0.15326811  0.54219970  0.23820851  1
  O  O225  1  0.13189761  0.50810759  0.72419880  1
  O  O226  1  0.13926644  0.98543684  0.22470164  1
  O  O227  1  0.11083643  0.98382728  0.75967818  1
  O  O228  1  0.61784038  0.48565019  0.25538341  1
  O  O229  1  0.60150761  0.49812378  0.73923146  1
  O  O230  1  0.63485608  1.00267897  0.25070178  1
  O  O231  1  0.63401019  0.98510747  0.76128823  1
  O  O232  1  0.35350458  -0.04942994  0.22760350  1
  O  O233  1  0.36818312  -0.00478425  0.75446979  1
  O  O234  1  0.36403188  0.49565263  0.26665329  1
  O  O235  1  0.35831583  0.50188485  0.74609724  1
  O  O236  1  0.88152684  -0.02172723  0.25509294  1
  O  O237  1  0.86676060  -0.01300219  0.75681360  1
  O  O238  1  0.84359944  0.51005891  0.28113690  1
  O  O239  1  0.85654685  0.48493248  0.69017672  1
  O  O240  1  0.12448745  0.41714566  0.34828364  1
  O  O241  1  0.18170442  0.34628330  0.89496392  1
  O  O242  1  0.10687485  0.85120797  0.39076451  1
  O  O243  1  0.12744936  0.86174143  0.85832527  1
  O  O244  1  0.60161920  0.39028040  0.39988187  1
  O  O245  1  0.60778296  0.37788838  0.86630480  1
  O  O246  1  0.62832553  0.88610896  0.35983446  1
  O  O247  1  0.64024500  0.85137783  0.85565611  1
  O  O248  1  0.36683500  0.12232381  0.11355282  1
  O  O249  1  0.35312957  0.14174993  0.62842498  1
  O  O250  1  0.37807335  0.66610644  0.12034648  1
  O  O251  1  0.36373650  0.64700156  0.62654262  1
  O  O252  1  0.86889504  0.12536945  0.14362332  1
  O  O253  1  0.90049363  0.13864574  0.60143203  1
  O  O254  1  0.87536558  0.63282154  0.12588278  1
  O  O255  1  0.87834116  0.64026594  0.60955882  1
  O  O256  1  0.25622409  0.23770349  0.12930593  1
  O  O257  1  0.24998191  0.26300163  0.65011698  1
  O  O258  1  0.23455373  0.76769872  0.12837991  1
  O  O259  1  0.26452709  0.76715124  0.64200741  1
  O  O260  1  0.74580963  0.27481779  0.12026314  1
  O  O261  1  0.86887926  0.27408064  0.72710904  1
  O  O262  1  0.76263601  0.74720995  0.11650774  1
  O  O263  1  0.76610472  0.75561702  0.64007319  1
  O  O264  1  0.30310424  0.17303149  0.38094765  1
  O  O265  1  0.24749740  0.21872702  0.86182836  1
  O  O266  1  0.23366654  0.76007995  0.36164026  1
  O  O267  1  0.23094822  0.73702230  0.85367111  1
  O  O268  1  0.71691932  0.25255227  0.40117352  1
  O  O269  1  0.73644954  0.29119401  0.89409167  1
  O  O270  1  0.71937791  0.75313979  0.33734388  1
  O  O271  1  0.74870211  0.73556074  0.87692370  1
  O  O272  1  0.01708083  0.13738953  0.00907452  1
  O  O273  1  0.02445229  0.12665357  0.48968620  1
  O  O274  1  0.01505508  0.62190442  -0.01024617  1
  O  O275  1  0.00492486  0.63305152  0.50803237  1
  O  O276  1  0.51006699  0.11652126  0.00336465  1
  O  O277  1  0.48532789  0.10894301  0.49921202  1
  O  O278  1  0.46942727  0.60072175  -0.00710883  1
  O  O279  1  0.51197088  0.62974427  0.50573295  1
  O  O280  1  0.45953841  0.37522118  0.48246772  1
  O  O281  1  0.49191019  0.38489919  0.98616257  1
  O  O282  1  0.49519663  0.88394964  0.50558455  1
  O  O283  1  0.47218744  0.83385531  1.03136389  1
  O  O284  1  0.98471903  0.32718024  0.51992501  1
  O  O285  1  0.98479577  0.41540664  1.01189581  1
  O  O286  1  0.98719770  0.86281154  0.49165296  1
  O  O287  1  0.93169453  0.86234155  0.92636456  1
  O  O288  1  0.46800639  0.48554674  0.37202553  1
  O  O289  1  0.49254756  0.49067383  0.88405985  1
  O  O290  1  0.49754209  0.97937264  0.38874433  1
  O  O291  1  0.50522508  1.01765328  0.88384445  1
  O  O292  1  0.98416544  0.51442339  0.37623587  1
  O  O293  1  1.01000027  0.47102379  0.84175884  1
  O  O294  1  0.99720444  0.97298314  0.36651382  1
  O  O295  1  0.98244881  1.01459900  0.89263773  1
  O  O296  1  0.01590422  -0.00665493  0.13059782  1
  O  O297  1  0.00103093  0.00832321  0.61359345  1
  O  O298  1  -0.04928455  0.47655995  0.03774980  1
  O  O299  1  0.01356012  0.50873847  0.61838702  1
  O  O300  1  0.51187551  0.01795402  0.11213331  1
  O  O301  1  0.49950201  0.00289295  0.61986268  1
  O  O302  1  0.46847202  0.48664407  0.10534178  1
  O  O303  1  0.44340078  0.50903217  0.59739015  1
  O  O304  1  0.23912062  0.40154976  0.24065661  1
  O  O305  1  0.24519031  0.39110183  0.74175009  1
  O  O306  1  0.26359762  0.82858382  0.15594178  1
  O  O307  1  0.23824886  0.88616441  0.74692424  1
  O  O308  1  0.72628154  0.39224636  0.23817993  1
  O  O309  1  0.72724432  0.41021484  0.74517332  1
  O  O310  1  0.75030229  0.88362763  0.23340302  1
  O  O311  1  0.74707888  0.88095287  0.74261555  1
  O  O312  1  0.26268863  0.09141337  0.25448114  1
  O  O313  1  0.24351626  0.10284155  0.75460470  1
  O  O314  1  0.28317515  0.62920264  0.24634179  1
  O  O315  1  0.24389328  0.61663197  0.75142078  1
  O  O316  1  0.74690305  0.14331077  0.29441016  1
  O  O317  1  0.75359760  0.10320889  0.75547032  1
  O  O318  1  0.71960386  0.60527685  0.24920801  1
  O  O319  1  0.74674380  0.59687586  0.75990059  1
  O  O320  1  0.36503084  0.13565623  0.38524970  1
  O  O321  1  0.36706192  0.12141070  0.88149937  1
  O  O322  1  0.37392427  0.61976782  0.39718009  1
  O  O323  1  0.35440377  0.63277178  0.86963468  1
  O  O324  1  0.87648579  0.09415713  0.36826422  1
  O  O325  1  0.91825641  0.05131705  0.91897724  1
  O  O326  1  0.85190881  0.60683020  0.41038040  1
  O  O327  1  0.85827750  0.61785956  0.87358308  1
  O  O328  1  0.11461661  0.36703276  0.15994313  1
  O  O329  1  0.13060809  0.38618519  0.61357851  1
  O  O330  1  0.11589163  0.87496978  0.10293477  1
  O  O331  1  0.13908285  0.86587069  0.63341023  1
  O  O332  1  0.60071930  0.36610397  0.13677971  1
  O  O333  1  0.61140160  0.37703520  0.63644655  1
  O  O334  1  0.64573548  0.86943519  0.14188414  1
  O  O335  1  0.64288348  0.86780975  0.63873085  1
  O  O336  1  0.16972703  0.26008382  0.27739972  1
  O  O337  1  0.11438445  0.24608455  0.78196909  1
  O  O338  1  0.10879010  0.73093028  0.26704872  1
  O  O339  1  0.11168659  0.75647859  0.75071703  1
  O  O340  1  0.62864783  0.27832524  0.27552562  1
  O  O341  1  0.61113308  0.27403325  0.75591424  1
  O  O342  1  0.66261441  0.75862424  0.28368199  1
  O  O343  1  0.61665636  0.74964772  0.75245267  1
  O  O344  1  0.37616869  0.27286002  0.22213782  1
  O  O345  1  0.38458822  0.25234472  0.74818990  1
  O  O346  1  0.37310184  0.76742420  0.25114485  1
  O  O347  1  0.39314335  0.76108702  0.74425011  1
  O  O348  1  0.85980281  0.24973030  0.24515470  1
  O  O349  1  0.93694988  0.26862137  0.75108265  1
  O  O350  1  0.88071527  0.74307010  0.24096559  1
  O  O351  1  0.88939066  0.75913912  0.73760468  1
  O  O352  1  0.34655014  0.47466832  0.47267530  1
  O  O353  1  0.34793587  0.48985583  0.98735822  1
  O  O354  1  0.38334488  0.98533754  0.51029294  1
  O  O355  1  0.40327604  0.97648476  1.00194611  1
  O  O356  1  0.86697901  0.48667051  0.49649974  1
  O  O357  1  0.87963051  0.49409945  1.00134710  1
  O  O358  1  0.88228820  0.98212320  0.48350627  1
  O  O359  1  0.88905996  1.01970659  0.98486309  1
  O  O360  1  0.12293625  0.00848424  0.00887752  1
  O  O361  1  0.15972751  0.01840521  0.49690293  1
  O  O362  1  0.12639490  0.51183215  0.00743291  1
  O  O363  1  0.13750134  0.51514028  0.51122282  1
  O  O364  1  0.59071828  -0.04975141  -0.00546900  1
  O  O365  1  0.60893742  0.00234334  0.50515281  1
  O  O366  1  0.60096413  0.51068768  0.01096244  1
  O  O367  1  0.59599227  0.52946843  0.52127311  1
  O  O368  1  0.37643442  0.33160564  0.15956733  1
  O  O369  1  0.35484778  0.36612381  0.62462246  1
  O  O370  1  0.41974222  0.85083841  0.09428048  1
  O  O371  1  0.36596858  0.87004083  0.62310342  1
  O  O372  1  0.86483626  0.38825123  0.15223437  1
  O  O373  1  0.94461799  0.33786112  0.58750447  1
  O  O374  1  0.86453029  0.85700228  0.12502409  1
  O  O375  1  0.86983373  0.87090507  0.61505287  1
  O  O376  1  0.12583773  0.11083153  0.36523826  1
  O  O377  1  0.12520792  0.13363951  0.89217957  1
  O  O378  1  0.13250256  0.62935628  0.39310451  1
  O  O379  1  0.12495035  0.63317363  0.87745843  1
  O  O380  1  0.60013316  0.14318209  0.37168396  1
  O  O381  1  0.63800109  0.16405951  0.85874129  1
  O  O382  1  0.55780252  0.57631870  0.47001393  1
  O  O383  1  0.63941392  0.63493228  0.86893030  1
