# generated using pymatgen
data_VZnO4
_symmetry_space_group_name_H-M   'P 1'
_cell_length_a   16.90872193
_cell_length_b   16.85240545
_cell_length_c   16.83355628
_cell_angle_alpha   90.14797221
_cell_angle_beta   89.84801385
_cell_angle_gamma   90.06180789
_symmetry_Int_Tables_number   1
_chemical_formula_structural   VZnO4
_chemical_formula_sum   'V64 Zn64 O256'
_cell_volume   4796.73063301
_cell_formula_units_Z   64
loop_
 _symmetry_equiv_pos_site_id
 _symmetry_equiv_pos_as_xyz
  1  'x, y, z'
loop_
 _atom_site_type_symbol
 _atom_site_label
 _atom_site_symmetry_multiplicity
 _atom_site_fract_x
 _atom_site_fract_y
 _atom_site_fract_z
 _atom_site_occupancy
  V  V0  1  0.21334947  0.63440952  0.36067330  1
  V  V1  1  0.48033098  0.09856189  0.61011580  1
  V  V2  1  0.11359168  0.00022392  0.61790349  1
  V  V3  1  -0.00113228  0.12368862  0.12778377  1
  V  V4  1  0.25838057  0.11379122  0.37757676  1
  V  V5  1  0.27304800  0.25705429  0.50384945  1
  V  V6  1  0.68673506  0.19059229  0.45176745  1
  V  V7  1  0.01154421  0.64017942  0.57797021  1
  V  V8  1  0.50284399  0.37293609  0.86901185  1
  V  V9  1  -0.00110222  0.24418502  0.28022012  1
  V  V10  1  0.13901400  0.01175566  0.11811627  1
  V  V11  1  0.36813189  0.49628238  0.86026372  1
  V  V12  1  0.37434797  0.25325685  0.65493295  1
  V  V13  1  -0.00068359  0.01003544  0.49251853  1
  V  V14  1  0.86039313  0.25946959  0.62731233  1
  V  V15  1  0.37945171  0.11242861  0.26131241  1
  V  V16  1  0.48569295  0.01099719  -0.01180838  1
  V  V17  1  0.89628616  0.13512470  0.75189548  1
  V  V18  1  0.37094095  0.25135980  0.11572335  1
  V  V19  1  0.63238021  0.14263636  0.00614167  1
  V  V20  1  0.11532851  0.50523775  0.64230428  1
  V  V21  1  0.23843067  0.86604746  0.59690007  1
  V  V22  1  -0.01050306  0.74853434  0.75724240  1
  V  V23  1  0.87680815  0.01318900  0.36379227  1
  V  V24  1  0.84533885  0.76301457  0.11252210  1
  V  V25  1  0.50103624  0.28009485  0.26320737  1
  V  V26  1  0.74475280  0.63644231  0.87681043  1
  V  V27  1  0.53346872  0.62246289  0.61781112  1
  V  V28  1  0.35264144  0.73108049  0.61781200  1
  V  V29  1  -0.01665304  0.88799519  0.88270251  1
  V  V30  1  0.11582667  0.87253810  0.74793328  1
  V  V31  1  0.13384658  0.35666098  0.27611078  1
  V  V32  1  0.38891391  0.61994123  0.26278322  1
  V  V33  1  0.75426584  0.38689758  0.13303599  1
  V  V34  1  0.86526085  0.87854107  0.49927806  1
  V  V35  1  0.63267559  -0.01107851  0.12277169  1
  V  V36  1  0.86760100  0.62854907  0.25281899  1
  V  V37  1  0.63396235  0.87952767  0.29168802  1
  V  V38  1  0.24374282  0.63896352  0.89179382  1
  V  V39  1  0.64397953  0.47236884  0.63562394  1
  V  V40  1  -0.00376785  0.75262187  0.22266172  1
  V  V41  1  0.86946896  0.61223701  0.74934441  1
  V  V42  1  0.49143192  0.49699860  0.00937233  1
  V  V43  1  0.74757303  0.50491956  0.26994136  1
  V  V44  1  0.75146926  0.01948141  0.25274130  1
  V  V45  1  0.13570583  0.88231598  0.24019528  1
  V  V46  1  0.60661117  0.71646467  0.38191466  1
  V  V47  1  0.86342033  0.75466566  0.62482574  1
  V  V48  1  0.50971402  0.13032398  0.14046542  1
  V  V49  1  0.75754474  0.26468111  0.00228976  1
  V  V50  1  0.12257394  0.14145907  0.49277389  1
  V  V51  1  0.63516302  0.87489201  0.71530050  1
  V  V52  1  0.88017801  0.25844519  0.15141414  1
  V  V53  1  0.27531177  -0.01597270  0.76518634  1
  V  V54  1  0.62693050  0.63848148  0.00327163  1
  V  V55  1  0.74489487  0.01829827  0.74290015  1
  V  V56  1  0.49706228  0.47388255  0.50151127  1
  V  V57  1  0.88552579  0.49970177  0.89583561  1
  V  V58  1  0.62765710  0.25748198  0.86363989  1
  V  V59  1  0.76185849  0.72394384  0.47876933  1
  V  V60  1  0.62396808  0.50377410  0.11867389  1
  V  V61  1  0.10641396  0.61779043  0.02381358  1
  V  V62  1  0.12408367  0.45402588  0.12029325  1
  V  V63  1  0.00229577  0.86574326  0.36706629  1
  Zn  Zn64  1  0.18944783  0.20180896  0.18906337  1
  Zn  Zn65  1  0.19993870  0.17120187  0.68689721  1
  Zn  Zn66  1  0.17683018  0.68882544  0.17039153  1
  Zn  Zn67  1  0.18416652  0.68205706  0.69825840  1
  Zn  Zn68  1  0.68259388  0.20483288  0.19856255  1
  Zn  Zn69  1  0.68287273  0.19863023  0.67188293  1
  Zn  Zn70  1  0.68146191  0.69155729  0.19877054  1
  Zn  Zn71  1  0.69024778  0.68950997  0.68563595  1
  Zn  Zn72  1  0.30900599  0.29506747  0.30964932  1
  Zn  Zn73  1  0.32163503  0.30869163  0.83112081  1
  Zn  Zn74  1  0.29716230  0.77766980  0.29716914  1
  Zn  Zn75  1  0.50319847  0.74798987  0.75655085  1
  Zn  Zn76  1  0.78119659  0.30955453  0.34188043  1
  Zn  Zn77  1  0.84621168  0.36404072  0.76381887  1
  Zn  Zn78  1  0.81462460  0.82298928  0.30403016  1
  Zn  Zn79  1  0.77133455  0.85150602  0.84925083  1
  Zn  Zn80  1  0.32743723  0.44827762  0.42159522  1
  Zn  Zn81  1  0.20843747  0.47532252  0.97718094  1
  Zn  Zn82  1  0.18424009  0.93358859  0.42903200  1
  Zn  Zn83  1  0.16596686  0.95089084  0.93325612  1
  Zn  Zn84  1  0.65208101  0.39372675  0.45686658  1
  Zn  Zn85  1  0.71532902  0.42518327  0.90026213  1
  Zn  Zn86  1  0.70120245  0.98582477  0.45949776  1
  Zn  Zn87  1  0.68545067  0.97767194  0.92100491  1
  Zn  Zn88  1  0.31119912  0.09113285  0.06557420  1
  Zn  Zn89  1  0.29052515  0.07037021  0.58992399  1
  Zn  Zn90  1  0.30402816  0.55016315  0.08941112  1
  Zn  Zn91  1  0.30815801  0.54150305  0.57779115  1
  Zn  Zn92  1  0.80482815  0.08397212  0.08655763  1
  Zn  Zn93  1  0.80043134  0.07869639  0.58090200  1
  Zn  Zn94  1  0.81458696  0.57819857  0.06329770  1
  Zn  Zn95  1  0.82161184  0.55318021  0.56195572  1
  Zn  Zn96  1  0.37977594  0.43141518  0.21955496  1
  Zn  Zn97  1  0.44586522  0.43770343  0.68508786  1
  Zn  Zn98  1  0.46066739  0.94416974  0.20342029  1
  Zn  Zn99  1  0.43166451  0.90249120  0.67714073  1
  Zn  Zn100  1  0.95199004  0.44362686  0.24278779  1
  Zn  Zn101  1  0.96571195  0.41934824  0.59045018  1
  Zn  Zn102  1  0.93153057  0.93514586  0.17821528  1
  Zn  Zn103  1  0.92634661  0.94344056  0.68728288  1
  Zn  Zn104  1  0.06566151  0.06668700  0.30690333  1
  Zn  Zn105  1  0.05055388  0.06182721  0.80619412  1
  Zn  Zn106  1  0.07833626  0.56500037  0.24633366  1
  Zn  Zn107  1  0.06993055  0.56958584  0.82506022  1
  Zn  Zn108  1  0.56890523  0.06559513  0.32678912  1
  Zn  Zn109  1  0.52549970  0.00491245  0.79067120  1
  Zn  Zn110  1  0.56003284  0.53346727  0.31478952  1
  Zn  Zn111  1  0.56486202  0.56038778  0.80476337  1
  Zn  Zn112  1  0.44952630  0.19195135  0.44081562  1
  Zn  Zn113  1  0.45163433  0.17584991  0.93177538  1
  Zn  Zn114  1  0.42565581  0.66005855  0.44800771  1
  Zn  Zn115  1  0.44752586  0.66720007  0.91884298  1
  Zn  Zn116  1  0.90073585  0.20406857  0.45006485  1
  Zn  Zn117  1  0.91809654  0.16735709  0.95320342  1
  Zn  Zn118  1  1.00559132  0.65437870  0.40395080  1
  Zn  Zn119  1  0.93272211  0.69504073  0.94039523  1
  Zn  Zn120  1  -0.04723227  0.43390964  0.05997442  1
  Zn  Zn121  1  0.12979267  0.36792027  0.49329335  1
  Zn  Zn122  1  0.07778438  0.81357424  0.05573746  1
  Zn  Zn123  1  0.05766823  0.80630291  0.55130468  1
  Zn  Zn124  1  0.55775372  0.32303016  0.07618765  1
  Zn  Zn125  1  0.55534860  0.29825860  0.58375388  1
  Zn  Zn126  1  0.56872057  0.82006342  -0.07785716  1
  Zn  Zn127  1  0.57496248  0.81197645  0.54280432  1
  O  O128  1  0.11068799  0.12046958  0.14056258  1
  O  O129  1  0.12685084  0.10875733  0.60661100  1
  O  O130  1  0.12498767  0.58883961  0.13456274  1
  O  O131  1  0.11483596  0.61808325  0.63082527  1
  O  O132  1  0.62167055  0.12878195  0.12940255  1
  O  O133  1  0.58354237  0.11293272  0.65937937  1
  O  O134  1  0.63528523  0.61837871  0.11505839  1
  O  O135  1  0.63500367  0.60792733  0.61753858  1
  O  O136  1  0.33481836  0.40409578  0.32214314  1
  O  O137  1  0.39206491  0.38128424  0.88230835  1
  O  O138  1  0.38432657  0.85269787  0.36081597  1
  O  O139  1  0.30409989  0.87087368  0.94870144  1
  O  O140  1  0.86421904  0.38149612  0.40200853  1
  O  O141  1  0.87960005  0.40096404  0.86996404  1
  O  O142  1  0.88532918  0.88551450  0.37993351  1
  O  O143  1  0.88408918  0.87436770  0.87560972  1
  O  O144  1  0.25532014  0.01361922  0.39082306  1
  O  O145  1  0.24259903  -0.00410800  0.85921103  1
  O  O146  1  0.22939346  0.52576603  0.41027637  1
  O  O147  1  0.26977678  0.47459870  0.88164712  1
  O  O148  1  0.76780846  0.00748163  0.36404141  1
  O  O149  1  0.76780303  -0.00719049  0.84558149  1
  O  O150  1  0.73753348  0.49012270  0.36475945  1
  O  O151  1  0.77316976  0.52168557  0.88476680  1
  O  O152  1  0.22897736  0.45900813  0.09539965  1
  O  O153  1  0.21289206  0.49598038  0.61491255  1
  O  O154  1  0.23801555  1.02126078  0.12116678  1
  O  O155  1  0.21971353  0.97991446  0.59258034  1
  O  O156  1  0.75041012  0.49388314  0.12352588  1
  O  O157  1  0.74323494  0.48718547  0.61431553  1
  O  O158  1  0.74241139  1.00534387  0.14038824  1
  O  O159  1  0.76232896  0.99136933  0.64243696  1
  O  O160  1  0.01760850  0.35413856  0.26848136  1
  O  O161  1  0.03432912  0.30795153  0.80220138  1
  O  O162  1  -0.00367481  0.87195911  0.25431341  1
  O  O163  1  -0.00127181  0.87243648  0.75149614  1
  O  O164  1  0.48624116  0.37813603  0.24329988  1
  O  O165  1  0.50589389  0.37976037  0.77044144  1
  O  O166  1  0.53628358  0.88686221  0.26239624  1
  O  O167  1  0.52740848  0.89353152  0.75068205  1
  O  O168  1  0.49559157  0.12237919  0.25566307  1
  O  O169  1  0.52499554  0.10921955  0.72048028  1
  O  O170  1  0.48851577  0.60595850  0.26140223  1
  O  O171  1  0.50929449  0.62799750  0.72514196  1
  O  O172  1  0.99490826  0.13858160  0.24883141  1
  O  O173  1  0.99707912  0.13682412  0.74065247  1
  O  O174  1  0.99249025  0.64815578  0.23285737  1
  O  O175  1  0.98761647  0.64260083  0.75813969  1
  O  O176  1  0.39633042  0.23989701  0.01719895  1
  O  O177  1  0.37315071  0.25427807  0.51020926  1
  O  O178  1  0.36474783  0.84130523  -0.02080009  1
  O  O179  1  0.37657346  0.73869843  0.51994837  1
  O  O180  1  0.85980936  0.24969885  0.01174367  1
  O  O181  1  0.91529793  0.27046101  0.53959084  1
  O  O182  1  0.86189553  0.74593678  0.01277130  1
  O  O183  1  0.86538904  0.76710227  0.50172244  1
  O  O184  1  0.12435069  0.24044008  0.50317032  1
  O  O185  1  0.08628472  0.26875923  0.94857538  1
  O  O186  1  0.07074756  0.69774940  0.50887124  1
  O  O187  1  0.14034383  0.71748425  1.05692470  1
  O  O188  1  0.63160089  0.22597607  0.53185794  1
  O  O189  1  0.63297132  0.24937461  1.02076244  1
  O  O190  1  0.65125152  0.74822155  0.47776890  1
  O  O191  1  0.61031846  0.73514609  1.00206963  1
  O  O192  1  0.49369610  0.24603136  0.13950470  1
  O  O193  1  0.47671769  0.23531136  0.63930090  1
  O  O194  1  0.46003350  0.79978037  0.10807664  1
  O  O195  1  0.52648897  0.72268738  0.59600555  1
  O  O196  1  0.98271556  0.25001935  0.14641353  1
  O  O197  1  1.04849792  0.30475434  0.73076755  1
  O  O198  1  0.98639561  0.76797083  0.12413672  1
  O  O199  1  0.98307546  0.73946416  0.62749216  1
  O  O200  1  -0.01503726  0.24041452  0.37826383  1
  O  O201  1  0.01921007  0.29820555  0.96675615  1
  O  O202  1  -0.00151383  0.76491701  0.35946268  1
  O  O203  1  -0.00785928  0.76207921  0.85968528  1
  O  O204  1  0.48551047  0.26568844  0.36370117  1
  O  O205  1  0.51267819  0.26125160  0.88101738  1
  O  O206  1  0.50921704  0.73029887  0.39810629  1
  O  O207  1  0.49169605  0.75491592  0.87080689  1
  O  O208  1  0.23927398  0.13172499  0.49753724  1
  O  O209  1  0.27943781  0.12644195  0.94672830  1
  O  O210  1  0.23082343  0.58769802  0.46766428  1
  O  O211  1  0.23824069  0.59415953  1.00168661  1
  O  O212  1  0.71832241  0.09160294  0.50299101  1
  O  O213  1  0.73989958  0.14579503  1.01566990  1
  O  O214  1  0.77369665  0.62589356  0.48399817  1
  O  O215  1  0.73702014  0.62995689  0.99166897  1
  O  O216  1  0.23564721  0.32821966  -0.01355898  1
  O  O217  1  0.24975816  0.35657289  0.49759009  1
  O  O218  1  0.24162335  0.88597423  0.00000766  1
  O  O219  1  0.21110263  0.84853033  0.50076909  1
  O  O220  1  0.74965767  0.36985650  0.01316973  1
  O  O221  1  0.83427949  0.40683199  0.46979750  1
  O  O222  1  0.81712630  0.94523117  -0.00267872  1
  O  O223  1  0.76725292  0.89233926  0.49478506  1
  O  O224  1  0.13687412  0.45881195  0.23561873  1
  O  O225  1  0.10771451  0.49732590  0.74296603  1
  O  O226  1  0.12405740  0.99075720  0.24061840  1
  O  O227  1  0.10451697  0.99163976  0.72414039  1
  O  O228  1  0.64301301  0.51114878  0.23558534  1
  O  O229  1  0.63087610  0.49771627  0.73623957  1
  O  O230  1  0.63736805  1.00005164  0.24827502  1
  O  O231  1  0.64028140  0.98765952  0.75277543  1
  O  O232  1  0.38062668  0.01169026  0.24919037  1
  O  O233  1  0.37419373  -0.03418318  0.76285566  1
  O  O234  1  0.35723466  0.54343826  0.19109391  1
  O  O235  1  0.37479623  0.49567383  0.76121889  1
  O  O236  1  0.86406774  -0.00065648  0.25535564  1
  O  O237  1  0.87287643  0.02864853  0.73851956  1
  O  O238  1  0.86189035  0.51635605  0.24740878  1
  O  O239  1  0.87841280  0.51525774  0.75004241  1
  O  O240  1  0.14969188  0.36811151  0.37323004  1
  O  O241  1  0.15737784  0.37222164  0.83583381  1
  O  O242  1  0.10917706  0.88364161  0.35501118  1
  O  O243  1  0.11623036  0.88239717  0.85003325  1
  O  O244  1  0.67910516  0.30633133  0.39895443  1
  O  O245  1  0.61420290  0.36561696  0.88826414  1
  O  O246  1  0.64071045  0.90646315  0.38907913  1
  O  O247  1  0.66296686  0.87213716  0.89286851  1
  O  O248  1  0.39764105  0.12447206  0.14283321  1
  O  O249  1  0.37822517  0.13011315  0.62276941  1
  O  O250  1  0.33926633  0.70475196  0.07695312  1
  O  O251  1  0.35016244  0.63139792  0.63701987  1
  O  O252  1  0.88056530  0.14792388  0.13755462  1
  O  O253  1  0.87553641  0.14715462  0.63001728  1
  O  O254  1  0.86430791  0.64734387  0.13885740  1
  O  O255  1  0.87296499  0.63339299  0.63962544  1
  O  O256  1  0.27455005  0.20261466  0.11027062  1
  O  O257  1  0.26167369  0.23738713  0.61567426  1
  O  O258  1  0.29078976  0.75006998  0.10860481  1
  O  O259  1  0.24660017  0.75875041  0.63374904  1
  O  O260  1  0.75726303  0.26780853  0.13074751  1
  O  O261  1  0.76053248  0.26204821  0.61273140  1
  O  O262  1  0.74557461  0.75655983  0.13085923  1
  O  O263  1  0.75981520  0.74173649  0.60278270  1
  O  O264  1  0.26301878  0.23126150  0.39699741  1
  O  O265  1  0.24830139  0.27735958  0.93366993  1
  O  O266  1  0.23779673  0.73022502  0.38486946  1
  O  O267  1  0.25463556  0.73268379  0.90856942  1
  O  O268  1  0.78766641  0.21392572  0.42139492  1
  O  O269  1  0.73387655  0.25969298  0.90024858  1
  O  O270  1  0.76858411  0.74788191  0.38095473  1
  O  O271  1  0.75593583  0.73524283  0.87509117  1
  O  O272  1  -0.00417843  0.13873965  0.02695002  1
  O  O273  1  0.01127240  0.11492205  0.48905776  1
  O  O274  1  0.01001317  0.63828855  0.00837118  1
  O  O275  1  -0.05128028  0.61495089  0.50125949  1
  O  O276  1  0.51768314  0.12527025  0.02107824  1
  O  O277  1  0.50039985  0.12135128  0.51198556  1
  O  O278  1  0.51749993  0.60734289  -0.00860548  1
  O  O279  1  0.49230387  0.59545340  0.51866325  1
  O  O280  1  0.49574413  0.37296146  0.51823150  1
  O  O281  1  0.50669848  0.39241280  0.99803287  1
  O  O282  1  0.50215569  0.88736041  0.47625152  1
  O  O283  1  0.51212990  0.91544957  0.97520454  1
  O  O284  1  1.01816563  0.41767300  0.43663358  1
  O  O285  1  1.01472029  0.37877332  0.96920010  1
  O  O286  1  0.99690549  0.88069400  0.48021106  1
  O  O287  1  1.01621882  0.86502779  0.97689752  1
  O  O288  1  0.50739503  0.48079895  0.39955310  1
  O  O289  1  0.49013549  0.49328614  0.88468582  1
  O  O290  1  0.49626320  0.99419524  0.39649794  1
  O  O291  1  0.48674920  1.05273907  0.89047651  1
  O  O292  1  0.99618458  0.51132727  0.34182991  1
  O  O293  1  0.98284764  0.51960106  0.87802818  1
  O  O294  1  0.99352355  0.99356045  0.37472803  1
  O  O295  1  1.00161747  0.98939385  0.87512687  1
  O  O296  1  -0.00897520  0.02148949  0.13462461  1
  O  O297  1  0.00268813  -0.00670053  0.60109676  1
  O  O298  1  0.01003284  0.47878923  0.14795122  1
  O  O299  1  0.00690439  0.53392990  0.60968929  1
  O  O300  1  0.52005538  0.01045329  0.12347405  1
  O  O301  1  0.46725854  -0.00187321  0.61238558  1
  O  O302  1  0.51931145  0.49849810  0.11821028  1
  O  O303  1  0.51758765  0.49968123  0.62329777  1
  O  O304  1  0.22024726  0.31566436  0.23287999  1
  O  O305  1  0.20647358  0.34625244  0.78644220  1
  O  O306  1  0.23341419  0.86377474  0.25230822  1
  O  O307  1  0.22442975  0.89131966  0.72789724  1
  O  O308  1  0.75897421  0.39195227  0.24167937  1
  O  O309  1  0.74053126  0.37888000  0.79609999  1
  O  O310  1  0.73542116  0.89191337  0.25645618  1
  O  O311  1  0.73731930  0.87210064  0.73771060  1
  O  O312  1  0.26511273  0.12894845  0.26932285  1
  O  O313  1  0.25636489  0.07260760  0.71505844  1
  O  O314  1  0.23722733  0.63335906  0.25755010  1
  O  O315  1  0.22570129  0.63056752  0.78930035  1
  O  O316  1  0.74606138  0.11953746  0.24960680  1
  O  O317  1  0.73923697  0.12061984  0.73936249  1
  O  O318  1  0.75779260  0.61949320  0.25795516  1
  O  O319  1  0.76148751  0.62981784  0.75905818  1
  O  O320  1  0.37384091  0.12192123  0.37089936  1
  O  O321  1  0.33158047  0.14421184  0.89459593  1
  O  O322  1  0.36007493  0.60972531  0.36381972  1
  O  O323  1  0.35869405  0.60348728  0.88676585  1
  O  O324  1  0.88998736  0.10891823  0.37779984  1
  O  O325  1  0.88389245  0.13869827  0.85501541  1
  O  O326  1  0.89537657  0.63867366  0.34788746  1
  O  O327  1  0.86853857  0.62545741  0.86622414  1
  O  O328  1  0.11062425  0.35748969  0.11054429  1
  O  O329  1  0.08269328  0.40933613  0.59029192  1
  O  O330  1  0.12237687  0.89641237  0.13055633  1
  O  O331  1  0.11579482  0.87907323  0.62361717  1
  O  O332  1  0.64229011  0.39137525  0.12649139  1
  O  O333  1  0.62784485  0.37136891  0.63589864  1
  O  O334  1  0.62853519  0.89368598  0.11521197  1
  O  O335  1  0.62790192  0.88405238  0.61396221  1
  O  O336  1  0.10491482  0.24145734  0.26784878  1
  O  O337  1  0.16495378  0.19442612  0.80113780  1
  O  O338  1  0.10644118  0.77025311  0.22758584  1
  O  O339  1  0.10250246  0.76525157  0.73640934  1
  O  O340  1  0.60194659  0.26401642  0.24971486  1
  O  O341  1  0.63225723  0.24973164  0.76606960  1
  O  O342  1  0.63636488  0.76485241  0.28672563  1
  O  O343  1  0.61991332  0.76852710  0.73272962  1
  O  O344  1  0.38712588  0.23497333  0.24264680  1
  O  O345  1  0.35220696  0.23313537  0.75455856  1
  O  O346  1  0.37590168  0.71948495  0.23942730  1
  O  O347  1  0.41201331  0.78163931  0.68916078  1
  O  O348  1  0.87479959  0.26721277  0.25613418  1
  O  O349  1  0.86876211  0.24194510  0.73960863  1
  O  O350  1  0.88010440  0.75178770  0.23773748  1
  O  O351  1  0.88297502  0.75592450  0.73706961  1
  O  O352  1  0.38282817  0.48684270  0.51154302  1
  O  O353  1  0.39232616  0.50664672  1.01536265  1
  O  O354  1  0.35830086  0.89245486  0.41728865  1
  O  O355  1  0.38921215  1.01542405  1.01542582  1
  O  O356  1  0.88443821  0.46333001  0.50779892  1
  O  O357  1  0.88157555  0.50424769  1.00274645  1
  O  O358  1  0.88746482  0.99455916  0.48770828  1
  O  O359  1  0.86411170  1.00178646  1.01049880  1
  O  O360  1  0.11921317  0.00939574  0.01843470  1
  O  O361  1  0.10800084  0.00017849  0.49483228  1
  O  O362  1  0.10058828  0.50033600  0.01743424  1
  O  O363  1  0.03952634  0.48534836  0.40643044  1
  O  O364  1  0.63617578  0.02432596  0.01363269  1
  O  O365  1  0.52679081  -0.03873332  0.46284488  1
  O  O366  1  0.62658470  0.50754008  0.01354060  1
  O  O367  1  0.61424446  0.47846618  0.51548839  1
  O  O368  1  0.36040185  0.34978900  0.13347337  1
  O  O369  1  0.37291351  0.35475261  0.65325034  1
  O  O370  1  0.41326860  0.85200328  0.13168070  1
  O  O371  1  0.33715993  0.88242632  0.59708136  1
  O  O372  1  0.86819796  0.36808185  0.12408542  1
  O  O373  1  0.89359153  0.36218149  0.65900773  1
  O  O374  1  0.86326863  0.86468062  0.12649923  1
  O  O375  1  0.88528324  0.86954903  0.60639337  1
  O  O376  1  0.13905147  0.12093630  0.38630882  1
  O  O377  1  0.13792738  0.13896090  0.84757085  1
  O  O378  1  0.10914264  0.62579767  0.35038690  1
  O  O379  1  0.13026780  0.62054270  0.91057884  1
  O  O380  1  0.63082125  0.14303970  0.38167911  1
  O  O381  1  0.62304158  0.14961954  0.90233931  1
  O  O382  1  0.62309239  0.62032879  0.36953957  1
  O  O383  1  0.63730711  0.61790900  0.88256429  1
