# generated using pymatgen
data_VZnO4
_symmetry_space_group_name_H-M   'P 1'
_cell_length_a   17.06904467
_cell_length_b   17.00721475
_cell_length_c   17.03548875
_cell_angle_alpha   89.75383208
_cell_angle_beta   90.04833781
_cell_angle_gamma   89.48711398
_symmetry_Int_Tables_number   1
_chemical_formula_structural   VZnO4
_chemical_formula_sum   'V64 Zn64 O256'
_cell_volume   4945.10401646
_cell_formula_units_Z   64
loop_
 _symmetry_equiv_pos_site_id
 _symmetry_equiv_pos_as_xyz
  1  'x, y, z'
loop_
 _atom_site_type_symbol
 _atom_site_label
 _atom_site_symmetry_multiplicity
 _atom_site_fract_x
 _atom_site_fract_y
 _atom_site_fract_z
 _atom_site_occupancy
  V  V0  1  0.62537276  0.36415470  0.75487417  1
  V  V1  1  0.27709384  0.51040402  0.76267808  1
  V  V2  1  0.50357103  0.11904201  0.62697947  1
  V  V3  1  0.88139624  0.10649027  0.76085552  1
  V  V4  1  0.37836122  0.12475998  0.25779853  1
  V  V5  1  0.12457919  0.11901869  0.48850222  1
  V  V6  1  0.12712032  0.25776682  0.35875927  1
  V  V7  1  0.37863090  0.75508029  0.61001353  1
  V  V8  1  0.03323853  0.36631219  0.88936873  1
  V  V9  1  0.82455133  0.47097186  0.89493011  1
  V  V10  1  0.39422378  0.62444033  0.23319253  1
  V  V11  1  0.15171098  0.13621685  -0.01498015  1
  V  V12  1  0.37658319  0.26550528  0.12625845  1
  V  V13  1  0.49558717  0.23892719  0.76123692  1
  V  V14  1  0.02020707  0.50105778  0.00075838  1
  V  V15  1  0.24073004  0.38724752  0.13305759  1
  V  V16  1  0.49348136  0.12751906  0.11434111  1
  V  V17  1  0.75225226  0.25446161  0.49970145  1
  V  V18  1  0.50661558  0.25901179  0.25404583  1
  V  V19  1  0.85389738  0.61320829  0.75947146  1
  V  V20  1  0.61352855  0.85477418  0.25475147  1
  V  V21  1  0.00800363  0.38202463  0.35915583  1
  V  V22  1  0.75289199  -0.00051654  0.25225019  1
  V  V23  1  0.38794874  0.38428818  -0.00937309  1
  V  V24  1  0.37655493  0.51455804  0.38474605  1
  V  V25  1  0.63647103  0.12057190  0.49910830  1
  V  V26  1  -0.02191344  0.87454036  0.91354031  1
  V  V27  1  0.12861738  0.85132083  0.74556760  1
  V  V28  1  -0.00553368  -0.00986826  0.47945514  1
  V  V29  1  0.61431333  -0.00261576  0.12642583  1
  V  V30  1  0.25363699  0.11048585  0.36601217  1
  V  V31  1  0.24758317  0.88311646  0.61340430  1
  V  V32  1  0.73772599  0.85196211  0.10924268  1
  V  V33  1  0.14371939  0.36800517  0.71496656  1
  V  V34  1  0.12673067  0.62326239  0.50904850  1
  V  V35  1  0.61081978  0.50313255  0.62944637  1
  V  V36  1  0.87216252  0.49141897  0.37664803  1
  V  V37  1  0.36588335  0.89054684  0.49202306  1
  V  V38  1  0.86287215  0.62678164  0.24893488  1
  V  V39  1  0.64436756  0.23578121  0.87349608  1
  V  V40  1  0.62984439  0.25540268  0.37692780  1
  V  V41  1  0.49575063  0.01325840  0.48151815  1
  V  V42  1  0.84759405  0.87503701  0.49149628  1
  V  V43  1  0.00554530  0.74217663  0.25564863  1
  V  V44  1  -0.00250162  0.11965345  0.61956213  1
  V  V45  1  0.37432573  0.24215933  0.62380383  1
  V  V46  1  0.24441152  0.51108727  0.25391509  1
  V  V47  1  0.87411678  0.23658706  0.62481516  1
  V  V48  1  0.24974877  0.25146535  0.49837914  1
  V  V49  1  0.74345004  0.37300911  0.62738394  1
  V  V50  1  0.85470285  0.75681992  0.62166765  1
  V  V51  1  0.74242464  0.62366098  0.39725501  1
  V  V52  1  0.03619333  0.14967746  0.12251969  1
  V  V53  1  0.64186490  0.11561126  -0.00510959  1
  V  V54  1  0.49500613  0.86433672  0.37230848  1
  V  V55  1  0.36516739  0.01361154  0.86518861  1
  V  V56  1  0.37453734  0.37385247  0.50130311  1
  V  V57  1  0.92910086  0.41501984  0.55995507  1
  V  V58  1  0.62240012  0.87300731  0.73643896  1
  V  V59  1  0.12775027  0.00467797  0.62585511  1
  V  V60  1  0.49576734  0.88136238  0.87907760  1
  V  V61  1  0.73735610  0.00125686  0.75243988  1
  V  V62  1  0.50164903  0.37831151  0.38341920  1
  V  V63  1  0.48962133  0.75421505  0.73808845  1
  Zn  Zn64  1  0.20037261  0.19133198  0.18120136  1
  Zn  Zn65  1  0.17352377  0.19906150  0.67572934  1
  Zn  Zn66  1  0.21703617  0.71962420  0.26747659  1
  Zn  Zn67  1  0.17760225  0.66668382  0.78930369  1
  Zn  Zn68  1  0.67920566  0.18087200  0.19104933  1
  Zn  Zn69  1  0.69292085  0.17558169  0.68731193  1
  Zn  Zn70  1  0.68783158  0.67242706  0.20438692  1
  Zn  Zn71  1  0.68661062  0.69274763  0.68405674  1
  Zn  Zn72  1  0.31410792  0.31727335  0.31168027  1
  Zn  Zn73  1  0.31407722  0.30761573  0.81067641  1
  Zn  Zn74  1  0.34221142  0.79766286  0.16424475  1
  Zn  Zn75  1  0.32953986  0.86820848  0.78470628  1
  Zn  Zn76  1  0.82495765  0.30548843  0.32491151  1
  Zn  Zn77  1  0.81797148  0.29806040  0.80653634  1
  Zn  Zn78  1  0.79033206  0.80442647  0.31803759  1
  Zn  Zn79  1  0.81217614  0.81658788  0.81196150  1
  Zn  Zn80  1  0.19655817  0.43474029  0.43082833  1
  Zn  Zn81  1  0.20346103  0.43582372  0.94800815  1
  Zn  Zn82  1  0.26678568  0.89316320  0.34568485  1
  Zn  Zn83  1  0.14987323  0.95764576  0.90627808  1
  Zn  Zn84  1  0.67308981  0.45541577  0.44253003  1
  Zn  Zn85  1  0.63492827  0.51866461  0.86876926  1
  Zn  Zn86  1  0.67758355  0.94341559  0.42548372  1
  Zn  Zn87  1  0.68320924  0.92900244  0.92555417  1
  Zn  Zn88  1  0.26848178  0.00545226  0.01025591  1
  Zn  Zn89  1  0.31213641  0.06844316  0.55723651  1
  Zn  Zn90  1  0.32745507  0.55553976  0.06255643  1
  Zn  Zn91  1  0.31876204  0.56132175  0.57229227  1
  Zn  Zn92  1  0.78947986  0.06923612  0.10116936  1
  Zn  Zn93  1  0.81425487  0.04269345  0.56906236  1
  Zn  Zn94  1  0.95691935  0.63316497  0.08854223  1
  Zn  Zn95  1  0.81585798  0.56145017  0.58415181  1
  Zn  Zn96  1  0.44561397  0.44429353  0.19848088  1
  Zn  Zn97  1  0.42617801  0.42223540  0.68714270  1
  Zn  Zn98  1  0.43258157  0.94216113  0.18931501  1
  Zn  Zn99  1  0.44040441  0.94800651  0.68295715  1
  Zn  Zn100  1  0.94545706  0.45523767  0.18899312  1
  Zn  Zn101  1  0.93766528  0.43682893  0.74233821  1
  Zn  Zn102  1  0.93635940  0.91925714  0.30862723  1
  Zn  Zn103  1  0.92393176  0.90551725  0.70209584  1
  Zn  Zn104  1  0.05374546  0.07406863  0.30638108  1
  Zn  Zn105  1  0.05173429  0.05079199  0.81143145  1
  Zn  Zn106  1  0.05289303  0.56799705  0.31895155  1
  Zn  Zn107  1  0.08635793  0.51232527  0.81189242  1
  Zn  Zn108  1  0.57046294  0.07441835  0.30993421  1
  Zn  Zn109  1  0.55818167  0.05495807  0.81918892  1
  Zn  Zn110  1  0.55275210  0.57832100  0.34185744  1
  Zn  Zn111  1  0.47973588  0.54710864  0.77082663  1
  Zn  Zn112  1  0.43910308  0.19200755  0.43583861  1
  Zn  Zn113  1  0.36989836  0.14400087  0.97046093  1
  Zn  Zn114  1  0.36469968  0.73506997  0.37901408  1
  Zn  Zn115  1  0.49694109  0.66575712  0.90507971  1
  Zn  Zn116  1  0.94711285  0.20055929  0.43954431  1
  Zn  Zn117  1  0.99281730  0.17277033  0.92780591  1
  Zn  Zn118  1  0.90464903  0.70883887  0.41835665  1
  Zn  Zn119  1  1.00628609  0.66998430  0.88274313  1
  Zn  Zn120  1  0.06700104  0.31441622  0.06645308  1
  Zn  Zn121  1  0.06591179  0.30278946  0.55965707  1
  Zn  Zn122  1  -0.04931146  0.83194318  0.11685288  1
  Zn  Zn123  1  0.05103457  0.81972618  0.57138829  1
  Zn  Zn124  1  0.55601367  0.29749736  0.04401119  1
  Zn  Zn125  1  0.56119931  0.30758069  0.56477279  1
  Zn  Zn126  1  0.51762376  0.82963145  0.07937619  1
  Zn  Zn127  1  0.55786394  0.83714201  0.56536160  1
  O  O128  1  0.14125925  0.12942756  0.10861651  1
  O  O129  1  0.11770194  0.12216380  0.60802636  1
  O  O130  1  0.18618528  0.63640968  0.04304034  1
  O  O131  1  0.12952421  0.60820783  0.61064364  1
  O  O132  1  0.61146097  0.12348621  0.11066255  1
  O  O133  1  0.61246599  0.13254234  0.60825762  1
  O  O134  1  0.62642870  0.58575272  0.14371116  1
  O  O135  1  0.63565702  0.59806375  0.64601479  1
  O  O136  1  0.38472938  0.37621673  0.38556674  1
  O  O137  1  0.35896164  0.35066337  0.90033636  1
  O  O138  1  0.38868400  0.89289200  0.38421500  1
  O  O139  1  0.39046148  0.87609932  0.87861310  1
  O  O140  1  0.89693334  0.37841707  0.37094842  1
  O  O141  1  0.86793492  0.39545572  0.82918792  1
  O  O142  1  0.86294219  0.86924218  0.38441829  1
  O  O143  1  0.88687319  0.87969153  0.87112835  1
  O  O144  1  0.25211695  0.01207950  0.36500836  1
  O  O145  1  0.26579375  -0.01484762  0.88067516  1
  O  O146  1  0.27062762  0.49282982  0.36552058  1
  O  O147  1  0.25345225  0.48069483  0.85947595  1
  O  O148  1  0.73002367  0.01012002  0.34883375  1
  O  O149  1  0.75096258  -0.01263043  0.85476268  1
  O  O150  1  0.77504645  0.47352866  0.39093075  1
  O  O151  1  0.72215673  0.46545516  0.90430697  1
  O  O152  1  0.25610959  0.49675199  0.14325341  1
  O  O153  1  0.29471598  0.49547088  0.65649573  1
  O  O154  1  0.23674556  0.94602729  0.11713912  1
  O  O155  1  0.23733991  0.99845503  0.60456855  1
  O  O156  1  0.75065998  0.47306449  0.13170798  1
  O  O157  1  0.73698680  0.47600281  0.62508469  1
  O  O158  1  0.72713875  0.97097816  0.13269220  1
  O  O159  1  0.76289681  0.98948444  0.65227268  1
  O  O160  1  0.01178267  0.38895109  0.26089692  1
  O  O161  1  0.04279330  0.40047101  0.77671109  1
  O  O162  1  -0.01650053  0.84791942  0.23337472  1
  O  O163  1  0.03154384  0.87469965  0.72664305  1
  O  O164  1  0.49993413  0.36671378  0.26776109  1
  O  O165  1  0.51694434  0.34415539  0.74033836  1
  O  O166  1  0.50376005  0.88468110  0.26672684  1
  O  O167  1  0.50419349  0.87651466  0.74846051  1
  O  O168  1  0.49473553  0.14314323  0.25081684  1
  O  O169  1  0.50735312  0.12645599  0.73257909  1
  O  O170  1  0.49220179  0.62025343  0.26165463  1
  O  O171  1  0.48487675  0.65636488  0.73335693  1
  O  O172  1  1.01229260  0.09586233  0.20635428  1
  O  O173  1  0.99242831  0.11212374  0.72796655  1
  O  O174  1  0.97490384  0.62556535  0.26188237  1
  O  O175  1  0.93210196  0.66478453  0.79182133  1
  O  O176  1  0.37671443  0.25174560  0.02631347  1
  O  O177  1  0.36700746  0.25288509  0.50254736  1
  O  O178  1  0.30311916  0.76237476  -0.03151306  1
  O  O179  1  0.38281724  0.78396133  0.49994551  1
  O  O180  1  0.85267271  0.24919420  0.05402471  1
  O  O181  1  0.85879171  0.23547835  0.50390665  1
  O  O182  1  0.83643055  0.75062505  -0.04229259  1
  O  O183  1  0.85715191  0.76653741  0.50165212  1
  O  O184  1  0.13437750  0.23725476  0.48984653  1
  O  O185  1  0.11002810  0.22929753  1.00076129  1
  O  O186  1  0.12787767  0.72609636  0.51586882  1
  O  O187  1  0.13687001  0.67910047  1.00819719  1
  O  O188  1  0.63362528  0.24019368  0.49539813  1
  O  O189  1  0.62263068  0.22978629  0.98114367  1
  O  O190  1  0.62070662  0.74747087  0.50728722  1
  O  O191  1  0.54897071  0.71102927  1.08051518  1
  O  O192  1  0.49959082  0.24528843  0.13564373  1
  O  O193  1  0.49228996  0.23394478  0.62341555  1
  O  O194  1  0.41748802  0.85970983  0.11679055  1
  O  O195  1  0.48529537  0.77056972  0.62094244  1
  O  O196  1  1.01880088  0.24659987  0.14384487  1
  O  O197  1  0.98580529  0.23036132  0.60583669  1
  O  O198  1  0.98546709  0.72571813  0.14499864  1
  O  O199  1  0.97531251  0.74859635  0.59971459  1
  O  O200  1  0.01935954  0.26287435  0.37326052  1
  O  O201  1  -0.01531143  0.27842658  0.88398896  1
  O  O202  1  -0.01212623  0.74749899  0.35870694  1
  O  O203  1  0.01624715  0.78346150  0.89203465  1
  O  O204  1  0.50921454  0.25873525  0.37220687  1
  O  O205  1  0.50049782  0.23266022  0.85732887  1
  O  O206  1  0.48324626  0.76763489  0.37813725  1
  O  O207  1  0.49565899  0.76462352  0.84552221  1
  O  O208  1  0.24442411  0.13113959  0.48225621  1
  O  O209  1  0.24906241  0.15281784  0.97674004  1
  O  O210  1  0.23140745  0.62292276  0.50605130  1
  O  O211  1  0.24619822  0.60789981  0.99629305  1
  O  O212  1  0.73753463  0.12247687  0.50847249  1
  O  O213  1  0.73937427  0.11716368  1.00885473  1
  O  O214  1  0.75580621  0.60956602  0.49591039  1
  O  O215  1  0.83883131  0.69711058  1.01035241  1
  O  O216  1  0.27018771  0.38652168  0.03086288  1
  O  O217  1  0.26121587  0.36071737  0.49217971  1
  O  O218  1  0.18788737  0.82012106  0.04798288  1
  O  O219  1  0.26626736  0.89560215  0.48903035  1
  O  O220  1  0.72079635  0.45645209  0.06876202  1
  O  O221  1  0.73781274  0.35842839  0.51368975  1
  O  O222  1  0.71399749  0.86331838  0.01180604  1
  O  O223  1  0.75038692  0.89587266  0.49777873  1
  O  O224  1  0.14692542  0.52104186  0.27015733  1
  O  O225  1  0.16634038  0.47993248  0.73699612  1
  O  O226  1  0.12322611  0.96416299  0.25700678  1
  O  O227  1  0.12316174  1.00728622  0.72573580  1
  O  O228  1  0.59291397  0.52637471  0.18232143  1
  O  O229  1  0.62728867  0.46545095  0.75513137  1
  O  O230  1  0.62519464  1.00785213  0.23517534  1
  O  O231  1  0.63445206  1.00752842  0.74653410  1
  O  O232  1  0.39191919  0.02780884  0.25157022  1
  O  O233  1  0.36797737  -0.01697852  0.76182864  1
  O  O234  1  0.37869236  0.51141513  0.26609714  1
  O  O235  1  0.38629537  0.48248616  0.77510762  1
  O  O236  1  0.84899634  -0.02490573  0.25045788  1
  O  O237  1  0.88337294  0.00466831  0.75005289  1
  O  O238  1  0.87856482  0.50476000  0.27272507  1
  O  O239  1  0.86769077  0.52213517  0.71176947  1
  O  O240  1  0.11967332  0.36677998  0.38130745  1
  O  O241  1  0.13209021  0.35527834  0.89855743  1
  O  O242  1  0.13770081  0.90573690  0.30059167  1
  O  O243  1  0.15304125  0.86284855  0.84169955  1
  O  O244  1  0.61242145  0.36788918  0.38901422  1
  O  O245  1  0.62302309  0.34130489  0.85879777  1
  O  O246  1  0.60726954  0.87490470  0.36580261  1
  O  O247  1  0.60500101  0.88986325  0.84968522  1
  O  O248  1  0.38770004  0.14561842  0.14156122  1
  O  O249  1  0.38956825  0.13216495  0.61528640  1
  O  O250  1  0.39318088  0.61404011  0.13416668  1
  O  O251  1  0.37118496  0.65767962  0.60046237  1
  O  O252  1  0.84691786  0.20423770  0.11084634  1
  O  O253  1  0.88265474  0.12075864  0.62298819  1
  O  O254  1  0.85718843  0.61266646  0.15120641  1
  O  O255  1  0.86274713  0.65158337  0.64039361  1
  O  O256  1  0.27182985  0.27421742  0.14482651  1
  O  O257  1  0.26101837  0.23013166  0.60626738  1
  O  O258  1  0.24064459  0.74779165  0.15379551  1
  O  O259  1  0.26811633  0.78328239  0.60382850  1
  O  O260  1  0.70482126  0.28398946  0.12398958  1
  O  O261  1  0.75551900  0.24543682  0.61599004  1
  O  O262  1  0.71353963  0.75553989  0.13237270  1
  O  O263  1  0.75382597  0.75938211  0.61821925  1
  O  O264  1  0.24095721  0.24914922  0.38007481  1
  O  O265  1  0.24112605  0.20015473  0.82715619  1
  O  O266  1  0.26252955  0.77864156  0.35287206  1
  O  O267  1  0.33669272  0.71561023  0.92166590  1
  O  O268  1  0.74001442  0.26180479  0.38464543  1
  O  O269  1  0.74251132  0.23771089  0.87024760  1
  O  O270  1  0.73318622  0.72278523  0.38354365  1
  O  O271  1  0.78381440  0.73900937  0.89720620  1
  O  O272  1  -0.01151043  0.12727015  0.03513922  1
  O  O273  1  0.00689710  0.11830332  0.49379300  1
  O  O274  1  -0.01145968  0.60354974  -0.01885581  1
  O  O275  1  0.02431265  0.61913046  0.51706745  1
  O  O276  1  0.48896042  0.13606748  0.01668577  1
  O  O277  1  0.50613311  0.12206455  0.50289125  1
  O  O278  1  0.54588084  0.66221010  0.02379898  1
  O  O279  1  0.58156807  0.68699549  0.49360928  1
  O  O280  1  0.48705973  0.36328151  0.49342883  1
  O  O281  1  0.48827395  0.36903100  0.99540878  1
  O  O282  1  0.50198881  0.89847044  0.48518567  1
  O  O283  1  0.52173524  0.86045419  0.97259478  1
  O  O284  1  0.99015143  0.36315731  0.49554193  1
  O  O285  1  1.01076393  0.38587537  0.99847862  1
  O  O286  1  1.01448495  0.89299904  0.48803237  1
  O  O287  1  0.97323429  0.87467817  1.01497903  1
  O  O288  1  0.48584412  0.48992447  0.38037800  1
  O  O289  1  0.53904284  0.56908619  0.86522801  1
  O  O290  1  0.50259889  1.01279412  0.38175312  1
  O  O291  1  0.48346900  0.99064649  0.87261625  1
  O  O292  1  0.99469626  0.48598650  0.38296973  1
  O  O293  1  1.00400248  0.47738228  0.89207373  1
  O  O294  1  0.99633771  1.00079597  0.37295338  1
  O  O295  1  1.03395214  0.96130479  0.88232496  1
  O  O296  1  -0.06726324  -0.00948064  0.10844852  1
  O  O297  1  0.01290777  0.01023138  0.59828330  1
  O  O298  1  -0.01290327  0.50956036  0.10243753  1
  O  O299  1  -0.01420963  0.45091004  0.63082135  1
  O  O300  1  0.50230261  0.02181892  0.13144312  1
  O  O301  1  0.49806499  0.01675048  0.61012771  1
  O  O302  1  0.53928846  0.48768216  0.13739987  1
  O  O303  1  0.51110378  0.49846085  0.65991916  1
  O  O304  1  0.26058841  0.39453202  0.24382638  1
  O  O305  1  0.24300843  0.34848291  0.73628323  1
  O  O306  1  0.29765210  0.89743121  0.22900685  1
  O  O307  1  0.23893391  0.88400707  0.71801460  1
  O  O308  1  0.80996514  0.34740959  0.21249953  1
  O  O309  1  0.73172990  0.34486102  0.73603711  1
  O  O310  1  0.72075361  0.87691873  0.25229864  1
  O  O311  1  0.72527750  0.87614686  0.75556127  1
  O  O312  1  0.27047729  0.13497034  0.25346541  1
  O  O313  1  0.23555944  0.15082667  0.77153397  1
  O  O314  1  0.27379126  0.61285760  0.25441283  1
  O  O315  1  0.27242622  0.61140140  0.76930154  1
  O  O316  1  0.75810807  0.10126595  0.20825860  1
  O  O317  1  0.76873036  0.11097602  0.75061719  1
  O  O318  1  0.75662220  0.61255938  0.27453966  1
  O  O319  1  0.76142831  0.65840754  0.76293130  1
  O  O320  1  0.36768119  0.13761522  0.36451605  1
  O  O321  1  0.37364660  0.11341228  0.85641612  1
  O  O322  1  0.37824204  0.61439625  0.39005031  1
  O  O323  1  0.39100409  0.66302441  0.95626024  1
  O  O324  1  0.89456645  0.15118160  0.33995618  1
  O  O325  1  0.90525268  0.12533365  0.85480914  1
  O  O326  1  0.86034099  0.60548517  0.38427949  1
  O  O327  1  0.84401436  0.56487374  0.85986983  1
  O  O328  1  0.14410765  0.37620943  0.12745793  1
  O  O329  1  0.13587088  0.37145906  0.61427517  1
  O  O330  1  0.17248887  0.79622167  0.11498133  1
  O  O331  1  0.13755192  0.88490184  0.61006410  1
  O  O332  1  0.64784652  0.33430181  0.11649728  1
  O  O333  1  0.62708655  0.36887760  0.63579161  1
  O  O334  1  0.60269592  0.88180102  0.14398226  1
  O  O335  1  0.61625016  0.89647720  0.63811563  1
  O  O336  1  0.13836289  0.25249664  0.26194897  1
  O  O337  1  0.10871416  0.27100430  0.73113673  1
  O  O338  1  0.10419087  0.72590214  0.25765672  1
  O  O339  1  0.14162057  0.75356101  0.72882058  1
  O  O340  1  0.61877635  0.24202235  0.26553143  1
  O  O341  1  0.61900814  0.23139409  0.76052993  1
  O  O342  1  0.61141084  0.75718903  0.25329086  1
  O  O343  1  0.60531950  0.76607032  0.72818758  1
  O  O344  1  0.39015325  0.25170734  0.24718816  1
  O  O345  1  0.39011774  0.25114577  0.73795715  1
  O  O346  1  0.37654061  0.72577086  0.25022787  1
  O  O347  1  0.38027003  0.77633294  0.72135600  1
  O  O348  1  0.87830303  0.20297790  0.28531605  1
  O  O349  1  0.87035194  0.22707305  0.72997052  1
  O  O350  1  0.86109473  0.72961644  0.26458805  1
  O  O351  1  0.87186821  0.79974589  0.71616193  1
  O  O352  1  0.36426804  0.48831454  0.49141610  1
  O  O353  1  0.38276879  0.48499289  0.99361598  1
  O  O354  1  0.39040200  1.00495479  0.49522176  1
  O  O355  1  0.37248381  1.02438661  0.98434539  1
  O  O356  1  0.88144250  0.49094062  0.50836774  1
  O  O357  1  0.86250715  0.46327562  0.98393091  1
  O  O358  1  0.88882238  0.99089967  0.49320543  1
  O  O359  1  0.88562580  1.01517733  1.05730322  1
  O  O360  1  0.15788019  0.02317966  -0.00073365  1
  O  O361  1  0.11669735  0.01647360  0.49214397  1
  O  O362  1  0.11925691  0.50119215  0.00247458  1
  O  O363  1  0.13567850  0.51889493  0.49364562  1
  O  O364  1  0.62253003  0.01170283  0.01067001  1
  O  O365  1  0.61372725  0.01723612  0.49228882  1
  O  O366  1  0.67148430  0.64314274  -0.04581679  1
  O  O367  1  0.60854756  0.48996883  0.53038529  1
  O  O368  1  0.39122052  0.37079846  0.12423591  1
  O  O369  1  0.38188190  0.35347506  0.61094903  1
  O  O370  1  0.26744780  0.96489322  0.18433250  1
  O  O371  1  0.36590878  0.89477389  0.60519630  1
  O  O372  1  0.87087975  0.35936739  0.16897431  1
  O  O373  1  0.86206237  0.35473003  0.61997220  1
  O  O374  1  0.83556534  0.85261583  0.11803719  1
  O  O375  1  0.88375627  0.87449867  0.59144657  1
  O  O376  1  0.13189590  0.13582337  0.37041206  1
  O  O377  1  0.09589798  0.12149960  0.89245997  1
  O  O378  1  0.11594626  0.62947161  0.40514309  1
  O  O379  1  0.09866016  0.61652955  0.84374461  1
  O  O380  1  0.62199477  0.14134062  0.39070831  1
  O  O381  1  0.62490633  0.12144106  0.88748227  1
  O  O382  1  0.65073051  0.56976286  0.38565118  1
  O  O383  1  0.71232084  0.63799035  1.01350445  1
