# generated using pymatgen
data_VZnO4
_symmetry_space_group_name_H-M   'P 1'
_cell_length_a   16.96083204
_cell_length_b   16.95853737
_cell_length_c   16.92133568
_cell_angle_alpha   89.93254338
_cell_angle_beta   90.11017919
_cell_angle_gamma   89.25162322
_symmetry_Int_Tables_number   1
_chemical_formula_structural   VZnO4
_chemical_formula_sum   'V64 Zn64 O256'
_cell_volume   4866.67138886
_cell_formula_units_Z   64
loop_
 _symmetry_equiv_pos_site_id
 _symmetry_equiv_pos_as_xyz
  1  'x, y, z'
loop_
 _atom_site_type_symbol
 _atom_site_label
 _atom_site_symmetry_multiplicity
 _atom_site_fract_x
 _atom_site_fract_y
 _atom_site_fract_z
 _atom_site_occupancy
  V  V0  1  0.24466932  0.02090172  0.24985517  1
  V  V1  1  0.48425101  0.63981660  0.12800670  1
  V  V2  1  0.48201533  0.63597697  0.63288710  1
  V  V3  1  0.25603785  0.50525403  0.25148628  1
  V  V4  1  0.25237267  0.37375235  0.12170440  1
  V  V5  1  0.52128180  0.12837770  0.61706196  1
  V  V6  1  0.11685193  0.62838625  0.01172179  1
  V  V7  1  0.26945174  0.75327467  0.00745473  1
  V  V8  1  0.13101622  0.90695508  0.77365501  1
  V  V9  1  0.39966063  0.12808819  0.25057837  1
  V  V10  1  0.37061991  0.37044184  0.49327490  1
  V  V11  1  0.51645930  0.00346800  -0.01472306  1
  V  V12  1  0.49833087  0.76043481  0.26987954  1
  V  V13  1  0.63092293  0.87731433  0.22770508  1
  V  V14  1  0.12916261  0.36861771  0.26206157  1
  V  V15  1  0.48804317  0.86217532  0.86891288  1
  V  V16  1  0.38028842  0.37316765  -0.00570424  1
  V  V17  1  0.73579517  0.38409025  0.61900163  1
  V  V18  1  0.12787523  0.75611387  0.39398204  1
  V  V19  1  0.62419950  0.61910202  0.00231749  1
  V  V20  1  0.01273698  0.24629328  0.26590114  1
  V  V21  1  0.25064610  0.62551586  0.87896605  1
  V  V22  1  0.24251648  0.37072418  0.62800240  1
  V  V23  1  0.12384643  0.50750672  0.12395006  1
  V  V24  1  0.39317973  0.24670149  0.12976719  1
  V  V25  1  0.86411409  0.09826958  0.75309552  1
  V  V26  1  0.00377207  0.11092265  0.62144417  1
  V  V27  1  0.37554288  0.00572524  0.37668877  1
  V  V28  1  0.25222736  0.23119783  -0.00713407  1
  V  V29  1  0.36496039  0.11736388  0.75928944  1
  V  V30  1  0.76500226  0.73747805  -0.00037355  1
  V  V31  1  0.51501061  -0.00241786  0.50422278  1
  V  V32  1  0.00681280  0.13324504  0.09907899  1
  V  V33  1  0.74786954  0.24340648  0.49087962  1
  V  V34  1  0.50650531  0.49731726  0.50509341  1
  V  V35  1  0.63540400  0.89313777  0.74500707  1
  V  V36  1  0.73112421  0.61726594  0.36103767  1
  V  V37  1  0.50728853  0.25963630  0.75886542  1
  V  V38  1  -0.00092895  0.50833300  0.48224131  1
  V  V39  1  0.00533384  0.75986882  0.73985122  1
  V  V40  1  0.75615030  0.49242143  0.76415410  1
  V  V41  1  -0.02002095  0.89786954  0.89916780  1
  V  V42  1  0.88025889  0.12232144  0.25498273  1
  V  V43  1  0.12788210  0.00542474  0.10583250  1
  V  V44  1  0.23945639  0.50050963  0.75216131  1
  V  V45  1  0.88171373  0.40892356  0.00495510  1
  V  V46  1  0.88292806  0.37237455  0.49062412  1
  V  V47  1  0.37227935  0.24735572  0.62369558  1
  V  V48  1  0.10999182  0.75656465  0.88813427  1
  V  V49  1  0.24065773  0.62570133  0.38802084  1
  V  V50  1  0.63072975  0.73822044  0.86077470  1
  V  V51  1  0.87893454  0.25776931  0.64436915  1
  V  V52  1  0.61989652  0.65794864  0.49874426  1
  V  V53  1  0.11533117  0.51422174  0.62290608  1
  V  V54  1  0.12805881  0.86802255  0.24911670  1
  V  V55  1  0.61046883  0.38587720  0.25913798  1
  V  V56  1  0.38339084  0.50075527  0.86472846  1
  V  V57  1  0.75273957  0.39674218  0.14884018  1
  V  V58  1  0.88462404  0.26132835  0.11942199  1
  V  V59  1  0.37873327  0.50726378  0.37614865  1
  V  V60  1  0.26958783  0.87483774  0.12952461  1
  V  V61  1  0.61513980  0.24178398  0.37040167  1
  V  V62  1  0.75031333  0.25255110  -0.00021432  1
  V  V63  1  0.49896809  0.49654832  0.01428158  1
  Zn  Zn64  1  0.18643876  0.19306663  0.16698159  1
  Zn  Zn65  1  0.18481342  0.18087119  0.69351332  1
  Zn  Zn66  1  0.20080379  0.69295949  0.19266417  1
  Zn  Zn67  1  0.15636571  0.67724859  0.70935733  1
  Zn  Zn68  1  0.70527608  0.20755482  0.20338342  1
  Zn  Zn69  1  0.69213024  0.20326096  0.69479791  1
  Zn  Zn70  1  0.67527737  0.68755960  0.17866869  1
  Zn  Zn71  1  0.67212213  0.64846385  0.68646863  1
  Zn  Zn72  1  0.31276539  0.30798099  0.31210633  1
  Zn  Zn73  1  0.31539218  0.31011642  0.80996692  1
  Zn  Zn74  1  0.34503442  0.78884524  0.34946933  1
  Zn  Zn75  1  0.29345376  0.80961077  0.80760481  1
  Zn  Zn76  1  0.82328281  0.30962830  0.31449173  1
  Zn  Zn77  1  0.81675403  0.33042083  0.82513651  1
  Zn  Zn78  1  0.76898129  0.81722245  0.30238586  1
  Zn  Zn79  1  0.81486010  0.80687935  0.81172424  1
  Zn  Zn80  1  0.18608628  0.44081473  0.44369700  1
  Zn  Zn81  1  0.19115351  0.43956479  0.94122241  1
  Zn  Zn82  1  0.24103263  0.91085249  0.42013003  1
  Zn  Zn83  1  0.19884984  0.92937281  0.93258686  1
  Zn  Zn84  1  0.69128963  0.43155980  0.42698004  1
  Zn  Zn85  1  0.71235432  0.46668739  0.96692750  1
  Zn  Zn86  1  0.66427799  0.91583583  0.43017190  1
  Zn  Zn87  1  0.68270252  0.90398306  0.95215701  1
  Zn  Zn88  1  0.34330758  0.05167477  0.06826395  1
  Zn  Zn89  1  0.29634802  0.12392467  0.51056971  1
  Zn  Zn90  1  0.31331414  0.56220687  0.06152384  1
  Zn  Zn91  1  0.30739086  0.56100811  0.56466064  1
  Zn  Zn92  1  0.79038960  0.07938115  0.10649499  1
  Zn  Zn93  1  0.77940795  0.08671375  0.60237546  1
  Zn  Zn94  1  0.80734131  0.58575848  0.09195930  1
  Zn  Zn95  1  0.78956279  0.54861308  0.51627069  1
  Zn  Zn96  1  0.43667318  0.43578511  0.18955400  1
  Zn  Zn97  1  0.43292221  0.44034708  0.68133939  1
  Zn  Zn98  1  0.47490251  0.91943336  0.15686726  1
  Zn  Zn99  1  0.44324232  0.93454584  0.68197481  1
  Zn  Zn100  1  0.97088818  0.41799535  0.15565213  1
  Zn  Zn101  1  0.89947140  0.47975070  0.64592010  1
  Zn  Zn102  1  0.92634851  0.94365909  0.08073610  1
  Zn  Zn103  1  0.96009310  0.94267842  0.70164149  1
  Zn  Zn104  1  0.02238648  0.01594092  0.26737309  1
  Zn  Zn105  1  0.03223320  0.07957557  0.82823313  1
  Zn  Zn106  1  0.06972534  0.55795521  0.31154821  1
  Zn  Zn107  1  0.04724374  0.56797740  0.80871506  1
  Zn  Zn108  1  0.57045356  0.05403829  0.32026836  1
  Zn  Zn109  1  0.52235949  0.03982942  0.78776533  1
  Zn  Zn110  1  0.55608743  0.57197988  0.31083317  1
  Zn  Zn111  1  0.56886428  0.55967173  0.80740038  1
  Zn  Zn112  1  0.44415664  0.18777115  0.43582716  1
  Zn  Zn113  1  0.44171707  0.18726166  0.93557422  1
  Zn  Zn114  1  0.43505152  0.69039983  0.45166458  1
  Zn  Zn115  1  0.44342768  0.68220271  0.92861491  1
  Zn  Zn116  1  0.93971836  0.18622236  0.44145645  1
  Zn  Zn117  1  0.87512005  0.07853179  0.95625091  1
  Zn  Zn118  1  0.95212353  0.67448477  0.39001881  1
  Zn  Zn119  1  0.92046851  0.60789516  0.94608060  1
  Zn  Zn120  1  0.06601227  0.31492792  0.02896064  1
  Zn  Zn121  1  0.04020254  0.34253184  0.59701541  1
  Zn  Zn122  1  0.06660788  0.81981280  0.06425557  1
  Zn  Zn123  1  0.14773439  0.82187667  0.59214824  1
  Zn  Zn124  1  0.57409720  0.32044847  0.07288305  1
  Zn  Zn125  1  0.55934189  0.31145019  0.55425792  1
  Zn  Zn126  1  0.56208509  0.80712128  0.04949910  1
  Zn  Zn127  1  0.54814539  0.81687243  0.57878114  1
  O  O128  1  0.11835074  0.11702152  0.11400777  1
  O  O129  1  0.10082282  0.13219916  0.64144059  1
  O  O130  1  0.14314712  0.61697955  0.12171200  1
  O  O131  1  0.12859707  0.61137878  0.61528083  1
  O  O132  1  0.62325424  0.12804055  0.14043025  1
  O  O133  1  0.61865647  0.13391803  0.62037569  1
  O  O134  1  0.60456282  0.62272648  0.10609077  1
  O  O135  1  0.60239485  0.63166275  0.60084957  1
  O  O136  1  0.35937186  0.38206910  0.38907852  1
  O  O137  1  0.37037753  0.39014675  0.88415257  1
  O  O138  1  0.35456165  0.90582032  0.37457804  1
  O  O139  1  0.39098620  0.84597458  0.85200548  1
  O  O140  1  0.87277356  0.37888064  0.39199505  1
  O  O141  1  0.87688135  0.39075235  0.90735056  1
  O  O142  1  0.87723371  0.85478052  0.35261745  1
  O  O143  1  0.88771446  0.86756196  0.87963348  1
  O  O144  1  0.24735327  0.01221886  0.35338254  1
  O  O145  1  0.28918289  0.00984434  0.90918656  1
  O  O146  1  0.25099657  0.50791818  0.37090070  1
  O  O147  1  0.25242847  0.50552043  0.87117090  1
  O  O148  1  0.78882796  -0.00051602  0.39042340  1
  O  O149  1  0.75074699  -0.00516721  0.89160385  1
  O  O150  1  0.75685272  0.52217707  0.39930981  1
  O  O151  1  0.75552157  0.48433824  0.86346935  1
  O  O152  1  0.25352964  0.49140523  0.13400763  1
  O  O153  1  0.23870661  0.49582779  0.63367621  1
  O  O154  1  0.25019058  0.99350263  0.12486920  1
  O  O155  1  0.29866198  0.92686612  0.58606552  1
  O  O156  1  0.75588151  0.49582137  0.14400637  1
  O  O157  1  0.74858816  0.48566604  0.60857741  1
  O  O158  1  0.65811288  1.06501434  0.11998487  1
  O  O159  1  0.75759175  0.96603987  0.58745745  1
  O  O160  1  0.02230918  0.36478727  0.24485321  1
  O  O161  1  0.00056643  0.36016430  0.83270285  1
  O  O162  1  0.03372797  0.89756766  0.26360207  1
  O  O163  1  0.01408521  0.87646611  0.78052849  1
  O  O164  1  0.51176855  0.37305807  0.24613791  1
  O  O165  1  0.48747455  0.35701628  0.73485822  1
  O  O166  1  0.50721920  0.86754901  0.25834928  1
  O  O167  1  0.51423277  0.88001698  0.75974237  1
  O  O168  1  0.49666308  0.11375035  0.24687773  1
  O  O169  1  0.49070272  0.13744762  0.72831054  1
  O  O170  1  0.50695194  0.64057086  0.23274779  1
  O  O171  1  0.50342226  0.61322084  0.72976611  1
  O  O172  1  1.00755012  0.14301865  0.24131434  1
  O  O173  1  0.97160262  0.11837815  0.73832864  1
  O  O174  1  0.97928362  0.62663193  0.28059850  1
  O  O175  1  1.04051509  0.65989188  0.74085446  1
  O  O176  1  0.37710712  0.25681975  0.01119738  1
  O  O177  1  0.37652693  0.26431169  0.50220439  1
  O  O178  1  0.36601119  0.74382683  -0.00555763  1
  O  O179  1  0.35852329  0.76686312  0.45961153  1
  O  O180  1  0.87390488  0.27648434  0.01755020  1
  O  O181  1  0.86934916  0.26268404  0.50491236  1
  O  O182  1  0.85571773  0.69684390  -0.02486246  1
  O  O183  1  0.87919483  0.84325600  0.42628055  1
  O  O184  1  0.20591756  0.24139540  0.43447549  1
  O  O185  1  0.15266930  0.24523556  1.01260394  1
  O  O186  1  0.13979217  0.76851048  0.49241032  1
  O  O187  1  0.13293162  0.74302662  1.00421369  1
  O  O188  1  0.64003281  0.25885451  0.48679317  1
  O  O189  1  0.65074548  0.26037570  1.01695064  1
  O  O190  1  0.60991731  0.75680928  0.49738080  1
  O  O191  1  0.63933917  0.73109710  0.99519520  1
  O  O192  1  0.49075639  0.25741209  0.12167602  1
  O  O193  1  0.49105800  0.23927035  0.61897326  1
  O  O194  1  0.48939272  0.73826998  0.10810392  1
  O  O195  1  0.48290860  0.73725440  0.62356015  1
  O  O196  1  1.00671213  0.24339097  0.11394121  1
  O  O197  1  0.98208416  0.25915751  0.63815666  1
  O  O198  1  0.98390171  0.75802302  0.12421417  1
  O  O199  1  1.03192735  0.78896333  0.64765540  1
  O  O200  1  0.01035527  0.24588612  0.36395214  1
  O  O201  1  0.08215692  0.23265691  0.81575717  1
  O  O202  1  0.02791332  0.75620845  0.38032418  1
  O  O203  1  0.01237342  0.74482779  0.87958420  1
  O  O204  1  0.51630633  0.25543573  0.38380400  1
  O  O205  1  0.49203045  0.25442198  0.85827284  1
  O  O206  1  0.50647948  0.73857811  0.36690129  1
  O  O207  1  0.51563648  0.75227624  0.87618262  1
  O  O208  1  0.20068629  0.18596482  0.49319494  1
  O  O209  1  0.27397262  0.13478500  1.01042153  1
  O  O210  1  0.24501277  0.61942977  0.48710539  1
  O  O211  1  0.24720132  0.63624345  0.99908917  1
  O  O212  1  0.75737928  0.14442954  0.50748503  1
  O  O213  1  0.77496661  0.15253532  1.01076322  1
  O  O214  1  0.72236871  0.64035797  0.49951925  1
  O  O215  1  0.72173408  0.58857969  0.99743049  1
  O  O216  1  0.26566492  0.37710809  0.00867113  1
  O  O217  1  0.25998316  0.38588698  0.51624259  1
  O  O218  1  0.25294492  0.86112615  0.01248931  1
  O  O219  1  0.24332791  0.88652522  0.53479931  1
  O  O220  1  0.76590993  0.38415456  0.02626458  1
  O  O221  1  0.76000317  0.37013757  0.50539416  1
  O  O222  1  0.76192170  0.83815258  0.00529255  1
  O  O223  1  0.75463561  0.91876363  0.52900296  1
  O  O224  1  0.13735181  0.48829603  0.24347294  1
  O  O225  1  0.12946708  0.50716127  0.73976637  1
  O  O226  1  0.14065614  1.00194987  0.23218974  1
  O  O227  1  0.11052850  1.00324658  0.79186761  1
  O  O228  1  0.61792187  0.48587861  0.26693430  1
  O  O229  1  0.60612615  0.41243200  0.82368278  1
  O  O230  1  0.62294089  0.97499746  0.26111688  1
  O  O231  1  0.62416662  0.99412024  0.75405877  1
  O  O232  1  0.36586519  0.02144868  0.25707681  1
  O  O233  1  0.39431277  0.01939095  0.74216663  1
  O  O234  1  0.36670237  0.48498769  0.26795222  1
  O  O235  1  0.36341784  0.49744267  0.76156169  1
  O  O236  1  0.90593675  0.02548902  0.25098559  1
  O  O237  1  0.86682600  -0.00182099  0.74215974  1
  O  O238  1  0.91444916  0.58481287  0.23693519  1
  O  O239  1  0.84547500  0.52905706  0.73312009  1
  O  O240  1  0.13906214  0.37463326  0.36032961  1
  O  O241  1  0.10893726  0.36500481  0.91775053  1
  O  O242  1  0.15554671  0.85948998  0.36168161  1
  O  O243  1  0.10092376  0.86587338  0.90131098  1
  O  O244  1  0.63035318  0.36335459  0.36379069  1
  O  O245  1  0.62481110  0.37235680  0.88221388  1
  O  O246  1  0.66873361  0.84904793  0.34765046  1
  O  O247  1  0.61990503  0.85292893  0.86338950  1
  O  O248  1  0.38139109  0.14044772  0.13582732  1
  O  O249  1  0.35684168  0.14591270  0.60930812  1
  O  O250  1  0.38561247  0.61971040  0.12523903  1
  O  O251  1  0.38245603  0.61894127  0.62076800  1
  O  O252  1  0.90038237  0.14427931  0.13412102  1
  O  O253  1  0.88219803  0.14575513  0.63190497  1
  O  O254  1  0.88093969  0.63247177  0.18747695  1
  O  O255  1  0.83487677  0.65697734  0.61746900  1
  O  O256  1  0.26599958  0.26119531  0.11645958  1
  O  O257  1  0.25150147  0.26702371  0.63597848  1
  O  O258  1  0.25566697  0.76187753  0.11817061  1
  O  O259  1  0.23549380  0.74638617  0.65162185  1
  O  O260  1  0.77039435  0.26664037  0.12770592  1
  O  O261  1  0.75840131  0.26419724  0.61489024  1
  O  O262  1  0.76067651  0.69779170  0.10004625  1
  O  O263  1  0.78361753  0.69033623  0.66054251  1
  O  O264  1  0.26300043  0.22347687  0.38032078  1
  O  O265  1  0.26459452  0.25467457  0.89467480  1
  O  O266  1  0.24207664  0.72870429  0.36113542  1
  O  O267  1  0.24234633  0.74352950  0.89258285  1
  O  O268  1  0.75328831  0.25140336  0.38762278  1
  O  O269  1  0.75780108  0.27218272  0.90089305  1
  O  O270  1  0.77583112  0.72221793  0.37270242  1
  O  O271  1  0.73724897  0.73972292  0.88290699  1
  O  O272  1  -0.01378892  0.12517027  0.00365910  1
  O  O273  1  -0.00664935  0.13273010  0.52228324  1
  O  O274  1  0.02002442  0.63462741  0.01627444  1
  O  O275  1  -0.01833820  0.60780030  0.48157742  1
  O  O276  1  0.50915371  0.10393525  -0.02718698  1
  O  O277  1  0.49653870  0.11785402  0.51139651  1
  O  O278  1  0.49841081  0.61131894  0.00579731  1
  O  O279  1  0.50425621  0.61416401  0.49975066  1
  O  O280  1  0.48014830  0.38617995  0.50544153  1
  O  O281  1  0.49262385  0.38623407  1.00959225  1
  O  O282  1  0.49208591  0.90110733  0.51801252  1
  O  O283  1  0.50128894  0.87426868  0.97538064  1
  O  O284  1  0.98781433  0.37912785  0.50251366  1
  O  O285  1  0.98262221  0.39170602  1.03387304  1
  O  O286  1  0.87365294  0.81658361  0.58168127  1
  O  O287  1  0.98861113  0.88118407  1.00426801  1
  O  O288  1  0.48218683  0.50771467  0.38235978  1
  O  O289  1  0.48445683  0.50683777  0.87322581  1
  O  O290  1  0.48284789  1.00744576  0.39349999  1
  O  O291  1  0.49387935  0.97907741  0.87960178  1
  O  O292  1  1.00912752  0.48948784  0.38502206  1
  O  O293  1  1.06024070  0.39856544  0.84993126  1
  O  O294  1  0.99666253  0.94135141  0.43703874  1
  O  O295  1  0.97526841  0.99963249  0.89426019  1
  O  O296  1  0.01741810  0.01548176  0.12264953  1
  O  O297  1  -0.00326438  0.00902441  0.61954562  1
  O  O298  1  0.02587739  0.51460370  0.13941037  1
  O  O299  1  0.01293339  0.49413582  0.62768504  1
  O  O300  1  0.45392900  -0.00231633  0.07386673  1
  O  O301  1  0.50105826  0.01895427  0.61494861  1
  O  O302  1  0.49492632  0.50630408  0.11621642  1
  O  O303  1  0.49316411  0.50612445  0.60828918  1
  O  O304  1  0.24410067  0.37685210  0.24118888  1
  O  O305  1  0.25621799  0.38790071  0.73903283  1
  O  O306  1  0.24493415  0.88885815  0.23381917  1
  O  O307  1  0.22639005  0.90139081  0.81930070  1
  O  O308  1  0.75556174  0.37640593  0.25015317  1
  O  O309  1  0.75286610  0.38869073  0.73432597  1
  O  O310  1  0.72928569  0.85642518  0.20317046  1
  O  O311  1  0.73457635  0.87107820  0.76176382  1
  O  O312  1  0.24910164  0.12038910  0.23358060  1
  O  O313  1  0.26555340  0.12093467  0.74376875  1
  O  O314  1  0.24752058  0.60794513  0.25528442  1
  O  O315  1  0.23796978  0.61607182  0.76982176  1
  O  O316  1  0.77903493  0.11960228  0.21945752  1
  O  O317  1  0.76201706  0.11500907  0.71413966  1
  O  O318  1  0.72099781  0.61586607  0.26237692  1
  O  O319  1  0.66961768  0.55047742  0.74517825  1
  O  O320  1  0.38337767  0.12874032  0.35678651  1
  O  O321  1  0.37891506  0.12920673  0.85701896  1
  O  O322  1  0.35959081  0.60907961  0.37730483  1
  O  O323  1  0.36272189  0.61022969  0.88247891  1
  O  O324  1  0.87909907  0.14477926  0.35329019  1
  O  O325  1  0.86116321  0.11900910  0.85195827  1
  O  O326  1  0.83767509  0.66078873  0.36993358  1
  O  O327  1  0.97021703  0.54032616  0.87745329  1
  O  O328  1  0.13954603  0.39217493  0.12341126  1
  O  O329  1  0.13932359  0.38364464  0.62312732  1
  O  O330  1  0.13137381  0.89031042  0.13108773  1
  O  O331  1  0.14635503  0.89993443  0.67475348  1
  O  O332  1  0.64396142  0.37639221  0.14687586  1
  O  O333  1  0.63758272  0.37030362  0.61583622  1
  O  O334  1  0.58857552  0.88634592  0.12855656  1
  O  O335  1  0.62222944  0.86779132  0.64728240  1
  O  O336  1  0.12559073  0.26052501  0.24303447  1
  O  O337  1  0.13348887  0.26346912  0.76502334  1
  O  O338  1  0.12610060  0.76659367  0.24051833  1
  O  O339  1  0.12963263  0.77420720  0.78241732  1
  O  O340  1  0.62955001  0.26107256  0.26360741  1
  O  O341  1  0.60806394  0.24968567  0.74949850  1
  O  O342  1  0.60683783  0.76161723  0.23064729  1
  O  O343  1  0.63690783  0.72921686  0.76129912  1
  O  O344  1  0.37723065  0.24262315  0.24024993  1
  O  O345  1  0.38057335  0.23899985  0.73842238  1
  O  O346  1  0.39630021  0.75855513  0.25432340  1
  O  O347  1  0.29719808  0.77174885  0.69420110  1
  O  O348  1  0.90168555  0.25630062  0.24186140  1
  O  O349  1  0.86188660  0.26272631  0.74337331  1
  O  O350  1  0.94200921  0.79740134  0.17899366  1
  O  O351  1  0.90494873  0.76109165  0.75039859  1
  O  O352  1  0.37664928  0.49179249  0.48941122  1
  O  O353  1  0.38457006  0.49286884  0.99206423  1
  O  O354  1  0.34586166  1.03119094  0.47311041  1
  O  O355  1  0.34513242  0.99281333  0.95709393  1
  O  O356  1  0.88929062  0.48848541  0.51745651  1
  O  O357  1  0.87186003  0.51283573  1.01958338  1
  O  O358  1  0.84915634  1.00189851  0.43119922  1
  O  O359  1  0.84461730  1.00710846  1.03895682  1
  O  O360  1  0.13877953  -0.00374671  0.00808907  1
  O  O361  1  0.05007713  -0.00693939  0.43894467  1
  O  O362  1  0.13511928  0.51583338  0.01469481  1
  O  O363  1  0.10795951  0.49364436  0.51080047  1
  O  O364  1  0.61542859  -0.01557198  -0.00308653  1
  O  O365  1  0.61427108  -0.00318351  0.48715941  1
  O  O366  1  0.60126976  0.50160530  -0.01140407  1
  O  O367  1  0.60373773  0.48616698  0.48920231  1
  O  O368  1  0.37079682  0.36743640  0.12001086  1
  O  O369  1  0.36282277  0.36798588  0.61552633  1
  O  O370  1  0.36625729  0.87911253  0.13298877  1
  O  O371  1  0.35558973  0.88019614  0.61106061  1
  O  O372  1  0.86832258  0.37889143  0.13480084  1
  O  O373  1  0.86617171  0.36830626  0.61749745  1
  O  O374  1  0.89307927  0.85548852  0.15491996  1
  O  O375  1  0.86972356  0.87082947  0.63021029  1
  O  O376  1  0.05059577  0.04875955  0.38028402  1
  O  O377  1  0.10776389  0.16590723  0.85265983  1
  O  O378  1  0.13286400  0.63648561  0.37168398  1
  O  O379  1  0.13246619  0.63570587  0.89664172  1
  O  O380  1  0.62630971  0.14081272  0.36648654  1
  O  O381  1  0.70873361  0.05075790  0.86765051  1
  O  O382  1  0.62539223  0.62618044  0.38775218  1
  O  O383  1  0.60938043  0.63201294  0.88918902  1
