# generated using pymatgen
data_VZnO4
_symmetry_space_group_name_H-M   'P 1'
_cell_length_a   16.87197017
_cell_length_b   16.85518563
_cell_length_c   16.93991806
_cell_angle_alpha   89.86240412
_cell_angle_beta   89.90250330
_cell_angle_gamma   90.26689796
_symmetry_Int_Tables_number   1
_chemical_formula_structural   VZnO4
_chemical_formula_sum   'V64 Zn64 O256'
_cell_volume   4817.30387938
_cell_formula_units_Z   64
loop_
 _symmetry_equiv_pos_site_id
 _symmetry_equiv_pos_as_xyz
  1  'x, y, z'
loop_
 _atom_site_type_symbol
 _atom_site_label
 _atom_site_symmetry_multiplicity
 _atom_site_fract_x
 _atom_site_fract_y
 _atom_site_fract_z
 _atom_site_occupancy
  V  V0  1  0.37850500  0.00748875  0.88762601  1
  V  V1  1  0.73407314  0.26126456  -0.00290667  1
  V  V2  1  0.12385771  0.48838978  0.12282558  1
  V  V3  1  0.24566976  -0.01796429  0.74556026  1
  V  V4  1  0.62607609  0.42430148  0.22179397  1
  V  V5  1  0.37129669  0.63465204  0.24547298  1
  V  V6  1  0.38017420  0.86489346  0.51203107  1
  V  V7  1  0.37714026  0.25986198  0.62243350  1
  V  V8  1  0.85827151  0.73819482  0.12565606  1
  V  V9  1  0.86970178  0.24720931  0.12121403  1
  V  V10  1  0.01276183  0.74621810  0.25772019  1
  V  V11  1  0.62076900  0.38341671  0.71206493  1
  V  V12  1  0.23617656  0.62773523  0.86513521  1
  V  V13  1  0.11871783  0.36515192  0.25411682  1
  V  V14  1  0.25813964  0.48387930  0.26061494  1
  V  V15  1  0.87109609  0.00565031  0.37820087  1
  V  V16  1  0.00039710  0.37173638  0.39598184  1
  V  V17  1  0.38107358  0.26044318  0.13335965  1
  V  V18  1  0.86850614  0.48799757  0.39072462  1
  V  V19  1  0.74447273  0.88721018  0.11997801  1
  V  V20  1  0.49079137  0.75158066  0.74048008  1
  V  V21  1  0.74357812  0.51122172  0.73496226  1
  V  V22  1  0.24290894  -0.00439335  0.25456460  1
  V  V23  1  -0.00584406  0.12213358  0.62931788  1
  V  V24  1  0.87021000  0.60339816  0.25637912  1
  V  V25  1  0.89481847  0.63511842  0.73517864  1
  V  V26  1  0.00785034  0.61397458  0.11563981  1
  V  V27  1  0.49387567  0.88099686  0.36756711  1
  V  V28  1  0.60742648  0.25636937  0.36593129  1
  V  V29  1  0.63092141  0.75710248  0.87879618  1
  V  V30  1  0.49915403  0.00050123  0.51398507  1
  V  V31  1  0.50154478  0.62533791  0.09261004  1
  V  V32  1  0.11011858  0.12079306  0.00641422  1
  V  V33  1  0.63289885  0.89136624  0.73959548  1
  V  V34  1  0.74438835  0.12601108  0.35134569  1
  V  V35  1  0.63008735  0.89206588  0.25009041  1
  V  V36  1  0.37919801  0.11185779  0.25602130  1
  V  V37  1  0.49621906  0.87829366  0.89185182  1
  V  V38  1  0.50786401  0.24579274  0.75309820  1
  V  V39  1  0.50178096  0.11211700  0.12013475  1
  V  V40  1  0.24598920  0.22791330  0.49691818  1
  V  V41  1  0.62168925  0.10976061  -0.00265815  1
  V  V42  1  0.50904611  0.49919321  0.49380951  1
  V  V43  1  0.24383670  0.75609797  0.51146991  1
  V  V44  1  0.38345281  0.38379123  -0.02622742  1
  V  V45  1  0.13651802  0.38628132  0.75284413  1
  V  V46  1  0.13030670  0.59580102  0.50346131  1
  V  V47  1  0.62592909  0.11804131  0.51279126  1
  V  V48  1  0.12615229  0.22882460  0.37319211  1
  V  V49  1  0.36851481  0.12188745  0.74445343  1
  V  V50  1  0.75714310  0.87747311  0.60022274  1
  V  V51  1  0.01111227  0.78152267  0.74674086  1
  V  V52  1  0.51622152  0.73841331  0.24955248  1
  V  V53  1  0.75109552  0.64067452  0.87695173  1
  V  V54  1  0.27098384  0.88396342  0.11061307  1
  V  V55  1  0.76135393  0.11421576  0.86988903  1
  V  V56  1  0.26022996  0.24488483  -0.01319578  1
  V  V57  1  0.10460203  0.25504136  0.87559869  1
  V  V58  1  0.61614287  0.65128908  0.48128209  1
  V  V59  1  0.75819515  0.25339131  0.50663293  1
  V  V60  1  0.36930699  0.37668735  0.47675901  1
  V  V61  1  0.25047662  0.63525963  0.37552086  1
  V  V62  1  0.88247220  0.50592424  0.87604021  1
  V  V63  1  0.11682141  0.76801168  0.90378268  1
  Zn  Zn64  1  0.20436573  0.18541589  0.18135393  1
  Zn  Zn65  1  0.19010343  0.19642106  0.68919697  1
  Zn  Zn66  1  0.18236457  0.67793504  0.18858383  1
  Zn  Zn67  1  0.19131271  0.69025961  0.68698795  1
  Zn  Zn68  1  0.67594176  0.20598079  0.17776874  1
  Zn  Zn69  1  0.68700925  0.18440620  0.69043626  1
  Zn  Zn70  1  0.67905476  0.63071040  0.18386264  1
  Zn  Zn71  1  0.69391343  0.70803168  0.68646761  1
  Zn  Zn72  1  0.31192517  0.29500537  0.31246594  1
  Zn  Zn73  1  0.31429081  0.31724292  0.80805416  1
  Zn  Zn74  1  0.31001819  0.81667692  0.31214521  1
  Zn  Zn75  1  0.30770289  0.80904659  0.82788825  1
  Zn  Zn76  1  0.79255814  0.32034281  0.30816126  1
  Zn  Zn77  1  0.77485204  0.33377699  0.84600813  1
  Zn  Zn78  1  0.81608882  0.80518860  0.30503428  1
  Zn  Zn79  1  0.81915059  0.82124989  0.79070397  1
  Zn  Zn80  1  0.19518860  0.42355962  0.43861220  1
  Zn  Zn81  1  0.19612081  0.43022879  0.93801014  1
  Zn  Zn82  1  0.20812215  0.94912584  0.44580542  1
  Zn  Zn83  1  0.19053170  0.94699069  0.93602568  1
  Zn  Zn84  1  0.68655751  0.43240854  0.44604157  1
  Zn  Zn85  1  0.72472338  0.47216516  0.95675997  1
  Zn  Zn86  1  0.68350621  0.94071265  0.42569051  1
  Zn  Zn87  1  0.68977478  0.93545603  0.93877499  1
  Zn  Zn88  1  0.30829423  0.07117483  0.06798071  1
  Zn  Zn89  1  0.32307906  0.05606061  0.56881691  1
  Zn  Zn90  1  0.32508236  0.53408792  0.08446883  1
  Zn  Zn91  1  0.34754112  0.56521355  0.55489885  1
  Zn  Zn92  1  0.80761251  0.07260248  0.07044587  1
  Zn  Zn93  1  0.80714730  0.05594851  0.55359756  1
  Zn  Zn94  1  0.83168716  0.59159443  0.04612658  1
  Zn  Zn95  1  0.88201746  0.50855252  0.59826013  1
  Zn  Zn96  1  0.45160146  0.44516058  0.19294227  1
  Zn  Zn97  1  0.44374212  0.44091950  0.66452658  1
  Zn  Zn98  1  0.43766009  0.93189617  0.17934137  1
  Zn  Zn99  1  0.43813898  0.93188464  0.69577960  1
  Zn  Zn100  1  0.92454181  0.40551845  0.20707933  1
  Zn  Zn101  1  0.93778998  0.41277631  0.75475133  1
  Zn  Zn102  1  0.91776620  0.90763014  0.22289834  1
  Zn  Zn103  1  0.97215582  0.90160627  0.63567168  1
  Zn  Zn104  1  0.06655550  0.03958240  0.30454736  1
  Zn  Zn105  1  0.06704890  0.06412890  0.82081815  1
  Zn  Zn106  1  0.06268790  0.55431089  0.31345251  1
  Zn  Zn107  1  0.07448519  0.57361591  0.82134671  1
  Zn  Zn108  1  0.56123087  0.06853071  0.30923233  1
  Zn  Zn109  1  0.56346068  0.06424923  0.81643372  1
  Zn  Zn110  1  0.56241952  0.55638997  0.32111797  1
  Zn  Zn111  1  0.57881018  0.57916433  0.78602639  1
  Zn  Zn112  1  0.43408092  0.17858099  0.44025723  1
  Zn  Zn113  1  0.44618039  0.19386200  0.93494622  1
  Zn  Zn114  1  0.43878597  0.68840764  0.42748051  1
  Zn  Zn115  1  0.44712694  0.66174756  0.88830798  1
  Zn  Zn116  1  0.93432141  0.18439987  0.42652828  1
  Zn  Zn117  1  0.92885963  0.19241415  0.94595716  1
  Zn  Zn118  1  0.95226292  0.67251443  0.42232773  1
  Zn  Zn119  1  0.94476696  0.69767196  0.93430046  1
  Zn  Zn120  1  0.08041124  0.27223618  0.08781488  1
  Zn  Zn121  1  0.01094568  0.34488074  0.61021943  1
  Zn  Zn122  1  0.04989369  0.82451688  0.09568108  1
  Zn  Zn123  1  0.05227788  0.71925890  0.56975699  1
  Zn  Zn124  1  0.55691188  0.31375582  0.06403566  1
  Zn  Zn125  1  0.55540376  0.30715229  0.54595349  1
  Zn  Zn126  1  0.56593503  0.80008309  0.06972936  1
  Zn  Zn127  1  0.56751141  0.81461023  0.56543777  1
  O  O128  1  0.11960270  0.16044956  0.10898041  1
  O  O129  1  0.09954593  0.13305116  0.63617656  1
  O  O130  1  0.11780196  0.60618383  0.12534015  1
  O  O131  1  0.13402090  0.63150277  0.60137266  1
  O  O132  1  0.60923097  0.13014201  0.11803920  1
  O  O133  1  0.62576883  0.11916165  0.61122609  1
  O  O134  1  0.60206118  0.63893085  0.09671108  1
  O  O135  1  0.65390435  0.63032934  0.59462579  1
  O  O136  1  0.38011384  0.36018082  0.37949245  1
  O  O137  1  0.38178904  0.38214580  0.87304663  1
  O  O138  1  0.39068163  0.87220635  0.37655091  1
  O  O139  1  0.39011242  0.88452151  0.87969222  1
  O  O140  1  0.89052546  0.37645362  0.37058706  1
  O  O141  1  0.87137514  0.40173194  0.84976963  1
  O  O142  1  0.86733870  0.91012226  0.32580673  1
  O  O143  1  0.88497090  0.90251276  0.86261286  1
  O  O144  1  0.24486403  0.00078809  0.35699134  1
  O  O145  1  0.27478970  -0.00516250  0.86363504  1
  O  O146  1  0.24616482  0.50451908  0.36215260  1
  O  O147  1  0.22789038  0.53358468  0.90501166  1
  O  O148  1  0.75281966  0.01668278  0.36701401  1
  O  O149  1  0.75230641  0.01274979  0.88643479  1
  O  O150  1  0.76882105  0.48492379  0.38485789  1
  O  O151  1  0.74593108  0.52634041  0.85765483  1
  O  O152  1  0.23368797  0.50255643  0.14728801  1
  O  O153  1  0.34867653  0.50495597  0.71404071  1
  O  O154  1  0.26000559  0.98863921  0.13117646  1
  O  O155  1  0.25906554  1.00026901  0.64449612  1
  O  O156  1  0.74139732  0.53220245  0.11000843  1
  O  O157  1  0.77103912  0.49279451  0.64244839  1
  O  O158  1  0.76221400  0.98463573  0.13236477  1
  O  O159  1  0.75628345  0.98716225  0.62695593  1
  O  O160  1  0.01692816  0.36387955  0.26412944  1
  O  O161  1  0.02633367  0.34240356  0.75048163  1
  O  O162  1  0.01143336  0.84721574  0.21258388  1
  O  O163  1  0.00649480  0.88136449  0.74930524  1
  O  O164  1  0.53260407  0.40820376  0.26371866  1
  O  O165  1  0.51723236  0.38755272  0.73551226  1
  O  O166  1  0.51149793  0.86293578  0.24929328  1
  O  O167  1  0.51253574  0.86822258  0.75631979  1
  O  O168  1  0.49084373  0.11967100  0.23387235  1
  O  O169  1  0.50785994  0.14294076  0.74794370  1
  O  O170  1  0.48210651  0.63165574  0.26377792  1
  O  O171  1  0.49157321  0.64604902  0.77728820  1
  O  O172  1  1.00033669  0.05559120  0.18462202  1
  O  O173  1  0.99296393  0.11548962  0.73518993  1
  O  O174  1  0.99504155  0.62584730  0.25076720  1
  O  O175  1  0.99419448  0.62649445  0.74905046  1
  O  O176  1  0.37376368  0.25548826  0.00330205  1
  O  O177  1  0.37763904  0.25302310  0.50977944  1
  O  O178  1  0.30780300  0.71568941  0.02586971  1
  O  O179  1  0.37199954  0.75923074  0.49326690  1
  O  O180  1  0.85423310  0.25333734  0.01164982  1
  O  O181  1  0.85791173  0.23524456  0.49336715  1
  O  O182  1  0.88118275  0.73219828  0.02574093  1
  O  O183  1  0.84424990  0.73621860  0.46547679  1
  O  O184  1  0.14248725  0.23200102  0.48712136  1
  O  O185  1  0.14147274  0.25647907  0.98588872  1
  O  O186  1  0.14385964  0.76161444  0.49937297  1
  O  O187  1  0.09653265  0.76833666  1.00213644  1
  O  O188  1  0.62339514  0.22913392  0.49272515  1
  O  O189  1  0.63073289  0.24217032  1.00553279  1
  O  O190  1  0.61608722  0.75203681  0.48353722  1
  O  O191  1  0.62681846  0.75828202  0.97763579  1
  O  O192  1  0.48594160  0.23770595  0.11974686  1
  O  O193  1  0.48526086  0.25744256  0.63107825  1
  O  O194  1  0.49440144  0.73704260  0.14169995  1
  O  O195  1  0.50693020  0.74883370  0.64084243  1
  O  O196  1  0.97054986  0.26661411  0.11294871  1
  O  O197  1  0.98539771  0.22655785  0.63025866  1
  O  O198  1  0.99697009  0.72247194  0.13606082  1
  O  O199  1  0.99420455  0.78532372  0.63364319  1
  O  O200  1  0.01682244  0.25234316  0.38133540  1
  O  O201  1  0.00437846  0.25873732  0.88514802  1
  O  O202  1  -0.01581853  0.75877064  0.35516539  1
  O  O203  1  0.01083310  0.75688195  0.86153446  1
  O  O204  1  0.50867567  0.23835883  0.37825672  1
  O  O205  1  0.49712983  0.25948890  0.85116342  1
  O  O206  1  0.49678622  0.76151186  0.35553130  1
  O  O207  1  0.51275829  0.76585397  0.86804848  1
  O  O208  1  0.26908416  0.12793437  0.49680431  1
  O  O209  1  0.24122254  0.14016658  1.00495912  1
  O  O210  1  0.24960780  0.63317013  0.49173833  1
  O  O211  1  0.26335829  0.65736293  1.02635092  1
  O  O212  1  0.73377392  0.12240830  0.49172830  1
  O  O213  1  0.73610400  0.13021042  1.00013335  1
  O  O214  1  0.71176504  0.62426769  0.53702575  1
  O  O215  1  0.74981298  0.63636530  0.97549815  1
  O  O216  1  0.26946594  0.35876271  -0.00595912  1
  O  O217  1  0.26373757  0.34625409  0.49120637  1
  O  O218  1  0.25584885  0.88719969  0.01137125  1
  O  O219  1  0.26957481  0.86634292  0.49238491  1
  O  O220  1  0.73418824  0.36091877  -0.03588862  1
  O  O221  1  0.75098103  0.35395557  0.49958603  1
  O  O222  1  0.74226495  0.87318067  0.02127013  1
  O  O223  1  0.74238755  0.87919708  0.50075856  1
  O  O224  1  0.13415726  0.47986637  0.25209417  1
  O  O225  1  0.11295257  0.48386280  0.76109094  1
  O  O226  1  0.14226458  0.99810232  0.23640661  1
  O  O227  1  0.14829269  1.00549207  0.76704667  1
  O  O228  1  0.62949404  0.53183533  0.23113302  1
  O  O229  1  0.63321648  0.50408857  0.72424855  1
  O  O230  1  0.62575001  0.99071967  0.24519053  1
  O  O231  1  0.61428910  0.98967387  0.74827835  1
  O  O232  1  0.37668186  0.00734687  0.24590094  1
  O  O233  1  0.37477348  0.01095044  0.75194751  1
  O  O234  1  0.36043639  0.50620047  0.24599104  1
  O  O235  1  0.36315110  0.58214598  0.71532728  1
  O  O236  1  0.93171846  0.02491786  0.18872976  1
  O  O237  1  0.91857956  -0.03314236  0.83323874  1
  O  O238  1  0.87953071  0.49854888  0.25548788  1
  O  O239  1  0.86518566  0.52399285  0.76139417  1
  O  O240  1  0.11855492  0.36128617  0.37281379  1
  O  O241  1  0.13091096  0.36320688  0.86880341  1
  O  O242  1  0.09360453  0.92144815  0.39601494  1
  O  O243  1  0.12700440  0.86789786  0.88216489  1
  O  O244  1  0.61771454  0.35281946  0.39783380  1
  O  O245  1  0.58121736  0.48901714  0.94642038  1
  O  O246  1  0.61418516  0.87457338  0.35662328  1
  O  O247  1  0.61993286  0.87287525  0.86660073  1
  O  O248  1  0.38799005  0.13046970  0.12790267  1
  O  O249  1  0.38341989  0.13125627  0.64040588  1
  O  O250  1  0.37365354  0.62489034  0.14249153  1
  O  O251  1  0.33456463  0.62405744  0.65296107  1
  O  O252  1  0.85955572  0.14884896  0.14048356  1
  O  O253  1  0.88941090  0.11358486  0.62525528  1
  O  O254  1  0.88935655  0.61629643  0.14075466  1
  O  O255  1  0.88506310  0.61981473  0.63658701  1
  O  O256  1  0.27372430  0.24915684  0.11114267  1
  O  O257  1  0.26383941  0.23700339  0.61052535  1
  O  O258  1  0.21729942  0.77708181  0.13071570  1
  O  O259  1  0.25435076  0.74996556  0.60948854  1
  O  O260  1  0.74878138  0.26076733  0.10643461  1
  O  O261  1  0.74244670  0.23662544  0.60656002  1
  O  O262  1  0.76103699  0.71535430  0.12873535  1
  O  O263  1  0.76107651  0.77777058  0.62956913  1
  O  O264  1  0.24019562  0.23780023  0.38264436  1
  O  O265  1  0.26751270  0.24191943  0.88600737  1
  O  O266  1  0.24872149  0.73896113  0.37792179  1
  O  O267  1  0.22580588  0.74870578  0.88184165  1
  O  O268  1  0.73958223  0.23840939  0.38084219  1
  O  O269  1  0.74874542  0.23144069  0.89194204  1
  O  O270  1  0.79036921  0.74741182  0.41437147  1
  O  O271  1  0.74456903  0.75115533  0.85965351  1
  O  O272  1  0.00855489  0.12925432  0.00455132  1
  O  O273  1  0.00014812  0.12290910  0.52393553  1
  O  O274  1  -0.00934670  0.61499869  0.01789727  1
  O  O275  1  0.02672606  0.63077017  0.49527316  1
  O  O276  1  0.51102581  0.12806448  0.00591283  1
  O  O277  1  0.50486163  0.10688156  0.49832977  1
  O  O278  1  0.47585019  0.63913876  -0.00366321  1
  O  O279  1  0.51146945  0.62477044  0.49179926  1
  O  O280  1  0.47952883  0.38904161  0.50767680  1
  O  O281  1  0.48169120  0.36713616  0.99747638  1
  O  O282  1  0.49689573  0.87866294  0.48682146  1
  O  O283  1  0.50946376  0.86896322  0.98973754  1
  O  O284  1  1.00320016  0.36330190  0.49416010  1
  O  O285  1  0.96877190  0.39974018  1.01868883  1
  O  O286  1  1.03790298  0.89248547  0.43662354  1
  O  O287  1  0.98918353  0.90440934  1.02252591  1
  O  O288  1  0.48778698  0.50820193  0.39552861  1
  O  O289  1  0.54125826  0.49187565  0.88421450  1
  O  O290  1  0.50275428  0.98374393  0.37072491  1
  O  O291  1  0.49357912  0.98722816  0.87326472  1
  O  O292  1  1.00337598  0.47641348  0.37810166  1
  O  O293  1  0.98106866  0.51823379  0.87811330  1
  O  O294  1  0.96862492  1.02787339  0.35248466  1
  O  O295  1  0.98140283  0.99299263  0.87360897  1
  O  O296  1  -0.04701446  -0.03198427  0.05268223  1
  O  O297  1  0.00120541  0.01676732  0.62647301  1
  O  O298  1  0.01525139  0.50335383  0.14131877  1
  O  O299  1  -0.06069687  0.42492267  0.64374659  1
  O  O300  1  0.49531958  0.01151860  0.11818641  1
  O  O301  1  0.50178525  -0.01040732  0.61159008  1
  O  O302  1  0.48771302  0.52718998  0.11837347  1
  O  O303  1  0.45716938  0.52496889  0.58803321  1
  O  O304  1  0.24715383  0.38056757  0.26240666  1
  O  O305  1  0.23872467  0.37454307  0.74918902  1
  O  O306  1  0.26463501  0.89089706  0.24210950  1
  O  O307  1  0.25668256  0.88211832  0.75257236  1
  O  O308  1  0.71074215  0.39070924  0.26740592  1
  O  O309  1  0.71978351  0.39551749  0.76350589  1
  O  O310  1  0.73067744  0.86032576  0.24709379  1
  O  O311  1  0.73433162  0.88504052  0.75411717  1
  O  O312  1  0.26752513  0.10803485  0.23659495  1
  O  O313  1  0.26830582  0.12593950  0.75086487  1
  O  O314  1  0.25487103  0.62027262  0.26039142  1
  O  O315  1  0.22091443  0.61676853  0.76567800  1
  O  O316  1  0.73715497  0.13482745  0.25346850  1
  O  O317  1  0.73804309  0.12781715  0.77136582  1
  O  O318  1  0.77224467  0.61895565  0.25454480  1
  O  O319  1  0.75351355  0.62324717  0.74513840  1
  O  O320  1  0.38143818  0.12458088  0.35495693  1
  O  O321  1  0.39504947  0.11425665  0.85854600  1
  O  O322  1  0.35756237  0.62317575  0.36830408  1
  O  O323  1  0.33705741  0.64902930  0.87731116  1
  O  O324  1  0.85401783  0.12162833  0.36767160  1
  O  O325  1  0.86253409  0.12521786  0.88209609  1
  O  O326  1  0.88661477  0.59902962  0.36528930  1
  O  O327  1  0.86484511  0.63128705  0.86493125  1
  O  O328  1  0.12038615  0.37184122  0.14627141  1
  O  O329  1  0.11696232  0.35516386  0.65087748  1
  O  O330  1  0.16319226  0.84033124  0.14064747  1
  O  O331  1  0.09439830  0.90995511  0.56443626  1
  O  O332  1  0.61948527  0.38575057  0.12724750  1
  O  O333  1  0.62705226  0.37633356  0.61445498  1
  O  O334  1  0.63433723  0.86583924  0.13827591  1
  O  O335  1  0.63764470  0.87805486  0.63238596  1
  O  O336  1  0.14399194  0.25843972  0.26177679  1
  O  O337  1  0.13710830  0.24226071  0.77719596  1
  O  O338  1  0.11210095  0.73109138  0.26182458  1
  O  O339  1  0.10932797  0.75503959  0.74000704  1
  O  O340  1  0.62070636  0.25475540  0.26476382  1
  O  O341  1  0.61461956  0.27135088  0.73544880  1
  O  O342  1  0.61382976  0.72446318  0.24741219  1
  O  O343  1  0.61735739  0.76437954  0.75560278  1
  O  O344  1  0.36891478  0.23266919  0.23684106  1
  O  O345  1  0.38430433  0.24345582  0.74021542  1
  O  O346  1  0.37037999  0.73608642  0.25199197  1
  O  O347  1  0.39230202  0.76764488  0.75662482  1
  O  O348  1  0.85568117  0.31163527  0.20897506  1
  O  O349  1  0.84297181  0.25834062  0.75063072  1
  O  O350  1  0.88216447  0.73006063  0.24222618  1
  O  O351  1  0.89506262  0.74476240  0.75233316  1
  O  O352  1  0.34576230  0.47605804  0.48624489  1
  O  O353  1  0.36876355  0.48253360  0.99887839  1
  O  O354  1  0.38954240  0.98418926  0.50049109  1
  O  O355  1  0.37398317  1.01871779  0.98479350  1
  O  O356  1  0.88490265  0.50079668  0.48716236  1
  O  O357  1  0.84584633  0.50465030  0.97436700  1
  O  O358  1  0.87328476  0.99537764  0.47698823  1
  O  O359  1  0.89145039  0.99417069  1.01173482  1
  O  O360  1  0.12862042  0.02160103  0.00072734  1
  O  O361  1  0.13961328  -0.03254222  0.54613626  1
  O  O362  1  0.12765571  0.47247798  0.02660258  1
  O  O363  1  0.13874877  0.49683704  0.50877813  1
  O  O364  1  0.62641233  0.01062932  0.00673242  1
  O  O365  1  0.61076881  0.00704630  0.49081782  1
  O  O366  1  0.68620527  0.50667026  0.06258418  1
  O  O367  1  0.60963196  0.49732682  0.50418415  1
  O  O368  1  0.38900566  0.36212412  0.13936274  1
  O  O369  1  0.36640339  0.36091614  0.62285108  1
  O  O370  1  0.37009081  0.86179054  0.12178933  1
  O  O371  1  0.38649068  0.86848104  0.61004664  1
  O  O372  1  0.91402374  0.40936840  0.06593712  1
  O  O373  1  0.85328996  0.29965758  0.69044241  1
  O  O374  1  0.84927466  0.84814843  0.14221133  1
  O  O375  1  0.85963150  0.90010518  0.62152104  1
  O  O376  1  0.11501850  0.13149827  0.35750902  1
  O  O377  1  0.11522691  0.14151317  0.89315967  1
  O  O378  1  0.14158890  0.61129550  0.38908489  1
  O  O379  1  0.12419642  0.65013962  0.88956370  1
  O  O380  1  0.63138263  0.13037983  0.37637841  1
  O  O381  1  0.62697365  0.12172075  0.89294467  1
  O  O382  1  0.63642713  0.62128200  0.38736050  1
  O  O383  1  0.63787910  0.64600092  0.86298517  1
