# generated using pymatgen
data_VZnO4
_symmetry_space_group_name_H-M   'P 1'
_cell_length_a   16.93918247
_cell_length_b   17.05117045
_cell_length_c   17.13516672
_cell_angle_alpha   89.95837713
_cell_angle_beta   90.51048081
_cell_angle_gamma   89.23441840
_symmetry_Int_Tables_number   1
_chemical_formula_structural   VZnO4
_chemical_formula_sum   'V64 Zn64 O256'
_cell_volume   4948.55968637
_cell_formula_units_Z   64
loop_
 _symmetry_equiv_pos_site_id
 _symmetry_equiv_pos_as_xyz
  1  'x, y, z'
loop_
 _atom_site_type_symbol
 _atom_site_label
 _atom_site_symmetry_multiplicity
 _atom_site_fract_x
 _atom_site_fract_y
 _atom_site_fract_z
 _atom_site_occupancy
  V  V0  1  0.32614090  0.88043805  -0.01594920  1
  V  V1  1  0.38685080  0.88787948  0.49784656  1
  V  V2  1  0.74482422  0.10034241  0.86461452  1
  V  V3  1  0.75426166  0.61126062  0.38550637  1
  V  V4  1  -0.01134373  0.35189975  0.36992665  1
  V  V5  1  0.14548258  0.87263212  0.23902932  1
  V  V6  1  0.52188519  0.14622407  0.12627344  1
  V  V7  1  0.01132966  0.87404497  0.36253814  1
  V  V8  1  0.10916165  0.63528795  -0.03959778  1
  V  V9  1  0.60892991  0.13076096  0.49921716  1
  V  V10  1  0.11709985  0.35300338  0.24971691  1
  V  V11  1  0.12528266  0.73812902  0.37457356  1
  V  V12  1  0.24616225  0.89093313  0.62751033  1
  V  V13  1  0.37890995  0.47845935  0.38776682  1
  V  V14  1  0.26081549  0.75186235  0.50402916  1
  V  V15  1  -0.00459481  0.87083297  0.82569028  1
  V  V16  1  0.01089639  0.62656099  0.13688670  1
  V  V17  1  0.74184049  0.73957511  0.00387895  1
  V  V18  1  0.74008578  0.49398718  0.24163201  1
  V  V19  1  0.00677436  0.48514669  0.48855967  1
  V  V20  1  0.39039725  0.62779410  0.71721599  1
  V  V21  1  -0.00153682  0.50719115  -0.00423771  1
  V  V22  1  0.74626775  0.88981099  0.14253698  1
  V  V23  1  0.23960223  0.25615788  0.49373311  1
  V  V24  1  0.37983673  0.25704611  0.61473338  1
  V  V25  1  0.36954804  0.14746045  0.24349393  1
  V  V26  1  0.26877747  0.49563518  0.74614443  1
  V  V27  1  0.88821916  0.12992788  0.24576286  1
  V  V28  1  0.37024924  -0.00071048  0.35480642  1
  V  V29  1  0.87636962  0.61133863  0.25730639  1
  V  V30  1  0.52707848  -0.03611833  0.00317632  1
  V  V31  1  0.89755453  0.87581323  0.49781416  1
  V  V32  1  0.50461118  0.10972586  0.63588517  1
  V  V33  1  0.62215068  0.37072269  0.75978410  1
  V  V34  1  0.12665818  0.10065990  0.49397781  1
  V  V35  1  0.01642367  0.13215168  0.64670933  1
  V  V36  1  0.26860548  0.64079653  0.87091750  1
  V  V37  1  0.86222297  0.52636985  0.86883157  1
  V  V38  1  0.61672284  0.75031420  0.37190357  1
  V  V39  1  0.61556260  0.88677477  0.26078752  1
  V  V40  1  0.52885261  0.35987560  0.37664373  1
  V  V41  1  0.88436604  0.87279180  0.01460721  1
  V  V42  1  0.01173162  0.63028654  0.60957191  1
  V  V43  1  0.38182716  0.62664832  0.26240758  1
  V  V44  1  0.36029939  0.11948706  0.75010474  1
  V  V45  1  0.52561475  0.50211522  0.50399520  1
  V  V46  1  0.10387664  0.38040366  0.72132231  1
  V  V47  1  0.25068244  0.61361138  0.39009272  1
  V  V48  1  0.87297540  -0.00724543  0.36048371  1
  V  V49  1  0.60087846  0.51271107  0.12334025  1
  V  V50  1  0.75123807  0.77365924  0.49324878  1
  V  V51  1  0.64772571  0.85999284  0.73697404  1
  V  V52  1  0.86981075  0.74323824  0.14127898  1
  V  V53  1  0.48918743  0.53348971  -0.01009686  1
  V  V54  1  0.87680225  0.74404592  0.62360776  1
  V  V55  1  0.37840728  0.40421725  0.02841801  1
  V  V56  1  0.50442040  0.75168426  0.73452162  1
  V  V57  1  0.00739884  0.38115829  0.87444157  1
  V  V58  1  0.75048446  0.36411992  0.62911275  1
  V  V59  1  0.72446057  0.15421937  0.37236248  1
  V  V60  1  0.27830740  0.23883317  -0.02690964  1
  V  V61  1  0.23958794  0.49262628  0.25071021  1
  V  V62  1  0.85717318  0.38543600  0.00405070  1
  V  V63  1  0.74244500  0.53177691  0.73992012  1
  Zn  Zn64  1  0.19473753  0.18516034  0.17451012  1
  Zn  Zn65  1  0.19076459  0.18779083  0.67076501  1
  Zn  Zn66  1  0.19840763  0.67824467  0.19894512  1
  Zn  Zn67  1  0.21353707  0.64789420  0.66128191  1
  Zn  Zn68  1  0.69266362  0.06454166  0.20510784  1
  Zn  Zn69  1  0.66873004  0.19746739  0.68455544  1
  Zn  Zn70  1  0.68413372  0.68375763  0.19732087  1
  Zn  Zn71  1  0.68407172  0.69252408  0.67041095  1
  Zn  Zn72  1  0.30228804  0.30559994  0.31754812  1
  Zn  Zn73  1  0.27632990  0.28473369  0.77248370  1
  Zn  Zn74  1  0.31717312  0.81076578  0.32417998  1
  Zn  Zn75  1  0.32026015  0.81052692  0.80322098  1
  Zn  Zn76  1  0.81235566  0.31050406  0.30634207  1
  Zn  Zn77  1  0.83397368  0.35713242  0.78324832  1
  Zn  Zn78  1  0.81440786  0.80769351  0.31726593  1
  Zn  Zn79  1  0.82215870  0.79242054  0.82239963  1
  Zn  Zn80  1  0.17346073  0.42528577  0.43602316  1
  Zn  Zn81  1  0.19019399  0.45759776  0.92131560  1
  Zn  Zn82  1  0.19584674  0.93456556  0.43123570  1
  Zn  Zn83  1  0.16921043  0.81161618  0.92030432  1
  Zn  Zn84  1  0.69798608  0.42551830  0.44512457  1
  Zn  Zn85  1  0.67454641  0.45865454  0.93799891  1
  Zn  Zn86  1  0.55699836  0.94511119  0.43965673  1
  Zn  Zn87  1  0.70950851  0.89921540  0.92690205  1
  Zn  Zn88  1  0.31300291  0.06331208  0.07480137  1
  Zn  Zn89  1  0.31351647  0.06775859  0.56147629  1
  Zn  Zn90  1  0.27723847  0.55443416  0.05158521  1
  Zn  Zn91  1  0.31916907  0.54889443  0.56192772  1
  Zn  Zn92  1  0.81936528  0.06317046  0.06636193  1
  Zn  Zn93  1  0.74031262  -0.00648836  0.48097558  1
  Zn  Zn94  1  0.81162235  0.56188904  0.06480936  1
  Zn  Zn95  1  0.82823495  0.54990191  0.56562859  1
  Zn  Zn96  1  0.43869432  0.44136578  0.20731476  1
  Zn  Zn97  1  0.44483080  0.43227168  0.67230709  1
  Zn  Zn98  1  0.46382769  0.98404671  0.19379876  1
  Zn  Zn99  1  0.42454325  0.94048383  0.67830552  1
  Zn  Zn100  1  0.94658881  0.43345530  0.18203087  1
  Zn  Zn101  1  0.92964994  0.46030950  0.67690034  1
  Zn  Zn102  1  0.94931032  0.92918665  0.19167040  1
  Zn  Zn103  1  0.95062593  0.95071735  0.66014405  1
  Zn  Zn104  1  0.07480989  0.05565386  0.29912437  1
  Zn  Zn105  1  -0.03545992  0.07437588  0.82829932  1
  Zn  Zn106  1  0.05940725  0.55803289  0.32381641  1
  Zn  Zn107  1  0.05606075  0.54528758  0.78958339  1
  Zn  Zn108  1  0.54858841  0.07182130  0.31897391  1
  Zn  Zn109  1  0.54233618  0.05363929  0.82663017  1
  Zn  Zn110  1  0.56670229  0.55981578  0.33015343  1
  Zn  Zn111  1  0.53392961  0.52705172  0.78726737  1
  Zn  Zn112  1  0.42756824  0.18696181  0.43021090  1
  Zn  Zn113  1  0.42440108  0.11452281  0.94810391  1
  Zn  Zn114  1  0.43660866  0.68130031  0.44255443  1
  Zn  Zn115  1  0.39981218  0.70405099  1.00211595  1
  Zn  Zn116  1  0.98500368  0.14631959  0.41451674  1
  Zn  Zn117  1  0.89500755  0.23153535  0.90019617  1
  Zn  Zn118  1  0.93999915  0.68443578  0.43952897  1
  Zn  Zn119  1  0.93097747  0.70444387  0.93823648  1
  Zn  Zn120  1  0.20792679  0.38879309  0.09594067  1
  Zn  Zn121  1  0.04710203  0.29432456  0.55360850  1
  Zn  Zn122  1  0.06073698  0.80190008  0.06844297  1
  Zn  Zn123  1  0.07380412  0.80562749  0.55972553  1
  Zn  Zn124  1  0.58079838  0.32888142  0.18999566  1
  Zn  Zn125  1  0.56549548  0.31294548  0.56483919  1
  Zn  Zn126  1  0.57417702  0.81800492  0.06946969  1
  Zn  Zn127  1  0.57297583  0.81961782  0.56315680  1
  O  O128  1  0.00747443  0.15012512  0.04960863  1
  O  O129  1  0.11956295  0.11515472  0.62483227  1
  O  O130  1  0.11045616  0.63662091  0.13410739  1
  O  O131  1  0.11066901  0.64020044  0.61810081  1
  O  O132  1  0.62113286  0.12037684  0.13672282  1
  O  O133  1  0.61347396  0.12547532  0.61233090  1
  O  O134  1  0.62260283  0.61263318  0.14075036  1
  O  O135  1  0.58467915  0.66852384  0.61446822  1
  O  O136  1  0.37003018  0.38113976  0.37454092  1
  O  O137  1  0.49876223  0.27407580  0.87303956  1
  O  O138  1  0.37422467  0.88404175  0.38853366  1
  O  O139  1  0.35940608  0.86923018  0.88917400  1
  O  O140  1  0.89062704  0.37394758  0.36364806  1
  O  O141  1  0.88507552  0.40247262  0.88301667  1
  O  O142  1  0.89569509  0.86871811  0.37421343  1
  O  O143  1  0.84338598  0.90343950  0.93040083  1
  O  O144  1  0.27084584  -0.00024183  0.37728000  1
  O  O145  1  0.21509440  0.02356016  0.85944082  1
  O  O146  1  0.25242446  0.50386544  0.38353530  1
  O  O147  1  0.24852545  0.52789234  0.84887357  1
  O  O148  1  0.77555938  -0.02185100  0.36964906  1
  O  O149  1  0.73036161  -0.00268658  0.85775676  1
  O  O150  1  0.74836793  0.51083710  0.36693255  1
  O  O151  1  0.75870433  0.51884804  0.87090005  1
  O  O152  1  0.24715865  0.49910795  0.15157949  1
  O  O153  1  0.24876170  0.52993983  0.64741214  1
  O  O154  1  0.20195088  1.08451098  0.11496936  1
  O  O155  1  0.25307466  0.98967279  0.62200585  1
  O  O156  1  0.74718000  0.51237816  0.14166095  1
  O  O157  1  0.75449469  0.50822326  0.63993407  1
  O  O158  1  0.75127524  0.99113227  0.13297520  1
  O  O159  1  0.74968490  1.00900461  0.62322506  1
  O  O160  1  0.00598160  0.37286650  0.25747718  1
  O  O161  1  0.00379250  0.39451559  0.76231565  1
  O  O162  1  0.01200891  0.85939399  0.26092103  1
  O  O163  1  -0.00548746  0.87305908  0.72425268  1
  O  O164  1  0.51151089  0.37721549  0.26992406  1
  O  O165  1  0.52369571  0.41625246  0.75081176  1
  O  O166  1  0.51856562  0.88761639  0.23955166  1
  O  O167  1  0.48991173  0.84924465  0.72171416  1
  O  O168  1  0.48849917  0.10005049  0.22758269  1
  O  O169  1  0.51735789  0.11644457  0.73602563  1
  O  O170  1  0.48015690  0.60782581  0.26925739  1
  O  O171  1  0.49311368  0.62910175  0.74393058  1
  O  O172  1  0.98956666  0.11237719  0.24457896  1
  O  O173  1  1.01879103  0.12751107  0.74921879  1
  O  O174  1  0.99195839  0.61286165  0.24187591  1
  O  O175  1  1.07152957  0.73218670  0.75534868  1
  O  O176  1  0.35510231  0.30712671  -0.01374246  1
  O  O177  1  0.35958294  0.23238157  0.50833880  1
  O  O178  1  0.34455214  0.79061283  0.03361420  1
  O  O179  1  0.36591768  0.75842055  0.48565817  1
  O  O180  1  0.86689110  0.28610522  -0.00702195  1
  O  O181  1  0.85985325  0.24891486  0.51066309  1
  O  O182  1  0.86455305  0.75814203  0.02048621  1
  O  O183  1  0.87026348  0.76117477  0.49473565  1
  O  O184  1  0.13553404  0.23913392  0.50728195  1
  O  O185  1  0.17920621  0.24681869  1.01750210  1
  O  O186  1  0.14699083  0.75572854  0.48180505  1
  O  O187  1  0.11220490  0.73597581  0.98764138  1
  O  O188  1  0.62792388  0.22899248  0.50536296  1
  O  O189  1  0.69276870  0.26913045  1.07904474  1
  O  O190  1  0.64452213  0.76639937  0.48583854  1
  O  O191  1  0.64325884  0.74445044  1.02408883  1
  O  O192  1  0.51962514  0.24274381  0.15247372  1
  O  O193  1  0.48756154  0.23438934  0.61149848  1
  O  O194  1  0.49641685  0.74919224  0.14614122  1
  O  O195  1  0.52720739  0.72823786  0.62653917  1
  O  O196  1  1.02120275  0.15070793  -0.02135613  1
  O  O197  1  0.99055002  0.23015466  0.62797450  1
  O  O198  1  0.98283718  0.73113382  0.12390761  1
  O  O199  1  0.99198248  0.73853604  0.61054832  1
  O  O200  1  -0.00702387  0.25422342  0.37936804  1
  O  O201  1  -0.00189720  0.28418358  0.88055935  1
  O  O202  1  0.02051013  0.74722383  0.38174058  1
  O  O203  1  -0.06685552  0.79013181  0.85939773  1
  O  O204  1  0.49852940  0.26549578  0.38565693  1
  O  O205  1  0.54379519  0.27992569  0.92832565  1
  O  O206  1  0.52036044  0.73740810  0.38298513  1
  O  O207  1  0.50938302  0.74758251  0.85729946  1
  O  O208  1  0.23095889  0.12551602  0.50683657  1
  O  O209  1  0.31524881  0.14331141  0.98511712  1
  O  O210  1  0.25927223  0.62913617  0.49251996  1
  O  O211  1  0.22089622  0.62016175  0.96821331  1
  O  O212  1  0.74405564  0.11412441  0.46491107  1
  O  O213  1  0.76994495  0.08281269  0.96576755  1
  O  O214  1  0.77288496  0.61213331  0.48360423  1
  O  O215  1  0.76201499  0.64197394  0.99806871  1
  O  O216  1  0.25922537  0.43277457  0.00798565  1
  O  O217  1  0.23900994  0.35763450  0.49835313  1
  O  O218  1  0.22453808  0.88678471  -0.02042495  1
  O  O219  1  0.26094289  0.86340548  0.50294874  1
  O  O220  1  0.75911491  0.40788349  -0.00391473  1
  O  O221  1  0.75976968  0.38692094  0.53045327  1
  O  O222  1  0.75734996  0.86190524  0.04036188  1
  O  O223  1  0.76594815  0.87266609  0.49374034  1
  O  O224  1  0.14003760  0.50744003  0.26414421  1
  O  O225  1  0.14757380  0.47410478  0.74541622  1
  O  O226  1  0.12467107  0.97214284  0.24510849  1
  O  O227  1  0.15067378  1.01549190  0.82836083  1
  O  O228  1  0.63701198  0.50753062  0.25358204  1
  O  O229  1  0.64317007  0.52623467  0.75851511  1
  O  O230  1  0.63086540  0.98829739  0.26846150  1
  O  O231  1  0.60230781  0.95529218  0.78256466  1
  O  O232  1  0.36833951  -0.01442605  0.25510075  1
  O  O233  1  0.37933681  0.01865729  0.74538052  1
  O  O234  1  0.35928321  0.50013151  0.27257465  1
  O  O235  1  0.37949391  0.51974994  0.73795842  1
  O  O236  1  0.88257042  -0.00530004  0.25827974  1
  O  O237  1  0.80065523  -0.01061885  0.67210669  1
  O  O238  1  0.87230370  0.51130282  0.24520093  1
  O  O239  1  0.85858674  0.50583709  0.76460558  1
  O  O240  1  0.10786146  0.37445207  0.35738515  1
  O  O241  1  0.10959147  0.39196797  0.87817946  1
  O  O242  1  0.12337698  0.86208803  0.36704177  1
  O  O243  1  0.09047019  0.85737793  0.85559809  1
  O  O244  1  0.62976707  0.36402193  0.37672662  1
  O  O245  1  0.63280834  0.38979754  0.85940913  1
  O  O246  1  0.61784909  0.86407612  0.36796851  1
  O  O247  1  0.60595842  0.89274836  0.83721115  1
  O  O248  1  0.38149510  0.12708870  0.13987377  1
  O  O249  1  0.39000541  0.12423417  0.63226837  1
  O  O250  1  0.36270316  0.62596888  0.15504480  1
  O  O251  1  0.38359779  0.63032751  0.62012069  1
  O  O252  1  0.85357531  0.12164114  0.15119296  1
  O  O253  1  0.84927457  0.19461021  0.55497950  1
  O  O254  1  0.87963801  0.62999083  0.14032785  1
  O  O255  1  0.88637226  0.64178229  0.61285181  1
  O  O256  1  0.23021383  0.26431950  0.08584392  1
  O  O257  1  0.26570405  0.24659155  0.60982093  1
  O  O258  1  0.29083891  0.65432352  0.12126928  1
  O  O259  1  0.25409467  0.73934683  0.60256664  1
  O  O260  1  0.72938843  0.25648937  0.14247762  1
  O  O261  1  0.74646387  0.26322228  0.63730853  1
  O  O262  1  0.76300158  0.74016378  0.12837010  1
  O  O263  1  0.76245239  0.74207214  0.59547048  1
  O  O264  1  0.25354209  0.24194121  0.39415325  1
  O  O265  1  0.25275175  0.25415855  0.87914043  1
  O  O266  1  0.24771963  0.72981476  0.38420003  1
  O  O267  1  0.23825095  0.73958237  0.85860545  1
  O  O268  1  0.74900124  0.24990184  0.37817932  1
  O  O269  1  0.76023008  0.19965736  0.89328761  1
  O  O270  1  0.75309371  0.74092724  0.38890734  1
  O  O271  1  0.74290875  0.78267037  0.90692013  1
  O  O272  1  -0.05359023  0.12892878  -0.07039298  1
  O  O273  1  0.02335116  0.12470621  0.51869960  1
  O  O274  1  0.00404231  0.63008364  -0.00011528  1
  O  O275  1  -0.00114359  0.60870883  0.50717472  1
  O  O276  1  0.49647136  0.15074743  0.02722934  1
  O  O277  1  0.50742713  0.12379248  0.49749491  1
  O  O278  1  0.48259413  0.63220615  0.01472958  1
  O  O279  1  0.50165686  0.59848994  0.47705515  1
  O  O280  1  0.51670855  0.38602872  0.48549796  1
  O  O281  1  0.47486135  0.41110297  1.00174121  1
  O  O282  1  0.49202173  0.87239476  0.50362780  1
  O  O283  1  0.49415067  0.86766317  1.00754882  1
  O  O284  1  1.00489196  0.37560078  0.47761159  1
  O  O285  1  0.99692185  0.40510580  0.99016121  1
  O  O286  1  1.00094491  0.86364380  0.48417366  1
  O  O287  1  0.98375372  0.85662155  1.00350538  1
  O  O288  1  0.48993189  0.48079171  0.38123517  1
  O  O289  1  0.49380210  0.53234625  0.89234924  1
  O  O290  1  0.48239662  0.99506900  0.37088836  1
  O  O291  1  0.49094258  1.01972473  0.91992617  1
  O  O292  1  0.98865722  0.50119843  0.38942026  1
  O  O293  1  0.98937743  0.50878882  0.87981088  1
  O  O294  1  1.00079846  0.97424369  0.36892939  1
  O  O295  1  0.96779093  0.96496443  0.84967781  1
  O  O296  1  -0.02932175  -0.01038491  0.09731549  1
  O  O297  1  -0.05158847  0.05367347  0.63035570  1
  O  O298  1  -0.00570835  0.52216615  0.10541752  1
  O  O299  1  -0.00049612  0.56224628  0.69022363  1
  O  O300  1  0.51109211  0.00561505  0.09518756  1
  O  O301  1  0.49967666  0.01139705  0.62189020  1
  O  O302  1  0.49996067  0.51042737  0.13514813  1
  O  O303  1  0.50204808  0.49783856  0.60067990  1
  O  O304  1  0.23276018  0.38349528  0.26274069  1
  O  O305  1  0.28868017  0.39976116  0.75395182  1
  O  O306  1  0.24476909  0.86383898  0.25385415  1
  O  O307  1  0.26633627  0.86557475  0.72260692  1
  O  O308  1  0.76202106  0.39796015  0.25427618  1
  O  O309  1  0.73006212  0.39780134  0.74456831  1
  O  O310  1  0.75168027  0.86943958  0.24456615  1
  O  O311  1  0.74514157  0.85648105  0.75775164  1
  O  O312  1  0.26910829  0.13408341  0.24489775  1
  O  O313  1  0.25902451  0.13193516  0.74849856  1
  O  O314  1  0.25799655  0.60892284  0.27233031  1
  O  O315  1  0.28130178  0.63293003  0.75683321  1
  O  O316  1  0.76127171  0.11532515  0.28301073  1
  O  O317  1  0.71901907  0.12437668  0.76712615  1
  O  O318  1  0.76407988  0.61689834  0.26200476  1
  O  O319  1  0.75265874  0.63208070  0.73650744  1
  O  O320  1  0.38706447  0.11183939  0.35045305  1
  O  O321  1  0.39597649  0.14116217  0.84197807  1
  O  O322  1  0.36289816  0.60762517  0.37781502  1
  O  O323  1  0.36172055  0.64896870  0.90058030  1
  O  O324  1  0.89057807  0.09760650  0.36915807  1
  O  O325  1  0.84119798  0.08461039  0.83079216  1
  O  O326  1  0.87165975  0.62927596  0.36203733  1
  O  O327  1  0.88054210  0.62455084  0.87303378  1
  O  O328  1  0.11466115  0.38833632  0.15432484  1
  O  O329  1  0.08074090  0.38246758  0.62635006  1
  O  O330  1  0.12751409  0.84758466  0.14334245  1
  O  O331  1  0.14701141  0.86833635  0.61508934  1
  O  O332  1  0.62699735  0.41313664  0.13345100  1
  O  O333  1  0.63586672  0.37295389  0.63896276  1
  O  O334  1  0.64079023  0.87000030  0.14884519  1
  O  O335  1  0.63661560  0.87435268  0.63812484  1
  O  O336  1  0.13067248  0.25426212  0.23748210  1
  O  O337  1  0.15992469  0.29403376  0.73423304  1
  O  O338  1  0.14001553  0.75038860  0.27006988  1
  O  O339  1  0.13585031  0.75383136  0.73092317  1
  O  O340  1  0.68842880  0.26725910  0.21047756  1
  O  O341  1  0.61610562  0.27062221  0.75625096  1
  O  O342  1  0.63398571  0.76136059  0.26820894  1
  O  O343  1  0.61799102  0.75658504  0.74756384  1
  O  O344  1  0.37739673  0.24631794  0.25379398  1
  O  O345  1  0.36929141  0.23758613  0.72260779  1
  O  O346  1  0.37203198  0.72533037  0.27582018  1
  O  O347  1  0.39499393  0.73505864  0.74778282  1
  O  O348  1  0.87744081  0.22758977  0.26163249  1
  O  O349  1  0.85202540  0.24769532  0.79869432  1
  O  O350  1  0.87276065  0.73492730  0.24438695  1
  O  O351  1  0.86349539  0.75596323  0.71805200  1
  O  O352  1  0.37599891  0.48978651  0.48823751  1
  O  O353  1  0.38023364  0.51583819  1.01268207  1
  O  O354  1  0.37622752  0.98923462  0.49481267  1
  O  O355  1  0.35433646  0.96824161  1.03179032  1
  O  O356  1  0.92837941  0.48714358  0.56138904  1
  O  O357  1  0.88387368  0.51277728  0.98688858  1
  O  O358  1  0.87927317  0.97500612  0.48205649  1
  O  O359  1  0.90486348  0.98210527  1.04793939  1
  O  O360  1  0.13189748  0.05215431  0.06673640  1
  O  O361  1  0.13095383  0.00054683  0.49733159  1
  O  O362  1  0.10627042  0.52538106  -0.01302912  1
  O  O363  1  0.10572300  0.49179171  0.50450981  1
  O  O364  1  0.62673609  -0.04865772  -0.00955687  1
  O  O365  1  0.62903278  0.01718240  0.48896270  1
  O  O366  1  0.59936447  0.51353818  0.01189078  1
  O  O367  1  0.62570904  0.50277195  0.49142671  1
  O  O368  1  0.37401611  0.38999217  0.12639860  1
  O  O369  1  0.38479698  0.35700617  0.61703394  1
  O  O370  1  0.43817684  0.79128634  0.16206996  1
  O  O371  1  0.36557528  0.87561495  0.60209769  1
  O  O372  1  0.87895817  0.39843175  0.10210094  1
  O  O373  1  0.85272171  0.37434951  0.66702152  1
  O  O374  1  0.86993797  0.85644709  0.13721866  1
  O  O375  1  0.89133611  0.86446512  0.60057781  1
  O  O376  1  0.10286125  0.11425347  0.39088310  1
  O  O377  1  0.14682639  0.03925462  0.99717745  1
  O  O378  1  0.13735033  0.62972605  0.37649010  1
  O  O379  1  0.10117300  0.63020582  0.86162614  1
  O  O380  1  0.61911171  0.13976886  0.37642285  1
  O  O381  1  0.64052030  0.10984491  0.88147559  1
  O  O382  1  0.64722355  0.63911568  0.37248370  1
  O  O383  1  0.56620060  0.70821994  0.88562920  1
