# generated using pymatgen
data_VZnO4
_symmetry_space_group_name_H-M   'P 1'
_cell_length_a   17.01559788
_cell_length_b   16.83982197
_cell_length_c   16.95923344
_cell_angle_alpha   90.20455339
_cell_angle_beta   90.35469291
_cell_angle_gamma   90.10071142
_symmetry_Int_Tables_number   1
_chemical_formula_structural   VZnO4
_chemical_formula_sum   'V64 Zn64 O256'
_cell_volume   4859.36084394
_cell_formula_units_Z   64
loop_
 _symmetry_equiv_pos_site_id
 _symmetry_equiv_pos_as_xyz
  1  'x, y, z'
loop_
 _atom_site_type_symbol
 _atom_site_label
 _atom_site_symmetry_multiplicity
 _atom_site_fract_x
 _atom_site_fract_y
 _atom_site_fract_z
 _atom_site_occupancy
  V  V0  1  0.36402236  0.63445211  0.72373382  1
  V  V1  1  0.62499132  0.13381129  0.00011904  1
  V  V2  1  0.39056637  0.10295578  0.74502588  1
  V  V3  1  0.11285857  0.06119480  -0.00944851  1
  V  V4  1  0.61434804  0.37797287  0.24586039  1
  V  V5  1  0.87056560  0.24936151  0.64271752  1
  V  V6  1  0.75143097  0.00789786  0.25563967  1
  V  V7  1  0.38022296  0.52246044  0.89850367  1
  V  V8  1  0.62788364  0.00059728  0.11816621  1
  V  V9  1  0.51557556  0.02826709  0.49745317  1
  V  V10  1  0.23633583  0.64131226  0.38502146  1
  V  V11  1  0.11661146  0.59228135  0.50035683  1
  V  V12  1  0.21604322  0.50381220  0.26212779  1
  V  V13  1  0.89803734  0.76229160  0.12789979  1
  V  V14  1  0.88907839  0.25270207  0.12952728  1
  V  V15  1  0.86896005  0.50866066  0.90208547  1
  V  V16  1  -0.00850921  0.89323176  0.86403353  1
  V  V17  1  0.61273750  0.43059980  0.71745992  1
  V  V18  1  0.87080827  0.74960332  0.62176844  1
  V  V19  1  0.73155136  0.26952667  0.50756367  1
  V  V20  1  0.00888815  0.60919225  0.62499245  1
  V  V21  1  0.74054296  0.13720751  0.38166869  1
  V  V22  1  0.50036528  0.63084042  0.12476185  1
  V  V23  1  0.87381550  0.89703436  -0.01466207  1
  V  V24  1  0.00400466  0.74522262  0.75294935  1
  V  V25  1  0.49005472  -0.01101350  -0.01040894  1
  V  V26  1  0.15215327  0.26485358  0.89412366  1
  V  V27  1  0.75172427  0.87573630  0.12006655  1
  V  V28  1  0.50165101  0.75037803  0.25531510  1
  V  V29  1  0.76818915  0.73298443  0.46912789  1
  V  V30  1  0.25934344  0.11471384  0.34193751  1
  V  V31  1  0.52199898  0.74040671  0.71810906  1
  V  V32  1  0.87921113  0.88742640  0.49290427  1
  V  V33  1  0.39897331  0.26977500  0.64072580  1
  V  V34  1  0.29168304  0.75062982  0.05898961  1
  V  V35  1  0.77099840  0.51574138  0.25265778  1
  V  V36  1  0.87870490  0.12921930  0.24982400  1
  V  V37  1  0.49240725  0.87838665  0.38639628  1
  V  V38  1  0.63664470  0.87019212  0.26745173  1
  V  V39  1  -0.03422675  0.36078538  0.87076440  1
  V  V40  1  0.61554366  0.61430504  0.47564055  1
  V  V41  1  0.86691580  0.61161874  0.75345799  1
  V  V42  1  0.75771495  0.25363933  0.00234910  1
  V  V43  1  0.63345489  0.63078188  -0.00559858  1
  V  V44  1  0.62002208  0.25756579  0.87280801  1
  V  V45  1  0.40791901  0.59445188  0.29594986  1
  V  V46  1  0.63495208  0.01451010  0.62938154  1
  V  V47  1  0.13519126  0.89703806  0.74431601  1
  V  V48  1  0.75951262  0.37979778  0.12702052  1
  V  V49  1  0.01739809  0.62330594  0.11582060  1
  V  V50  1  0.74331509  0.86606481  0.64608613  1
  V  V51  1  0.50782360  0.84786624  0.87376325  1
  V  V52  1  0.62618187  0.50615430  0.12279006  1
  V  V53  1  0.12933709  0.49789708  0.09919699  1
  V  V54  1  0.26431865  0.35774021  0.12791923  1
  V  V55  1  0.27403416  0.07493730  0.88249519  1
  V  V56  1  0.22939091  0.37606479  0.64405950  1
  V  V57  1  0.75356898  0.74809141  -0.01272380  1
  V  V58  1  0.89607883  0.37591190  0.50468840  1
  V  V59  1  0.48414136  0.12746235  0.13162113  1
  V  V60  1  0.23942430  0.50485974  0.76490867  1
  V  V61  1  0.50026407  0.38338862  0.89781835  1
  V  V62  1  0.12815387  0.74895837  0.88728496  1
  V  V63  1  0.60586109  0.25901311  0.36481997  1
  Zn  Zn64  1  0.16595949  0.17581248  0.15784901  1
  Zn  Zn65  1  0.24057974  0.17262519  0.67132176  1
  Zn  Zn66  1  0.16371289  0.69140932  0.19200267  1
  Zn  Zn67  1  0.18351418  0.68211742  0.69230667  1
  Zn  Zn68  1  0.68471296  0.19275344  0.18461997  1
  Zn  Zn69  1  0.71987743  0.19240720  0.69910721  1
  Zn  Zn70  1  0.69664651  0.69375307  0.18828114  1
  Zn  Zn71  1  0.67039306  0.62478118  0.69629894  1
  Zn  Zn72  1  0.25189943  0.32930092  0.32246754  1
  Zn  Zn73  1  0.31878890  0.30682039  0.81767304  1
  Zn  Zn74  1  0.32090727  0.80528038  0.24036545  1
  Zn  Zn75  1  0.31650726  0.82314030  0.80588715  1
  Zn  Zn76  1  0.81076014  0.32297075  0.31459545  1
  Zn  Zn77  1  0.78292193  0.34231112  0.80870244  1
  Zn  Zn78  1  0.83135157  0.82519479  0.31124475  1
  Zn  Zn79  1  0.81725340  0.80193309  0.80847773  1
  Zn  Zn80  1  0.17706492  0.41583674  0.45581306  1
  Zn  Zn81  1  0.20981995  0.43503081  0.94258805  1
  Zn  Zn82  1  0.16681903  0.94554202  0.33962315  1
  Zn  Zn83  1  0.20853742  0.89439589  0.93906840  1
  Zn  Zn84  1  0.69284382  0.44442224  0.42724618  1
  Zn  Zn85  1  0.69222687  0.44064694  0.94135753  1
  Zn  Zn86  1  0.70600778  0.94224168  0.45252826  1
  Zn  Zn87  1  0.67886683  0.93627469  0.92541333  1
  Zn  Zn88  1  0.31187641  0.18680289  0.04989126  1
  Zn  Zn89  1  0.36557241  0.12821564  0.52890053  1
  Zn  Zn90  1  0.30523792  0.57125006  0.07098079  1
  Zn  Zn91  1  0.29829840  0.53173212  0.56294563  1
  Zn  Zn92  1  0.81258415  0.07100467  0.06481802  1
  Zn  Zn93  1  0.83216871  0.04742790  0.60158855  1
  Zn  Zn94  1  0.82228720  0.57784951  0.08075011  1
  Zn  Zn95  1  0.82246137  0.55819789  0.56627318  1
  Zn  Zn96  1  0.40377307  0.40200284  0.26043850  1
  Zn  Zn97  1  0.42227321  0.42773820  0.73938564  1
  Zn  Zn98  1  0.45618153  0.96170807  0.20529846  1
  Zn  Zn99  1  0.49140506  0.94408605  0.70271838  1
  Zn  Zn100  1  0.94999889  0.43994147  0.18903460  1
  Zn  Zn101  1  0.94446396  0.42461186  0.69410470  1
  Zn  Zn102  1  0.92620833  0.92604826  0.19858531  1
  Zn  Zn103  1  0.97701732  0.91695277  0.65014999  1
  Zn  Zn104  1  0.07043184  0.15264181  0.31709689  1
  Zn  Zn105  1  0.13375456  0.10950212  0.77516745  1
  Zn  Zn106  1  0.04317176  0.60134087  0.30654852  1
  Zn  Zn107  1  0.05450837  0.55918595  0.84033615  1
  Zn  Zn108  1  0.56577223  0.06193252  0.31246795  1
  Zn  Zn109  1  0.56547817  0.06529968  0.80931779  1
  Zn  Zn110  1  0.58361041  0.56312212  0.31033020  1
  Zn  Zn111  1  0.54169703  0.57657227  0.81896693  1
  Zn  Zn112  1  0.34861931  0.33255810  0.46324858  1
  Zn  Zn113  1  0.43987680  0.18209378  0.92729296  1
  Zn  Zn114  1  0.43914743  0.69399592  0.43665769  1
  Zn  Zn115  1  0.43722891  0.70071719  0.95515012  1
  Zn  Zn116  1  0.90286086  0.22265480  0.42485611  1
  Zn  Zn117  1  0.99422380  0.18819948  0.94294709  1
  Zn  Zn118  1  0.86482880  0.55372464  0.40419397  1
  Zn  Zn119  1  0.93678219  0.69344641  0.93913334  1
  Zn  Zn120  1  0.06054111  0.32490698  0.05044246  1
  Zn  Zn121  1  0.06866395  0.27112562  0.70815663  1
  Zn  Zn122  1  0.07126390  0.86295201  0.05717680  1
  Zn  Zn123  1  0.06209262  0.80693380  0.56384166  1
  Zn  Zn124  1  0.44436483  0.31254192  0.07783299  1
  Zn  Zn125  1  0.55430636  0.32075538  0.55649403  1
  Zn  Zn126  1  0.56327076  0.81173382  0.06324349  1
  Zn  Zn127  1  0.58373389  0.79462203  0.54431206  1
  O  O128  1  0.14969270  0.10475003  0.07476075  1
  O  O129  1  0.13068138  0.17248636  0.67835190  1
  O  O130  1  0.12311594  0.61569579  0.10607191  1
  O  O131  1  0.11750742  0.61870096  0.61713193  1
  O  O132  1  0.62039899  0.11623967  0.12062301  1
  O  O133  1  0.65326554  0.11104740  0.64238331  1
  O  O134  1  0.63055600  0.62024689  0.12497288  1
  O  O135  1  0.67272504  0.60324840  0.58019701  1
  O  O136  1  0.23229322  0.32100326  0.43376345  1
  O  O137  1  0.40022152  0.38258371  0.85865069  1
  O  O138  1  0.39690969  0.88171994  0.37835839  1
  O  O139  1  0.40554630  0.86559860  0.86373937  1
  O  O140  1  0.88725369  0.33630360  0.39835476  1
  O  O141  1  0.86323593  0.39403877  0.87255191  1
  O  O142  1  0.89005847  0.88151211  0.39305069  1
  O  O143  1  0.87582335  0.87442221  0.87874552  1
  O  O144  1  0.26866733  0.00771259  0.33921785  1
  O  O145  1  0.26998591  -0.02618866  0.88330844  1
  O  O146  1  0.22632861  0.48569183  0.36065177  1
  O  O147  1  0.27582377  0.49440996  0.87269800  1
  O  O148  1  0.73703379  0.02191654  0.36536583  1
  O  O149  1  0.75887509  0.00812937  0.87168874  1
  O  O150  1  0.76978702  0.49761045  0.35654800  1
  O  O151  1  0.76728661  0.50608800  0.88795809  1
  O  O152  1  0.23212873  0.51011339  0.13738230  1
  O  O153  1  0.23906517  0.49620051  0.65871186  1
  O  O154  1  0.23891072  0.98215500  0.12698054  1
  O  O155  1  0.24760859  0.92862568  0.53069286  1
  O  O156  1  0.75167219  0.49875661  0.13176952  1
  O  O157  1  0.71632754  0.53151654  0.59771907  1
  O  O158  1  0.74577670  0.99537634  0.13164908  1
  O  O159  1  0.74367750  0.97632139  0.63579175  1
  O  O160  1  0.00605494  0.36465546  0.26110572  1
  O  O161  1  0.00439852  0.36131329  0.76920692  1
  O  O162  1  0.03776399  0.81825864  0.33273379  1
  O  O163  1  -0.01668330  0.85901151  0.75622393  1
  O  O164  1  0.51691128  0.39246719  0.24004064  1
  O  O165  1  0.52977653  0.39616377  0.77046349  1
  O  O166  1  0.52362900  0.87516948  0.26587568  1
  O  O167  1  0.50183509  0.84003098  0.75189683  1
  O  O168  1  0.48968526  0.07482080  0.22763335  1
  O  O169  1  0.48775953  0.12653950  0.74738404  1
  O  O170  1  0.50992647  0.63191029  0.24058528  1
  O  O171  1  0.47434778  0.64639584  0.75077751  1
  O  O172  1  0.97493646  0.11837404  0.26861596  1
  O  O173  1  0.95585194  0.07060658  0.72656853  1
  O  O174  1  1.04495010  0.66957918  0.21567164  1
  O  O175  1  1.00001738  0.63250682  0.74390694  1
  O  O176  1  0.38952473  0.24960775  0.00050092  1
  O  O177  1  0.37596939  0.24383257  0.53236462  1
  O  O178  1  0.39063064  0.76189136  0.03640828  1
  O  O179  1  0.35399628  0.75977834  0.50728769  1
  O  O180  1  0.85936783  0.24191990  0.01809268  1
  O  O181  1  0.85039144  0.25675027  0.52437409  1
  O  O182  1  0.86449687  0.75970268  0.00806017  1
  O  O183  1  0.87467463  0.75559116  0.51567933  1
  O  O184  1  0.06880248  0.20385224  0.48071696  1
  O  O185  1  0.10243541  0.23828276  0.98331422  1
  O  O186  1  0.16452672  0.75824982  0.53963352  1
  O  O187  1  0.10626673  0.77547535  0.98131767  1
  O  O188  1  0.62274226  0.27256863  0.47386135  1
  O  O189  1  0.62982039  0.23848619  1.00339568  1
  O  O190  1  0.66753226  0.72724313  0.49766108  1
  O  O191  1  0.64522653  0.74361796  1.00938314  1
  O  O192  1  0.49751358  0.22682676  0.14192982  1
  O  O193  1  0.49771336  0.25313096  0.63024307  1
  O  O194  1  0.51427586  0.74231253  0.14182257  1
  O  O195  1  0.51121526  0.74518762  0.61954942  1
  O  O196  1  0.98675164  0.25808201  0.11704753  1
  O  O197  1  0.96572213  0.23182987  0.66024862  1
  O  O198  1  0.99185137  0.77762346  0.10304242  1
  O  O199  1  0.99312422  0.74136675  0.63741935  1
  O  O200  1  0.02366049  0.19661335  0.41967165  1
  O  O201  1  -0.05416962  0.25841386  0.87442753  1
  O  O202  1  0.04709935  0.77353834  0.38929357  1
  O  O203  1  -0.00009253  0.75278802  0.86144235  1
  O  O204  1  0.51124501  0.25739377  0.36141928  1
  O  O205  1  0.51345694  0.26544685  0.88029501  1
  O  O206  1  0.50527581  0.76351441  0.36564111  1
  O  O207  1  0.51418764  0.74707709  0.88388029  1
  O  O208  1  0.27752894  0.12409101  0.44356550  1
  O  O209  1  0.28073960  0.10448058  0.97923084  1
  O  O210  1  0.22959115  0.60183922  0.49237096  1
  O  O211  1  0.26113088  0.66312416  1.01573578  1
  O  O212  1  0.73900105  0.14553481  0.48095965  1
  O  O213  1  0.73736094  0.14143080  1.01005113  1
  O  O214  1  0.79707501  0.63071906  0.47059388  1
  O  O215  1  0.74807618  0.64123494  1.01177318  1
  O  O216  1  0.26168184  0.38431697  0.03166920  1
  O  O217  1  0.25920136  0.41510507  0.54367752  1
  O  O218  1  0.24466402  0.83601039  0.03008321  1
  O  O219  1  0.25305514  0.89214002  0.46788813  1
  O  O220  1  0.74624498  0.36621891  0.01764119  1
  O  O221  1  0.75003609  0.36880197  0.49079103  1
  O  O222  1  0.75414708  0.86828731  -0.00046394  1
  O  O223  1  0.76908029  0.85458024  0.50156731  1
  O  O224  1  0.11776489  0.50894219  0.24718597  1
  O  O225  1  0.14311853  0.50821430  0.78557946  1
  O  O226  1  0.06842576  0.97147427  0.27107605  1
  O  O227  1  0.12205820  0.99551275  0.75567440  1
  O  O228  1  0.64513259  0.49661119  0.24118980  1
  O  O229  1  0.60704006  0.53618863  0.73397689  1
  O  O230  1  0.63576654  0.98821368  0.23952726  1
  O  O231  1  0.60191378  0.98968899  0.72985501  1
  O  O232  1  0.36714701  -0.10112314  0.20045192  1
  O  O233  1  0.39561410  0.00228401  0.73135327  1
  O  O234  1  0.35377928  0.51960079  0.25237607  1
  O  O235  1  0.37143721  0.52708342  0.76709195  1
  O  O236  1  0.86156990  0.01172085  0.24407348  1
  O  O237  1  0.89679790  0.07877017  0.76885169  1
  O  O238  1  0.86888122  0.50518825  0.23299097  1
  O  O239  1  0.87471859  0.51204472  0.73855412  1
  O  O240  1  0.09143450  0.35798115  0.36165767  1
  O  O241  1  0.14156033  0.36464558  0.88264320  1
  O  O242  1  0.20627243  0.85029628  0.27628680  1
  O  O243  1  0.10213891  0.87082315  0.85368846  1
  O  O244  1  0.62939827  0.37415703  0.35218928  1
  O  O245  1  0.61489466  0.36796454  0.89549360  1
  O  O246  1  0.64841657  0.87742974  0.36504542  1
  O  O247  1  0.60689363  0.88001770  0.86216428  1
  O  O248  1  0.38697260  0.11782862  0.11501981  1
  O  O249  1  0.34711710  0.13323707  0.64428457  1
  O  O250  1  0.40341310  0.61546982  0.12331048  1
  O  O251  1  0.35971798  0.61360469  0.62614677  1
  O  O252  1  0.87398126  0.13713117  0.13809658  1
  O  O253  1  0.82317084  0.15293244  0.63533637  1
  O  O254  1  0.89670680  0.65527648  0.13697734  1
  O  O255  1  0.88812089  0.63072546  0.63301118  1
  O  O256  1  0.24713187  0.25345486  0.12374895  1
  O  O257  1  0.26760505  0.28074754  0.63448945  1
  O  O258  1  0.26737000  0.73589294  0.16243333  1
  O  O259  1  0.21294474  0.75914779  0.60110034  1
  O  O260  1  0.75294738  0.26196146  0.12059632  1
  O  O261  1  0.70777896  0.26466271  0.60269623  1
  O  O262  1  0.76752017  0.76628019  0.12646054  1
  O  O263  1  0.76896392  0.74654003  0.62790521  1
  O  O264  1  0.22748890  0.21540194  0.33634702  1
  O  O265  1  0.25257810  0.24739775  0.88881492  1
  O  O266  1  0.23678140  0.73724709  0.38853490  1
  O  O267  1  0.22623945  0.78089931  0.87522872  1
  O  O268  1  0.73815448  0.24902899  0.37533763  1
  O  O269  1  0.73644968  0.26690800  0.89923006  1
  O  O270  1  0.77215008  0.75143303  0.37174362  1
  O  O271  1  0.75641461  0.74678858  0.88938926  1
  O  O272  1  0.01462563  0.08758738  -0.01503688  1
  O  O273  1  0.03566391  0.03595657  0.49321494  1
  O  O274  1  -0.00293260  0.63911115  0.01864330  1
  O  O275  1  0.01290341  0.62497398  0.51883330  1
  O  O276  1  0.51232764  0.11191108  0.01449182  1
  O  O277  1  0.53380594  0.12282031  0.48849539  1
  O  O278  1  0.52480453  0.64097869  0.01889136  1
  O  O279  1  0.52084324  0.64324483  0.49473072  1
  O  O280  1  0.46317492  0.38107320  0.49107055  1
  O  O281  1  0.49249830  0.38140502  0.99628176  1
  O  O282  1  0.51391204  0.86259502  0.48510197  1
  O  O283  1  0.51377710  0.87943472  0.98613441  1
  O  O284  1  0.99115132  0.36767513  0.50851990  1
  O  O285  1  1.00240105  0.37285110  0.96515186  1
  O  O286  1  0.97748690  0.87771158  0.53223062  1
  O  O287  1  0.97941372  0.88539526  0.97895360  1
  O  O288  1  0.47422601  0.54009402  0.34772462  1
  O  O289  1  0.48999091  0.49821608  0.88787537  1
  O  O290  1  0.52472920  0.98706228  0.38988361  1
  O  O291  1  0.51168439  1.00481974  0.89091236  1
  O  O292  1  1.03681864  0.39963087  0.32714167  1
  O  O293  1  0.97304939  0.48801561  0.86706953  1
  O  O294  1  1.04391814  0.99158301  0.43361103  1
  O  O295  1  0.99221989  0.98778439  0.85378214  1
  O  O296  1  0.08200926  -0.01362207  0.19425606  1
  O  O297  1  -0.05887862  0.02623312  0.64959738  1
  O  O298  1  0.01486488  0.51494754  0.12621815  1
  O  O299  1  -0.00167242  0.51143880  0.63517134  1
  O  O300  1  0.51924022  -0.01263026  0.10563684  1
  O  O301  1  0.52514002  0.00093858  0.60601815  1
  O  O302  1  0.52509137  0.51706367  0.12804163  1
  O  O303  1  0.45905532  0.46039035  0.51396109  1
  O  O304  1  0.23378814  0.39257508  0.23077457  1
  O  O305  1  0.26126375  0.39112343  0.75226547  1
  O  O306  1  0.17875305  0.86913938  0.19748218  1
  O  O307  1  0.23187205  0.87609377  0.74119223  1
  O  O308  1  0.74941712  0.38626523  0.23957749  1
  O  O309  1  0.70067522  0.39835870  0.75383599  1
  O  O310  1  0.74871144  0.88558557  0.24265496  1
  O  O311  1  0.74388017  0.85907780  0.74479726  1
  O  O312  1  0.23854134  0.11312713  0.23811374  1
  O  O313  1  0.25921960  0.10805359  0.77906219  1
  O  O314  1  0.22505986  0.61890066  0.27750614  1
  O  O315  1  0.25600504  0.61744947  0.75334534  1
  O  O316  1  0.75281110  0.12091726  0.24882862  1
  O  O317  1  0.73001225  0.04907719  0.80817616  1
  O  O318  1  0.75705061  0.61597350  0.24463219  1
  O  O319  1  0.77049231  0.62942092  0.74918475  1
  O  O320  1  0.35737456  0.12967385  0.32175684  1
  O  O321  1  0.37974483  0.11076164  0.85846136  1
  O  O322  1  0.35250791  0.62856227  0.38320311  1
  O  O323  1  0.38405293  0.62347990  0.89005495  1
  O  O324  1  0.85103566  0.14071391  0.36084347  1
  O  O325  1  0.75904804  0.12054564  0.80135345  1
  O  O326  1  0.96156364  0.55125247  0.35602764  1
  O  O327  1  0.88479530  0.61568537  0.86372358  1
  O  O328  1  0.12506128  0.39300573  0.11589149  1
  O  O329  1  0.13235497  0.35819493  0.64904825  1
  O  O330  1  0.02331296  0.95262728  0.14359405  1
  O  O331  1  0.09428262  0.88460720  0.64769377  1
  O  O332  1  0.63901474  0.39562363  0.13352329  1
  O  O333  1  0.59766801  0.40516877  0.62078400  1
  O  O334  1  0.64044909  0.88127087  0.12480643  1
  O  O335  1  0.64657172  0.85845441  0.61855398  1
  O  O336  1  0.10995533  0.22011286  0.24008288  1
  O  O337  1  0.09797237  0.22121372  0.81741722  1
  O  O338  1  0.12638944  0.81665339  0.16920839  1
  O  O339  1  0.11047721  0.75398883  0.75305636  1
  O  O340  1  0.62644819  0.27045452  0.24775911  1
  O  O341  1  0.64016634  0.24195248  0.77772539  1
  O  O342  1  0.62825841  0.76718754  0.24755450  1
  O  O343  1  0.61770075  0.71925716  0.73459354  1
  O  O344  1  0.36191148  0.34647828  0.34713840  1
  O  O345  1  0.37744453  0.24182318  0.74258311  1
  O  O346  1  0.39876008  0.71899185  0.26366594  1
  O  O347  1  0.35131048  0.73641100  0.73397916  1
  O  O348  1  0.87095742  0.24225023  0.23890402  1
  O  O349  1  0.81797661  0.26752855  0.73108030  1
  O  O350  1  0.90237849  0.80934123  0.22531277  1
  O  O351  1  0.88668437  0.73521445  0.74350139  1
  O  O352  1  0.39580916  0.49630781  0.48821659  1
  O  O353  1  0.36793982  0.50773277  0.99638326  1
  O  O354  1  0.41241644  1.02899488  0.50310350  1
  O  O355  1  0.39572955  0.99100829  0.99587954  1
  O  O356  1  0.87360747  0.48004897  0.49906977  1
  O  O357  1  0.87949395  0.51680642  1.00121149  1
  O  O358  1  0.85839790  0.98598858  0.50904785  1
  O  O359  1  0.85957066  0.99534074  0.99242735  1
  O  O360  1  0.12641141  -0.04275396  0.00309601  1
  O  O361  1  0.10677626  -0.06262099  0.43710274  1
  O  O362  1  0.13564238  0.50301603  0.00069069  1
  O  O363  1  0.10529187  0.49417141  0.49446130  1
  O  O364  1  0.63891932  0.01388767  0.00695114  1
  O  O365  1  0.63491994  -0.00183320  0.51909043  1
  O  O366  1  0.64146109  0.51742896  0.01592143  1
  O  O367  1  0.61361126  0.51139425  0.46818121  1
  O  O368  1  0.36683208  0.36319841  0.15121540  1
  O  O369  1  0.39314139  0.37360705  0.64406794  1
  O  O370  1  0.30715008  0.96523125  0.11501390  1
  O  O371  1  0.37052901  0.80889230  0.55974119  1
  O  O372  1  0.87221846  0.36338362  0.13435874  1
  O  O373  1  0.87889330  0.36316394  0.61747882  1
  O  O374  1  0.86682395  0.88206632  0.10020143  1
  O  O375  1  0.86367377  0.85927516  0.63276627  1
  O  O376  1  0.15367952  0.08701024  0.36271874  1
  O  O377  1  0.15583165  0.08951299  0.89734044  1
  O  O378  1  0.12181542  0.62639510  0.39762731  1
  O  O379  1  0.11777586  0.64810273  0.87891112  1
  O  O380  1  0.63188074  0.14797005  0.35176672  1
  O  O381  1  0.61374750  0.13904342  0.89289386  1
  O  O382  1  0.63474944  0.63678180  0.37805043  1
  O  O383  1  0.62181163  0.61939287  0.89768672  1
