# generated using pymatgen
data_VZnO4
_symmetry_space_group_name_H-M   'P 1'
_cell_length_a   17.00705560
_cell_length_b   17.00893430
_cell_length_c   17.03181308
_cell_angle_alpha   90.12305612
_cell_angle_beta   90.21181215
_cell_angle_gamma   90.14156247
_symmetry_Int_Tables_number   1
_chemical_formula_structural   VZnO4
_chemical_formula_sum   'V64 Zn64 O256'
_cell_volume   4926.76461852
_cell_formula_units_Z   64
loop_
 _symmetry_equiv_pos_site_id
 _symmetry_equiv_pos_as_xyz
  1  'x, y, z'
loop_
 _atom_site_type_symbol
 _atom_site_label
 _atom_site_symmetry_multiplicity
 _atom_site_fract_x
 _atom_site_fract_y
 _atom_site_fract_z
 _atom_site_occupancy
  V  V0  1  0.62206011  0.75804080  0.88853101  1
  V  V1  1  0.36863178  0.75287593  0.63144944  1
  V  V2  1  0.25584972  0.00579951  0.24551361  1
  V  V3  1  0.13548427  0.85439043  0.24737594  1
  V  V4  1  0.50855246  0.39916185  0.87021079  1
  V  V5  1  0.53086097  0.74818031  0.28695166  1
  V  V6  1  0.12630643  0.87522386  0.74527208  1
  V  V7  1  0.87941608  0.34523884  0.48047023  1
  V  V8  1  0.74385974  0.26065460  0.01077652  1
  V  V9  1  0.59346992  -0.06109899  0.11728883  1
  V  V10  1  0.00189460  0.87587337  0.38122429  1
  V  V11  1  0.40403731  0.89260875  0.52317880  1
  V  V12  1  0.52180913  0.76829902  0.74362473  1
  V  V13  1  0.37538950  0.37150417  -0.00429504  1
  V  V14  1  0.37155004  0.24695910  0.13141578  1
  V  V15  1  0.24903128  0.01835208  0.74504413  1
  V  V16  1  0.87372362  0.90381822  -0.00068988  1
  V  V17  1  0.88197238  0.22991525  0.63585328  1
  V  V18  1  0.87606452  0.37798834  -0.02232952  1
  V  V19  1  0.90625541  0.50241588  0.37877691  1
  V  V20  1  0.87073141  0.10389210  0.23684631  1
  V  V21  1  0.49653711  0.40775745  0.36741184  1
  V  V22  1  0.07924868  0.50898554  0.61523120  1
  V  V23  1  0.49759934  0.50952782  0.02166208  1
  V  V24  1  0.63648709  0.50460463  0.13098940  1
  V  V25  1  0.25392509  0.49460431  0.29074791  1
  V  V26  1  0.02455286  0.01566134  -0.00518469  1
  V  V27  1  0.75071827  0.11785813  0.87274922  1
  V  V28  1  0.74789665  0.49540411  0.26897261  1
  V  V29  1  0.67090463  0.75019455  0.39667104  1
  V  V30  1  0.75134248  0.37439663  0.62929229  1
  V  V31  1  0.24732735  0.21853447  0.46906379  1
  V  V32  1  0.25303633  0.64546254  0.40256908  1
  V  V33  1  0.10854733  0.65633436  0.50295074  1
  V  V34  1  0.00788485  0.13064201  0.12321365  1
  V  V35  1  0.36185737  0.73123549  0.15672182  1
  V  V36  1  0.52829478  0.15471648  0.11597257  1
  V  V37  1  0.01320358  0.49703641  -0.00132206  1
  V  V38  1  0.78080220  0.73845301  0.00514587  1
  V  V39  1  0.74819412  0.88289429  0.64213435  1
  V  V40  1  0.51105140  0.25743603  0.73726654  1
  V  V41  1  0.86825610  0.62233446  0.75357692  1
  V  V42  1  0.01847400  0.83116257  0.91647995  1
  V  V43  1  0.08847399  0.37583279  0.73449321  1
  V  V44  1  0.11636569  0.36514288  0.26710538  1
  V  V45  1  0.75897759  0.87366587  0.13542207  1
  V  V46  1  0.74079472  0.09121736  0.34977735  1
  V  V47  1  0.26078088  0.63093408  0.87376259  1
  V  V48  1  0.87751436  0.91239329  0.50653709  1
  V  V49  1  0.87292464  0.74608441  0.61369927  1
  V  V50  1  0.63524715  0.02859368  0.62587534  1
  V  V51  1  0.00000075  0.74379908  0.74390750  1
  V  V52  1  0.25135686  0.86393825  0.09542174  1
  V  V53  1  0.63985221  0.61066206  0.50493079  1
  V  V54  1  0.87860847  0.62569097  0.24014211  1
  V  V55  1  0.87946419  0.26718892  0.13273579  1
  V  V56  1  0.36487241  -0.00456144  0.89113482  1
  V  V57  1  0.74698060  0.61369235  0.87636048  1
  V  V58  1  0.34908416  0.25461031  0.64008783  1
  V  V59  1  0.61573076  0.24677520  0.88310533  1
  V  V60  1  0.63904689  0.27317916  0.35462189  1
  V  V61  1  0.51221535  0.61585569  0.62993266  1
  V  V62  1  0.02149201  0.61922937  0.13151230  1
  V  V63  1  0.24013376  0.37982999  0.12302145  1
  Zn  Zn64  1  0.19278315  0.19612427  0.18200890  1
  Zn  Zn65  1  0.18867374  0.21875830  0.75431544  1
  Zn  Zn66  1  0.20848727  0.66868707  0.19434020  1
  Zn  Zn67  1  0.17367540  0.68636789  0.67779833  1
  Zn  Zn68  1  0.69451311  0.20740679  0.19958572  1
  Zn  Zn69  1  0.69277769  0.20518040  0.70231750  1
  Zn  Zn70  1  0.69456780  0.68283007  0.19239306  1
  Zn  Zn71  1  0.69292043  0.69174071  0.68611854  1
  Zn  Zn72  1  0.31944294  0.31500858  0.30859728  1
  Zn  Zn73  1  0.32706979  0.34710934  0.79730650  1
  Zn  Zn74  1  0.31239981  0.81926277  0.32502056  1
  Zn  Zn75  1  0.32882053  0.82660468  0.80512111  1
  Zn  Zn76  1  0.82034673  0.32549255  0.30600657  1
  Zn  Zn77  1  0.81129829  0.29378152  0.80994811  1
  Zn  Zn78  1  0.83637624  0.81336592  0.32049645  1
  Zn  Zn79  1  0.81864231  0.80748195  0.82594232  1
  Zn  Zn80  1  0.15908102  0.42559127  0.44644429  1
  Zn  Zn81  1  0.19447345  0.43562386  0.93600980  1
  Zn  Zn82  1  0.22445434  1.00564907  0.44317417  1
  Zn  Zn83  1  0.18855573  0.93797973  0.92932458  1
  Zn  Zn84  1  0.69360043  0.43247004  0.44950375  1
  Zn  Zn85  1  0.68033034  0.44094380  0.94893030  1
  Zn  Zn86  1  0.68873530  0.93978226  0.45310372  1
  Zn  Zn87  1  0.68493575  0.93349574  0.94791841  1
  Zn  Zn88  1  0.35389420  0.03400164  0.10198130  1
  Zn  Zn89  1  0.32070967  0.06935355  0.57655254  1
  Zn  Zn90  1  0.31914507  0.55731606  0.07093817  1
  Zn  Zn91  1  0.32320755  0.59707319  0.55181937  1
  Zn  Zn92  1  0.70189242  0.06959210  0.06809153  1
  Zn  Zn93  1  0.72333685  0.18109822  0.53584242  1
  Zn  Zn94  1  0.81869676  0.55727290  0.06068701  1
  Zn  Zn95  1  0.82681506  0.55699513  0.56389091  1
  Zn  Zn96  1  0.43101236  0.43671085  0.19161195  1
  Zn  Zn97  1  0.44912903  0.42344991  0.66944224  1
  Zn  Zn98  1  0.42866122  0.90332025  0.19267023  1
  Zn  Zn99  1  0.43181831  0.94042615  0.70206466  1
  Zn  Zn100  1  0.94102844  0.44895240  0.18856361  1
  Zn  Zn101  1  0.90953497  0.43233137  0.67132712  1
  Zn  Zn102  1  0.94744702  0.93479206  0.17150411  1
  Zn  Zn103  1  0.91102793  0.90641527  0.71841297  1
  Zn  Zn104  1  0.04912003  0.02796051  0.26832241  1
  Zn  Zn105  1  0.06625203  0.05580241  0.81782134  1
  Zn  Zn106  1  0.07742268  0.56679104  0.31445120  1
  Zn  Zn107  1  0.00674950  0.51933848  0.78962865  1
  Zn  Zn108  1  0.56385351  0.06519139  0.27435108  1
  Zn  Zn109  1  0.54010174  0.07987389  0.81880653  1
  Zn  Zn110  1  0.57154896  0.58036290  0.31526936  1
  Zn  Zn111  1  0.58322638  0.56835933  0.79453366  1
  Zn  Zn112  1  0.39366691  0.34769251  0.48937229  1
  Zn  Zn113  1  0.43992032  0.17336819  0.94296685  1
  Zn  Zn114  1  0.44288887  0.68992177  0.45611397  1
  Zn  Zn115  1  0.45789089  0.65545427  0.89214158  1
  Zn  Zn116  1  0.87785330  0.12284240  0.46807087  1
  Zn  Zn117  1  0.87340077  0.12823058  0.99646109  1
  Zn  Zn118  1  0.92985762  0.69515911  0.42089583  1
  Zn  Zn119  1  0.95492340  0.65132195  0.92759235  1
  Zn  Zn120  1  0.05320151  0.31184096  0.04978295  1
  Zn  Zn121  1  0.04553949  0.30240873  0.56701898  1
  Zn  Zn122  1  0.04762298  0.81383121  0.10392334  1
  Zn  Zn123  1  0.10247537  0.86639306  0.53338785  1
  Zn  Zn124  1  0.56144642  0.33000397  0.06630759  1
  Zn  Zn125  1  0.57493895  0.33272632  0.54992577  1
  Zn  Zn126  1  0.54987152  0.67908433  0.06884630  1
  Zn  Zn127  1  0.57674876  0.80543855  0.55862092  1
  O  O128  1  0.10457236  0.14831194  0.12134570  1
  O  O129  1  0.10736481  0.10001193  0.58088666  1
  O  O130  1  0.12146636  0.61459493  0.14308257  1
  O  O131  1  0.11102536  0.61791755  0.61048901  1
  O  O132  1  0.63185665  0.14544505  0.12329575  1
  O  O133  1  0.65015990  0.12935707  0.61852207  1
  O  O134  1  0.62351185  0.61811004  0.12747978  1
  O  O135  1  0.62282403  0.62565532  0.62257235  1
  O  O136  1  0.39109277  0.37255755  0.37881324  1
  O  O137  1  0.39358002  0.37991292  0.88770378  1
  O  O138  1  0.36126268  0.88834729  0.41357702  1
  O  O139  1  0.38885764  0.89900202  0.86960597  1
  O  O140  1  0.87844442  0.38999995  0.37954899  1
  O  O141  1  0.87030359  0.36372243  0.88028431  1
  O  O142  1  0.85499991  0.89203901  0.41052012  1
  O  O143  1  0.90118470  0.86122228  0.90343254  1
  O  O144  1  0.27142698  0.01815155  0.34420745  1
  O  O145  1  0.25903774  0.00162700  0.86705375  1
  O  O146  1  0.25423493  0.46716611  0.38761590  1
  O  O147  1  0.24021444  0.52865105  0.87633707  1
  O  O148  1  0.73040843  -0.00663383  0.35774829  1
  O  O149  1  0.72835632  0.02131314  0.89322340  1
  O  O150  1  0.74570621  0.49923734  0.36787613  1
  O  O151  1  0.73971331  0.51530191  0.88349161  1
  O  O152  1  0.24723403  0.47935015  0.11219784  1
  O  O153  1  0.28830361  0.47612073  0.67886396  1
  O  O154  1  0.25464205  0.96492025  0.12065991  1
  O  O155  1  0.24976055  1.00502766  0.64529026  1
  O  O156  1  0.73613785  0.50199168  0.11873312  1
  O  O157  1  0.80252118  0.46816266  0.62938880  1
  O  O158  1  0.74924988  0.97249189  0.12308239  1
  O  O159  1  0.72817493  0.99094831  0.65492851  1
  O  O160  1  0.02359135  0.38499416  0.23410687  1
  O  O161  1  -0.01021503  0.39889704  0.75529427  1
  O  O162  1  0.02990135  0.86751884  0.21048194  1
  O  O163  1  0.00437591  0.85887830  0.76069532  1
  O  O164  1  0.49722577  0.38463946  0.26869097  1
  O  O165  1  0.50016929  0.37814646  0.76800110  1
  O  O166  1  0.50410653  0.83300948  0.23857246  1
  O  O167  1  0.51120879  0.86717634  0.74721788  1
  O  O168  1  0.49069228  0.10474130  0.19452117  1
  O  O169  1  0.50491676  0.15930668  0.74224547  1
  O  O170  1  0.50735591  0.65536413  0.25407143  1
  O  O171  1  0.51231729  0.63821855  0.73797413  1
  O  O172  1  0.98761153  0.11762192  0.23212165  1
  O  O173  1  0.97895917  0.07178145  0.72077832  1
  O  O174  1  0.99487985  0.60009394  0.23888172  1
  O  O175  1  0.98533695  0.63830956  0.75809069  1
  O  O176  1  0.39210594  0.27027496  0.00528572  1
  O  O177  1  0.33443561  0.24756734  0.51529359  1
  O  O178  1  0.40438385  0.76165772  -0.02725883  1
  O  O179  1  0.38719361  0.76932574  0.52617880  1
  O  O180  1  0.86061229  0.26471207  0.00886171  1
  O  O181  1  0.87620502  0.24880531  0.46030121  1
  O  O182  1  0.87772071  0.73605082  0.00061027  1
  O  O183  1  0.87657041  0.73644759  0.51598382  1
  O  O184  1  0.14404166  0.25212057  0.50925504  1
  O  O185  1  0.10924468  0.24364572  0.95846835  1
  O  O186  1  0.12123972  0.75463204  0.51544144  1
  O  O187  1  0.05600401  0.78187886  0.99331289  1
  O  O188  1  0.62984083  0.24863816  0.48256849  1
  O  O189  1  0.63586296  0.26659989  0.99862401  1
  O  O190  1  0.64623401  0.73763973  0.50071603  1
  O  O191  1  0.60813510  0.73894505  0.98596885  1
  O  O192  1  0.49379516  0.25486225  0.12137276  1
  O  O193  1  0.53325953  0.27582274  0.64233293  1
  O  O194  1  0.45112542  0.71654185  0.11173578  1
  O  O195  1  0.51265699  0.74820966  0.63848014  1
  O  O196  1  0.98470776  0.24457204  0.11250743  1
  O  O197  1  0.98213559  0.22371372  0.61764949  1
  O  O198  1  0.99925516  0.71644475  0.13135724  1
  O  O199  1  0.98083013  0.74739528  0.64117545  1
  O  O200  1  0.03756324  0.21361577  0.39115774  1
  O  O201  1  0.06737125  0.20925283  0.90383698  1
  O  O202  1  -0.04799956  0.78853138  0.35352810  1
  O  O203  1  -0.00369100  0.74246294  0.86413308  1
  O  O204  1  0.57545602  0.21708416  0.42729947  1
  O  O205  1  0.50984110  0.25667037  0.87970055  1
  O  O206  1  0.50280178  0.75355711  0.38404343  1
  O  O207  1  0.51612935  0.74314685  0.85651248  1
  O  O208  1  0.24708445  0.11470170  0.49196459  1
  O  O209  1  0.27589335  0.21825737  0.90663816  1
  O  O210  1  0.22401554  0.62962636  0.50612019  1
  O  O211  1  0.29267954  0.62588112  0.97294359  1
  O  O212  1  0.75607758  0.11925048  0.44930607  1
  O  O213  1  0.75309264  0.14706443  0.99997487  1
  O  O214  1  0.73920675  0.61374816  0.51987813  1
  O  O215  1  0.76131666  0.63201233  0.98868391  1
  O  O216  1  0.26992314  0.37730379  -0.00400623  1
  O  O217  1  0.19872975  0.31744077  0.50404983  1
  O  O218  1  0.24254321  0.86233467  -0.00402215  1
  O  O219  1  0.29783843  0.89984408  0.46714710  1
  O  O220  1  0.75861007  0.36678411  -0.00650912  1
  O  O221  1  0.77431867  0.37429620  0.50407914  1
  O  O222  1  0.77006135  0.86083516  0.00073526  1
  O  O223  1  0.76768353  0.90102410  0.53465544  1
  O  O224  1  0.14851642  0.48504313  0.26438607  1
  O  O225  1  0.10043712  0.50346819  0.72002349  1
  O  O226  1  0.14424709  0.97853128  0.24898635  1
  O  O227  1  0.13617996  0.98554126  0.76402068  1
  O  O228  1  0.64137942  0.51678882  0.24404291  1
  O  O229  1  0.64771090  0.49353272  0.74654859  1
  O  O230  1  0.60723894  0.98870226  0.20301812  1
  O  O231  1  0.58533803  1.01070073  0.73261139  1
  O  O232  1  0.36252214  -0.00715883  0.21457080  1
  O  O233  1  0.35461224  0.00197679  0.75798211  1
  O  O234  1  0.34629289  0.48686008  0.25059868  1
  O  O235  1  0.34670287  0.44673813  0.72913798  1
  O  O236  1  0.87298090  0.00707754  0.22141090  1
  O  O237  1  0.91462900  0.03384664  0.72093399  1
  O  O238  1  0.86790252  0.49705532  0.26572776  1
  O  O239  1  0.88756242  0.52395984  0.75084224  1
  O  O240  1  0.11218223  0.36227801  0.36712737  1
  O  O241  1  0.14432448  0.39448492  0.83855528  1
  O  O242  1  0.09992245  0.86000314  0.35714148  1
  O  O243  1  0.10300360  0.87397747  0.87440941  1
  O  O244  1  0.61544204  0.37401476  0.37479346  1
  O  O245  1  0.60928771  0.37173105  0.88804246  1
  O  O246  1  0.65018823  0.84909674  0.39650048  1
  O  O247  1  0.63214657  0.85743123  0.88435687  1
  O  O248  1  0.36580126  0.14954172  0.10736157  1
  O  O249  1  0.36932223  0.15699140  0.63007323  1
  O  O250  1  0.32100482  0.63158048  0.15297107  1
  O  O251  1  0.39865269  0.64511721  0.62267197  1
  O  O252  1  0.88115782  0.14350004  0.12914345  1
  O  O253  1  0.84558303  0.14924939  0.58227674  1
  O  O254  1  0.88855081  0.60218728  0.13755330  1
  O  O255  1  0.86136734  0.63988348  0.64233506  1
  O  O256  1  0.26484416  0.26562902  0.12044364  1
  O  O257  1  0.25433984  0.26808511  0.66743277  1
  O  O258  1  0.25522408  0.75113743  0.12250162  1
  O  O259  1  0.27039870  0.73559844  0.64044631  1
  O  O260  1  0.75913682  0.25781598  0.11569867  1
  O  O261  1  0.74600777  0.25870836  0.61684507  1
  O  O262  1  0.75462838  0.74776408  0.10582648  1
  O  O263  1  0.76951215  0.76727911  0.63828372  1
  O  O264  1  0.26015735  0.23627663  0.37273127  1
  O  O265  1  0.24838991  0.27173217  0.84964733  1
  O  O266  1  0.25742163  0.74253557  0.39078099  1
  O  O267  1  0.28418191  0.73208861  0.86667086  1
  O  O268  1  0.73906492  0.26188280  0.35673804  1
  O  O269  1  0.73416041  0.24547385  0.88828224  1
  O  O270  1  0.76952536  0.74251164  0.38609363  1
  O  O271  1  0.74458334  0.74778228  0.89513104  1
  O  O272  1  -0.01143061  0.12010693  0.01182216  1
  O  O273  1  -0.00042305  0.10574678  0.45795005  1
  O  O274  1  0.00433800  0.60828926  0.02026936  1
  O  O275  1  0.01112277  0.64394055  0.48413640  1
  O  O276  1  0.50050179  0.12039813  0.02595292  1
  O  O277  1  0.49177975  0.02026082  0.36029602  1
  O  O278  1  0.48911946  0.60907007  -0.01013392  1
  O  O279  1  0.51898274  0.63310305  0.52269036  1
  O  O280  1  0.50527932  0.37193893  0.47306544  1
  O  O281  1  0.49477736  0.39590742  0.99288195  1
  O  O282  1  0.50252934  0.87868552  0.51253573  1
  O  O283  1  0.43888752  0.82343838  0.98615045  1
  O  O284  1  0.97750258  0.36497540  0.50048506  1
  O  O285  1  0.98541978  0.38323833  0.99077957  1
  O  O286  1  0.98957492  0.88045431  0.48716028  1
  O  O287  1  0.98997596  0.90928683  1.00883714  1
  O  O288  1  0.50136955  0.50678514  0.37049067  1
  O  O289  1  0.51382344  0.49947866  0.87242147  1
  O  O290  1  0.42581516  1.06651609  0.36893295  1
  O  O291  1  0.44436304  1.06789257  0.87666349  1
  O  O292  1  1.00442158  0.49725389  0.37560479  1
  O  O293  1  0.99361585  0.53145250  0.89969229  1
  O  O294  1  0.98129832  0.96328232  0.33536507  1
  O  O295  1  0.99771083  1.01606813  0.89649459  1
  O  O296  1  0.00477533  0.02076668  0.11226178  1
  O  O297  1  0.08633927  0.03170806  0.57534251  1
  O  O298  1  0.00261902  0.49930344  0.10707593  1
  O  O299  1  -0.01952226  0.50669757  0.60880249  1
  O  O300  1  0.49560004  -0.07197823  0.10066958  1
  O  O301  1  0.52947924  0.01061431  0.66728660  1
  O  O302  1  0.49641366  0.51105792  0.12309717  1
  O  O303  1  0.49891577  0.51661876  0.63462272  1
  O  O304  1  0.23923559  0.37797604  0.23659917  1
  O  O305  1  0.19882844  0.39100135  0.77703068  1
  O  O306  1  0.24280721  0.88041740  0.25956981  1
  O  O307  1  0.22603363  0.86255540  0.76564295  1
  O  O308  1  0.75224453  0.39791693  0.24530099  1
  O  O309  1  0.75891922  0.35804795  0.72966768  1
  O  O310  1  0.77929748  0.85870629  0.23112578  1
  O  O311  1  0.79710497  0.88607698  0.74188525  1
  O  O312  1  0.24017698  0.09961639  0.21365171  1
  O  O313  1  0.23105394  0.11568814  0.75491832  1
  O  O314  1  0.24781609  0.60366794  0.29876066  1
  O  O315  1  0.22733284  0.63110532  0.77536002  1
  O  O316  1  0.76287837  0.12212307  0.23833070  1
  O  O317  1  0.73215249  0.12878103  0.77454275  1
  O  O318  1  0.76964102  0.60619297  0.24083774  1
  O  O319  1  0.75913935  0.63028208  0.76269667  1
  O  O320  1  0.42675429  0.11665989  0.42363801  1
  O  O321  1  0.33298908  0.17316348  0.88113490  1
  O  O322  1  0.35186616  0.61844617  0.43483597  1
  O  O323  1  0.36128643  0.61183565  0.84429707  1
  O  O324  1  0.86220962  0.11038593  0.34204615  1
  O  O325  1  0.85060800  0.12807611  0.88128087  1
  O  O326  1  0.89143139  0.61034496  0.35411419  1
  O  O327  1  0.85904711  0.63289263  0.86366134  1
  O  O328  1  0.14404486  0.35842286  0.10121502  1
  O  O329  1  0.09491202  0.38925871  0.62963283  1
  O  O330  1  0.15056509  0.85634993  0.13350823  1
  O  O331  1  0.11753376  0.87933581  0.64710882  1
  O  O332  1  0.61184709  0.40551165  0.13347861  1
  O  O333  1  0.65450651  0.39141941  0.60512411  1
  O  O334  1  0.65092920  0.85067472  0.12399757  1
  O  O335  1  0.65175354  0.86077965  0.63640299  1
  O  O336  1  0.13217119  0.26743977  0.24416360  1
  O  O337  1  0.09338807  0.27549663  0.73781437  1
  O  O338  1  0.14891434  0.75535482  0.25253437  1
  O  O339  1  0.10686280  0.75458773  0.74258154  1
  O  O340  1  0.61179116  0.25902126  0.25901117  1
  O  O341  1  0.61912711  0.26223854  0.77574873  1
  O  O342  1  0.63953097  0.74028922  0.28276958  1
  O  O343  1  0.62629250  0.75407162  0.76031772  1
  O  O344  1  0.37701704  0.25400948  0.23079631  1
  O  O345  1  0.39702560  0.27304794  0.73714788  1
  O  O346  1  0.36994153  0.74831926  0.25660054  1
  O  O347  1  0.39800056  0.76188651  0.73788372  1
  O  O348  1  0.87235219  0.25494154  0.23332709  1
  O  O349  1  0.86755858  0.22630311  0.73531712  1
  O  O350  1  0.87170528  0.72298007  0.24261768  1
  O  O351  1  0.88325417  0.74471791  0.75007478  1
  O  O352  1  0.31129459  0.48926910  0.60537083  1
  O  O353  1  0.38903393  0.48916630  1.01011300  1
  O  O354  1  0.39797950  0.99280004  0.54245245  1
  O  O355  1  0.35850537  1.00321174  0.99089692  1
  O  O356  1  0.88115705  0.51238246  0.47515127  1
  O  O357  1  0.87202371  0.47961882  0.99564671  1
  O  O358  1  0.89038690  1.00889910  0.51352346  1
  O  O359  1  0.86021412  1.00030177  0.99671277  1
  O  O360  1  0.12301386  0.01140844  -0.00709732  1
  O  O361  1  0.13408919  -0.03496194  0.48933256  1
  O  O362  1  0.11103428  0.48021534  -0.00680267  1
  O  O363  1  0.12540020  0.49470968  0.52397834  1
  O  O364  1  0.62608593  -0.01026582  0.02999542  1
  O  O365  1  0.62645113  -0.00309410  0.53145283  1
  O  O366  1  0.60768358  0.50303272  0.01645799  1
  O  O367  1  0.62401214  0.51191959  0.49403139  1
  O  O368  1  0.36891328  0.36978446  0.11404467  1
  O  O369  1  0.39400659  0.34841370  0.60246746  1
  O  O370  1  0.35657581  0.84134363  0.12290573  1
  O  O371  1  0.37887969  0.86757603  0.62773970  1
  O  O372  1  0.88297930  0.36765207  0.12007456  1
  O  O373  1  0.87308653  0.33636666  0.60659831  1
  O  O374  1  0.87383200  0.87398327  0.10376115  1
  O  O375  1  0.88374393  0.86464983  0.61146396  1
  O  O376  1  0.04369111  0.13977009  0.40116358  1
  O  O377  1  0.11313715  0.15894508  0.85709053  1
  O  O378  1  0.13600716  0.62747997  0.39742748  1
  O  O379  1  0.16675358  0.65653727  0.90850965  1
  O  O380  1  0.64360302  0.12273747  0.33301234  1
  O  O381  1  0.61804040  0.14384270  0.88598880  1
  O  O382  1  0.63158580  0.63745754  0.39794940  1
  O  O383  1  0.64412122  0.63875252  0.86826251  1
