# generated using pymatgen
data_VZnO4
_symmetry_space_group_name_H-M   'P 1'
_cell_length_a   16.93559477
_cell_length_b   16.98883277
_cell_length_c   17.07286791
_cell_angle_alpha   90.01877719
_cell_angle_beta   90.45296566
_cell_angle_gamma   90.21789390
_symmetry_Int_Tables_number   1
_chemical_formula_structural   VZnO4
_chemical_formula_sum   'V64 Zn64 O256'
_cell_volume   4911.94770894
_cell_formula_units_Z   64
loop_
 _symmetry_equiv_pos_site_id
 _symmetry_equiv_pos_as_xyz
  1  'x, y, z'
loop_
 _atom_site_type_symbol
 _atom_site_label
 _atom_site_symmetry_multiplicity
 _atom_site_fract_x
 _atom_site_fract_y
 _atom_site_fract_z
 _atom_site_occupancy
  V  V0  1  0.50295346  0.62018316  0.62719997  1
  V  V1  1  0.50614894  0.01669950  -0.00600892  1
  V  V2  1  0.52306873  0.38044899  0.87752559  1
  V  V3  1  0.24074511  0.12810399  0.87374348  1
  V  V4  1  -0.00539009  0.11742404  0.62982131  1
  V  V5  1  0.77178702  0.63380210  0.87927587  1
  V  V6  1  0.12685439  0.76065784  0.89340261  1
  V  V7  1  0.62758097  0.49277390  0.63870393  1
  V  V8  1  0.49830967  0.87176905  0.87616785  1
  V  V9  1  0.24165086  0.62188266  0.90613388  1
  V  V10  1  0.21164777  0.25696310  0.49651516  1
  V  V11  1  0.88977658  0.48536893  0.90495543  1
  V  V12  1  0.86630859  0.88123809  0.49828673  1
  V  V13  1  0.87112805  0.24616588  0.59644457  1
  V  V14  1  0.25106096  0.74816137  0.50994530  1
  V  V15  1  0.23543827  0.49634872  0.24529232  1
  V  V16  1  0.24308386  0.62972969  0.38392426  1
  V  V17  1  0.15081908  -0.02501774  0.62907224  1
  V  V18  1  0.65096793  0.15322118  0.44058829  1
  V  V19  1  0.50493297  0.36614286  0.36362257  1
  V  V20  1  0.11873640  0.10226900  0.00398300  1
  V  V21  1  0.50459185  0.61802303  0.10429846  1
  V  V22  1  -0.00307325  0.00428811  0.48954248  1
  V  V23  1  0.38610246  0.87865507  0.49634647  1
  V  V24  1  0.49702002  0.73721831  0.75753974  1
  V  V25  1  0.36940299  0.49442881  0.38798416  1
  V  V26  1  0.60494806  0.00423238  0.62217340  1
  V  V27  1  -0.00978587  0.76353487  0.71518167  1
  V  V28  1  0.09525618  0.62526107  0.50029955  1
  V  V29  1  0.75098865  0.36820802  0.60120317  1
  V  V30  1  0.63205013  -0.00531865  0.13137376  1
  V  V31  1  0.11870430  0.86171236  0.32006018  1
  V  V32  1  0.37260708  0.74648911  0.12882937  1
  V  V33  1  -0.01952721  0.24348600  0.76298118  1
  V  V34  1  0.73447852  0.62463850  0.34923746  1
  V  V35  1  0.37245355  0.13750340  0.73804145  1
  V  V36  1  0.49464526  0.83481280  0.36797713  1
  V  V37  1  0.11768455  0.39392136  0.74528997  1
  V  V38  1  0.62288162  0.73716441  0.88490130  1
  V  V39  1  0.36210006  0.35562717  -0.01794513  1
  V  V40  1  0.87601892  -0.01556242  0.87959307  1
  V  V41  1  0.49286619  0.12494150  0.15136100  1
  V  V42  1  0.73421599  0.25322731  0.00138557  1
  V  V43  1  0.88124098  0.62029386  0.23988061  1
  V  V44  1  0.35113153  0.60698897  0.75565687  1
  V  V45  1  0.74654677  0.72921677  0.54660409  1
  V  V46  1  0.11753888  0.25500944  0.87243475  1
  V  V47  1  0.37103128  0.86425375  -0.00258197  1
  V  V48  1  0.75160160  0.01266768  0.74013072  1
  V  V49  1  0.36663188  0.76302316  0.64352032  1
  V  V50  1  0.87929229  0.50207467  0.39074554  1
  V  V51  1  0.26004764  0.90066853  0.13726067  1
  V  V52  1  0.36749172  0.00332772  0.87046379  1
  V  V53  1  0.52322510  0.25301109  0.74240571  1
  V  V54  1  0.87627784  0.77340460  0.13168270  1
  V  V55  1  0.38390103  0.62816806  0.25696329  1
  V  V56  1  0.88640316  0.21121381  0.11153873  1
  V  V57  1  0.74070788  0.11959760  0.88737227  1
  V  V58  1  0.76491988  0.48857531  0.76165806  1
  V  V59  1  0.63256571  0.87097959  0.74894872  1
  V  V60  1  0.63370138  0.86585890  0.26002796  1
  V  V61  1  0.50642880  0.48650621  0.50633912  1
  V  V62  1  0.01359516  0.64110754  0.11611861  1
  V  V63  1  0.75428880  0.76786842  0.00482192  1
  Zn  Zn64  1  0.06603329  0.14555291  0.19696632  1
  Zn  Zn65  1  0.17735357  0.17222583  0.70097073  1
  Zn  Zn66  1  0.19806569  0.70480234  0.20919365  1
  Zn  Zn67  1  0.17484654  0.67252640  0.67573958  1
  Zn  Zn68  1  0.65412777  0.20842869  0.13625905  1
  Zn  Zn69  1  0.68994906  0.18094236  0.66989385  1
  Zn  Zn70  1  0.68244683  0.68999976  0.17961487  1
  Zn  Zn71  1  0.68258952  0.67136898  0.70692695  1
  Zn  Zn72  1  0.29446382  0.32326967  0.32809490  1
  Zn  Zn73  1  0.30222868  0.31687504  0.80367280  1
  Zn  Zn74  1  0.30481212  0.81341580  0.31146741  1
  Zn  Zn75  1  0.27461887  0.81807239  0.80505478  1
  Zn  Zn76  1  0.84119678  0.33731237  0.27817970  1
  Zn  Zn77  1  0.81270236  0.31185088  0.83842005  1
  Zn  Zn78  1  0.80877495  0.80234246  0.32592271  1
  Zn  Zn79  1  0.82197793  0.80644499  0.79806447  1
  Zn  Zn80  1  0.16408263  0.45160392  0.43174242  1
  Zn  Zn81  1  0.18799766  0.42478660  0.93776351  1
  Zn  Zn82  1  0.19445999  0.94263171  0.47284772  1
  Zn  Zn83  1  0.18651047  0.92693428  0.93373986  1
  Zn  Zn84  1  0.68546649  0.44834417  0.42864369  1
  Zn  Zn85  1  0.70632385  0.43841605  0.94629425  1
  Zn  Zn86  1  0.66388012  0.88746516  0.46272988  1
  Zn  Zn87  1  0.68230143  0.94087129  0.93192426  1
  Zn  Zn88  1  0.31933419  0.07656993  0.05594057  1
  Zn  Zn89  1  0.31985492  0.07374701  0.53804356  1
  Zn  Zn90  1  0.31175139  0.55482075  0.07347612  1
  Zn  Zn91  1  0.32284909  0.56966998  0.56456127  1
  Zn  Zn92  1  0.80997297  0.04736679  0.05882902  1
  Zn  Zn93  1  0.80579533  0.05651790  0.55113079  1
  Zn  Zn94  1  0.82268150  0.58979653  0.05351809  1
  Zn  Zn95  1  0.81587162  0.54730770  0.56430834  1
  Zn  Zn96  1  0.43003859  0.44479130  0.18992815  1
  Zn  Zn97  1  0.44553042  0.43543789  0.70531709  1
  Zn  Zn98  1  0.47198221  0.91692098  0.17048098  1
  Zn  Zn99  1  0.42159592  0.93047924  0.69246586  1
  Zn  Zn100  1  0.93538290  0.46940893  0.11499241  1
  Zn  Zn101  1  0.93066947  0.41781091  0.70170835  1
  Zn  Zn102  1  0.95104197  0.88692718  0.22769071  1
  Zn  Zn103  1  0.92284513  0.92744731  0.68266957  1
  Zn  Zn104  1  0.14068259  0.05554961  0.34345735  1
  Zn  Zn105  1  0.05615097  0.04659347  0.79779718  1
  Zn  Zn106  1  0.05408181  0.57377994  0.31208890  1
  Zn  Zn107  1  0.06733681  0.57594441  0.83466328  1
  Zn  Zn108  1  0.59682256  0.07879117  0.30505723  1
  Zn  Zn109  1  0.55889345  0.06571431  0.80134436  1
  Zn  Zn110  1  0.55393384  0.54893657  0.31305535  1
  Zn  Zn111  1  0.56562582  0.55402298  0.81887940  1
  Zn  Zn112  1  0.47511172  0.16466479  0.42732655  1
  Zn  Zn113  1  0.44001201  0.19521799  0.91410758  1
  Zn  Zn114  1  0.43259676  0.68114156  0.44966775  1
  Zn  Zn115  1  0.42473056  0.67826149  0.93290026  1
  Zn  Zn116  1  0.99560210  0.19934380  0.43937053  1
  Zn  Zn117  1  0.93503442  0.15335984  0.92904485  1
  Zn  Zn118  1  0.91450049  0.71525903  0.43278442  1
  Zn  Zn119  1  0.94590300  0.71943781  0.94248595  1
  Zn  Zn120  1  0.06341364  0.26220844  0.06458068  1
  Zn  Zn121  1  0.06722941  0.30054177  0.59507436  1
  Zn  Zn122  1  0.09756869  0.79147108  0.09771576  1
  Zn  Zn123  1  0.06679280  0.82400189  0.54312812  1
  Zn  Zn124  1  0.51587126  0.28002087  0.03855301  1
  Zn  Zn125  1  0.56507799  0.30271937  0.56068066  1
  Zn  Zn126  1  0.56035844  0.80429617  0.06479113  1
  Zn  Zn127  1  0.55602616  0.80758944  0.56697164  1
  O  O128  1  0.12931858  0.13019010  0.10104210  1
  O  O129  1  0.09591642  0.12963992  0.63229473  1
  O  O130  1  0.10924667  0.68212148  0.14213628  1
  O  O131  1  0.10642995  0.62404641  0.59993273  1
  O  O132  1  0.61508437  0.09962368  0.13804875  1
  O  O133  1  0.61903534  0.10506716  0.62151750  1
  O  O134  1  0.60317250  0.63568380  0.11969988  1
  O  O135  1  0.61266399  0.60857086  0.63665783  1
  O  O136  1  0.37673742  0.39124933  0.37760418  1
  O  O137  1  0.37188814  0.36751436  0.88067700  1
  O  O138  1  0.38598145  0.85461421  0.38671226  1
  O  O139  1  0.37719848  0.88529132  0.88368967  1
  O  O140  1  0.85242046  0.40792626  0.35788274  1
  O  O141  1  0.88603130  0.38705138  0.89210017  1
  O  O142  1  0.84728182  1.00665166  0.31526806  1
  O  O143  1  0.86499518  0.88386534  0.86744685  1
  O  O144  1  0.22228270  0.03592462  0.41811527  1
  O  O145  1  0.26568712  0.00272545  0.87453844  1
  O  O146  1  0.25859075  0.50993908  0.38612283  1
  O  O147  1  0.22222995  0.52162932  0.89458154  1
  O  O148  1  0.78232586  0.03767765  0.31941055  1
  O  O149  1  0.74887671  0.00278792  0.86245342  1
  O  O150  1  0.75951199  0.52779451  0.39261027  1
  O  O151  1  0.77304574  0.51199348  0.88338756  1
  O  O152  1  0.23883083  0.51025853  0.14677865  1
  O  O153  1  0.28761277  0.46045550  0.62084861  1
  O  O154  1  0.26808261  0.99890756  0.11952055  1
  O  O155  1  0.24292539  1.00619580  0.59610239  1
  O  O156  1  0.73205864  0.51552285  0.09960229  1
  O  O157  1  0.75251060  0.48317912  0.64351908  1
  O  O158  1  0.72922607  0.98852179  0.11630962  1
  O  O159  1  0.73740626  1.00236122  0.63857383  1
  O  O160  1  0.00785688  0.39994362  0.21947461  1
  O  O161  1  0.00543577  0.35150543  0.75515846  1
  O  O162  1  0.02582521  0.83509608  0.28541114  1
  O  O163  1  -0.00076657  0.86280301  0.73539741  1
  O  O164  1  0.48583456  0.38117523  0.26517572  1
  O  O165  1  0.50789582  0.36266954  0.75949376  1
  O  O166  1  0.48914811  0.87207430  0.27115424  1
  O  O167  1  0.49650505  0.85816939  0.76633819  1
  O  O168  1  0.49641099  0.11220455  0.24995399  1
  O  O169  1  0.48482630  0.14397945  0.76009835  1
  O  O170  1  0.48354199  0.61845582  0.25562903  1
  O  O171  1  0.50482621  0.62708680  0.74793996  1
  O  O172  1  1.02361767  0.02870826  0.17963066  1
  O  O173  1  0.98901749  0.13621605  0.74095446  1
  O  O174  1  0.98531924  0.63795649  0.24253273  1
  O  O175  1  1.03918521  0.66293793  0.75375584  1
  O  O176  1  0.39641128  0.25705813  0.00242148  1
  O  O177  1  0.31309006  0.27167058  0.51121053  1
  O  O178  1  0.37348371  0.76193342  0.00013052  1
  O  O179  1  0.36892181  0.74246604  0.52483005  1
  O  O180  1  0.89174921  0.22556541  0.01275944  1
  O  O181  1  0.89465762  0.25535860  0.50308292  1
  O  O182  1  0.86286416  0.76254831  0.01213452  1
  O  O183  1  0.84173523  0.76149416  0.51804145  1
  O  O184  1  0.10356413  0.25020825  0.49168705  1
  O  O185  1  0.11809628  0.22672886  0.97373925  1
  O  O186  1  0.14812092  0.73821542  0.50603162  1
  O  O187  1  0.13428073  0.78534975  0.98933397  1
  O  O188  1  0.62149022  0.23807589  0.48918989  1
  O  O189  1  0.63443854  0.25280405  1.01763907  1
  O  O190  1  0.65705786  0.78032977  0.51579087  1
  O  O191  1  0.63487206  0.75724757  0.99058318  1
  O  O192  1  0.53098904  0.22315155  0.13441564  1
  O  O193  1  0.49950525  0.26211653  0.64331864  1
  O  O194  1  0.48202941  0.73508655  0.11626397  1
  O  O195  1  0.49322619  0.73767080  0.64039934  1
  O  O196  1  0.99326603  0.21795812  0.13966643  1
  O  O197  1  0.97822797  0.24323518  0.63723655  1
  O  O198  1  0.98068782  0.77071359  0.12325719  1
  O  O199  1  0.99999152  0.75905091  0.61569693  1
  O  O200  1  0.00291376  0.29060632  0.36529689  1
  O  O201  1  0.00508050  0.23035768  0.86645150  1
  O  O202  1  -0.10362580  0.82225276  0.39684689  1
  O  O203  1  0.02482056  0.76710265  0.87776961  1
  O  O204  1  0.48886882  0.26893245  0.38111896  1
  O  O205  1  0.50804378  0.26543694  0.85897059  1
  O  O206  1  0.49821563  0.73601164  0.37222235  1
  O  O207  1  0.50318941  0.74921701  0.87461501  1
  O  O208  1  0.22060712  0.15259856  0.49536694  1
  O  O209  1  0.24531348  0.12162695  0.97875432  1
  O  O210  1  0.24975427  0.62494612  0.49601725  1
  O  O211  1  0.26782852  0.63077893  1.00175761  1
  O  O212  1  0.72933359  0.10815415  0.48631881  1
  O  O213  1  0.74118521  0.11802937  0.98988767  1
  O  O214  1  0.74607357  0.62854963  0.53201873  1
  O  O215  1  0.75024620  0.64238396  0.98322703  1
  O  O216  1  0.26088634  0.35223609  -0.01386131  1
  O  O217  1  0.19999680  0.36113415  0.49621336  1
  O  O218  1  0.27219790  0.88608585  0.00985599  1
  O  O219  1  0.27233814  0.85384973  0.49852814  1
  O  O220  1  0.75870805  0.34976278  -0.00563397  1
  O  O221  1  0.75260078  0.38678194  0.50564950  1
  O  O222  1  0.74426308  0.86534922  -0.00776998  1
  O  O223  1  0.77529367  0.90191858  0.45650870  1
  O  O224  1  0.13892118  0.51215849  0.27065678  1
  O  O225  1  0.10219237  0.48963413  0.76856096  1
  O  O226  1  0.14173637  0.95412644  0.28796633  1
  O  O227  1  0.12830126  1.00310476  0.72392034  1
  O  O228  1  0.63272012  0.48841051  0.23003596  1
  O  O229  1  0.63705963  0.49667804  0.74189281  1
  O  O230  1  0.62193775  0.98564241  0.24079010  1
  O  O231  1  0.63055342  0.98521379  0.74708093  1
  O  O232  1  0.34699379  0.01901074  0.31500037  1
  O  O233  1  0.38681094  0.00967149  0.76939716  1
  O  O234  1  0.35998923  0.51232050  0.26423846  1
  O  O235  1  0.37700194  0.51140696  0.75051017  1
  O  O236  1  0.96311128  0.00681421  0.21865185  1
  O  O237  1  0.85086850  -0.01175855  0.75185865  1
  O  O238  1  0.87398838  0.52379491  0.21124861  1
  O  O239  1  0.86703746  0.49305949  0.76506597  1
  O  O240  1  0.09965694  0.38205620  0.35962768  1
  O  O241  1  0.11524876  0.35632071  0.87467837  1
  O  O242  1  0.12231316  0.86612270  0.42219837  1
  O  O243  1  0.17043275  0.85335022  0.85003647  1
  O  O244  1  0.60471371  0.38843690  0.37450048  1
  O  O245  1  0.62318959  0.38921885  0.88765030  1
  O  O246  1  0.60259242  0.87145607  0.36561947  1
  O  O247  1  0.61385629  0.86561564  0.86670190  1
  O  O248  1  0.39636823  0.12985923  0.12242210  1
  O  O249  1  0.36576101  0.11444343  0.64354521  1
  O  O250  1  0.37682899  0.62829700  0.14186503  1
  O  O251  1  0.38309840  0.62795215  0.64358627  1
  O  O252  1  0.86956034  0.11442677  0.12968985  1
  O  O253  1  0.86809787  0.14289830  0.61406530  1
  O  O254  1  0.89061054  0.64734183  0.12562070  1
  O  O255  1  0.92356287  0.57674867  0.63291846  1
  O  O256  1  0.23344294  0.26177351  0.14847264  1
  O  O257  1  0.20300419  0.25163589  0.60184938  1
  O  O258  1  0.27011934  0.76237236  0.13046056  1
  O  O259  1  0.25832542  0.73386587  0.61808349  1
  O  O260  1  0.76610040  0.22927407  0.10189796  1
  O  O261  1  0.75656477  0.25867936  0.61198342  1
  O  O262  1  0.75437682  0.75139539  0.10833604  1
  O  O263  1  0.74627623  0.74077868  0.64600373  1
  O  O264  1  0.22223531  0.25595013  0.39333244  1
  O  O265  1  0.23006534  0.23479681  0.86475041  1
  O  O266  1  0.27345050  0.73037304  0.39957264  1
  O  O267  1  0.23970985  0.72578494  0.86422154  1
  O  O268  1  0.86134071  0.18572806  0.34526136  1
  O  O269  1  0.75529620  0.23121651  0.89419386  1
  O  O270  1  0.75132165  0.71771502  0.38613475  1
  O  O271  1  0.74509746  0.74279522  0.87648629  1
  O  O272  1  0.01906415  0.10582980  -0.01110351  1
  O  O273  1  -0.00848410  0.11598702  0.51695541  1
  O  O274  1  0.00457386  0.65472085  0.01794141  1
  O  O275  1  0.00347294  0.65870725  0.47191344  1
  O  O276  1  0.50590719  0.11465728  -0.01675960  1
  O  O277  1  0.56258051  0.09336358  0.42177203  1
  O  O278  1  0.48456734  0.61603666  0.00547130  1
  O  O279  1  0.49158583  0.61080816  0.52180799  1
  O  O280  1  0.49801086  0.38528868  0.50070413  1
  O  O281  1  0.49361296  0.37244253  0.97892074  1
  O  O282  1  0.49642950  0.85770513  0.47784339  1
  O  O283  1  0.49122511  0.87412184  0.98715741  1
  O  O284  1  1.03728469  0.35484813  0.39856774  1
  O  O285  1  1.04562202  0.38187202  1.03844494  1
  O  O286  1  0.98305425  0.89486787  0.50373255  1
  O  O287  1  1.00160066  0.89748700  1.00120291  1
  O  O288  1  0.48936399  0.49399706  0.39087633  1
  O  O289  1  0.49599550  0.47853443  0.86025308  1
  O  O290  1  0.40783053  1.03401081  0.35149973  1
  O  O291  1  0.49976100  0.99060615  0.88177378  1
  O  O292  1  0.97549386  0.50845915  0.36076874  1
  O  O293  1  0.98040586  0.51882982  0.88089808  1
  O  O294  1  1.02359771  1.01786567  0.39759044  1
  O  O295  1  0.97459590  1.00428642  0.85998704  1
  O  O296  1  -0.00539782  -0.05913590  0.05787503  1
  O  O297  1  -0.02244363  0.01795076  0.63451001  1
  O  O298  1  0.02232878  0.54089126  0.12278417  1
  O  O299  1  -0.02771755  0.52024880  0.63895551  1
  O  O300  1  0.49900613  0.01370174  0.10872437  1
  O  O301  1  0.50685403  -0.00522640  0.64517164  1
  O  O302  1  0.49230623  0.52192419  0.13448887  1
  O  O303  1  0.50619223  0.49649227  0.62270208  1
  O  O304  1  0.24695498  0.39593025  0.25990249  1
  O  O305  1  0.21776069  0.37534031  0.75755695  1
  O  O306  1  0.29821048  0.89423473  0.23038377  1
  O  O307  1  0.32718140  0.84260284  0.70943857  1
  O  O308  1  0.72061473  0.34318096  0.23054070  1
  O  O309  1  0.75032173  0.39024378  0.77767550  1
  O  O310  1  0.73294487  0.87188539  0.27326142  1
  O  O311  1  0.73268324  0.87118185  0.75380710  1
  O  O312  1  0.29810408  0.16766586  0.27035181  1
  O  O313  1  0.26070076  0.12216992  0.76223624  1
  O  O314  1  0.25680338  0.62187054  0.27198689  1
  O  O315  1  0.25226433  0.61027567  0.73636375  1
  O  O316  1  0.85579177  0.22310871  0.27310214  1
  O  O317  1  0.74670475  0.11397480  0.75051341  1
  O  O318  1  0.75452095  0.62716415  0.24533810  1
  O  O319  1  0.74767334  0.60536116  0.77477764  1
  O  O320  1  0.38000691  0.14434682  0.47402115  1
  O  O321  1  0.36413090  0.11681626  0.87193421  1
  O  O322  1  0.37219580  0.61335471  0.37198696  1
  O  O323  1  0.35146501  0.62106295  0.86383146  1
  O  O324  1  0.92709611  0.14497144  0.35390791  1
  O  O325  1  0.85098303  0.10481559  0.87061641  1
  O  O326  1  0.86729740  0.61581092  0.34967838  1
  O  O327  1  0.87112270  0.64077509  0.88232501  1
  O  O328  1  0.18396881  0.30693556  0.11935313  1
  O  O329  1  0.10147828  0.39308430  0.64328289  1
  O  O330  1  0.16014488  0.87820860  0.13580434  1
  O  O331  1  0.14420933  0.87455525  0.61925584  1
  O  O332  1  0.61125291  0.43934683  0.18014839  1
  O  O333  1  0.64421576  0.37920488  0.61988939  1
  O  O334  1  0.59434700  0.88612952  0.14226816  1
  O  O335  1  0.60847863  0.87114750  0.65119697  1
  O  O336  1  0.07209034  0.36944288  0.20383792  1
  O  O337  1  0.10974748  0.24625153  0.76164819  1
  O  O338  1  0.18841654  0.79037615  0.28609653  1
  O  O339  1  0.10172166  0.72410894  0.75255261  1
  O  O340  1  0.66718352  0.29025444  0.23464929  1
  O  O341  1  0.62210586  0.24128179  0.74088993  1
  O  O342  1  0.62226341  0.76894216  0.23823489  1
  O  O343  1  0.61468586  0.75439209  0.76414503  1
  O  O344  1  0.34508405  0.22395965  0.28285465  1
  O  O345  1  0.36533790  0.23965890  0.74651317  1
  O  O346  1  0.37077381  0.73274424  0.24734578  1
  O  O347  1  0.38803514  0.72155589  0.75418580  1
  O  O348  1  0.87872749  0.31861694  0.16777238  1
  O  O349  1  0.88047396  0.25522053  0.76473526  1
  O  O350  1  0.85931667  0.74173217  0.23281531  1
  O  O351  1  0.89241123  0.74241273  0.74091264  1
  O  O352  1  0.38468606  0.50315287  0.49230173  1
  O  O353  1  0.37324355  0.46073865  1.03310319  1
  O  O354  1  0.37716638  0.97551692  0.49793597  1
  O  O355  1  0.39214265  0.99813931  0.98612297  1
  O  O356  1  0.88562910  0.50070700  0.49089052  1
  O  O357  1  0.88220426  0.50154485  1.00854420  1
  O  O358  1  0.88571018  0.99822222  0.49073124  1
  O  O359  1  0.86643549  0.99253757  0.98051243  1
  O  O360  1  0.13678084  0.00303916  -0.00442098  1
  O  O361  1  0.09709633  -0.00406010  0.53674771  1
  O  O362  1  0.10890491  0.42558735  0.03640402  1
  O  O363  1  0.09885366  0.52594192  0.47993641  1
  O  O364  1  0.60826957  -0.01338169  0.01089098  1
  O  O365  1  0.61863815  -0.03152975  0.52951474  1
  O  O366  1  0.67716717  0.49312341  0.05223096  1
  O  O367  1  0.61042558  0.49779937  0.51418998  1
  O  O368  1  0.37246705  0.40070997  0.09485007  1
  O  O369  1  0.34091707  0.40879701  0.63074462  1
  O  O370  1  0.38577049  0.86853271  0.10761564  1
  O  O371  1  0.41046155  0.86110494  0.59985501  1
  O  O372  1  0.87553504  0.37268583  0.10781342  1
  O  O373  1  0.85872021  0.36035313  0.62993140  1
  O  O374  1  0.86899894  0.87285579  0.15058570  1
  O  O375  1  0.85602880  0.88600680  0.59814132  1
  O  O376  1  0.09887707  0.14678719  0.30072306  1
  O  O377  1  0.13677517  0.11103910  0.86847333  1
  O  O378  1  0.14086559  0.63538391  0.38154798  1
  O  O379  1  0.13137633  0.64514168  0.90072764  1
  O  O380  1  0.67427171  0.16260046  0.34141106  1
  O  O381  1  0.64105451  0.11414318  0.86555289  1
  O  O382  1  0.63455331  0.61310087  0.35300948  1
  O  O383  1  0.62729558  0.63470107  0.87414866  1
