# generated using pymatgen
data_VZnO4
_symmetry_space_group_name_H-M   'P 1'
_cell_length_a   16.95308554
_cell_length_b   16.97612619
_cell_length_c   16.90578377
_cell_angle_alpha   89.83097137
_cell_angle_beta   89.94505969
_cell_angle_gamma   90.25793137
_symmetry_Int_Tables_number   1
_chemical_formula_structural   VZnO4
_chemical_formula_sum   'V64 Zn64 O256'
_cell_volume   4865.37324296
_cell_formula_units_Z   64
loop_
 _symmetry_equiv_pos_site_id
 _symmetry_equiv_pos_as_xyz
  1  'x, y, z'
loop_
 _atom_site_type_symbol
 _atom_site_label
 _atom_site_symmetry_multiplicity
 _atom_site_fract_x
 _atom_site_fract_y
 _atom_site_fract_z
 _atom_site_occupancy
  V  V0  1  0.48075510  0.63937416  0.10346401  1
  V  V1  1  0.25856563  0.36938458  0.61255812  1
  V  V2  1  0.25525899  -0.00804151  0.74550797  1
  V  V3  1  0.00705563  0.48942279  -0.00124416  1
  V  V4  1  0.23420680  0.22440352  0.49530887  1
  V  V5  1  0.25784042  0.00822391  0.25065868  1
  V  V6  1  0.26916993  0.49087317  0.74675599  1
  V  V7  1  0.25212716  0.63216430  0.86936373  1
  V  V8  1  0.64322052  0.27250479  0.38309756  1
  V  V9  1  0.88391989  0.24975079  0.61964120  1
  V  V10  1  0.37864794  0.49788695  0.37861289  1
  V  V11  1  0.12366230  0.37726492  0.74449500  1
  V  V12  1  0.50626610  0.46868724  -0.00253133  1
  V  V13  1  0.73525984  0.00136035  0.72182319  1
  V  V14  1  0.12504469  0.23866621  0.86731688  1
  V  V15  1  0.75462319  0.37142033  0.63162138  1
  V  V16  1  0.25460888  0.86453666  0.60099128  1
  V  V17  1  0.62378010  0.23375345  0.89193277  1
  V  V18  1  0.11712740  0.01387691  0.62416678  1
  V  V19  1  0.50207106  -0.00038249  0.50955097  1
  V  V20  1  0.50157639  0.90372032  0.86552443  1
  V  V21  1  0.87019889  0.86961788  0.51522131  1
  V  V22  1  -0.00259530  -0.01683761  -0.00240202  1
  V  V23  1  0.87862763  0.50982909  0.36004917  1
  V  V24  1  -0.00647371  0.88505603  0.37282819  1
  V  V25  1  0.12317101  0.62535436  0.50867727  1
  V  V26  1  0.37766720  0.01734935  0.37894258  1
  V  V27  1  0.49695066  0.00959041  0.02776361  1
  V  V28  1  0.01173674  0.36950171  0.35846065  1
  V  V29  1  0.13471449  0.87724513  0.24634518  1
  V  V30  1  0.75105551  0.90461413  0.13535531  1
  V  V31  1  0.37415245  0.86499264  0.00749521  1
  V  V32  1  0.64165614  0.62034895  0.51072901  1
  V  V33  1  0.64452209  0.39028220  0.22835097  1
  V  V34  1  0.48828798  0.58295018  0.61317733  1
  V  V35  1  -0.00330552  0.36878674  0.87769576  1
  V  V36  1  0.11033887  0.86280926  0.75187209  1
  V  V37  1  0.77280431  0.24147845  0.00044314  1
  V  V38  1  0.38001690  0.64161254  0.73877613  1
  V  V39  1  0.61622893  0.90404950  0.25502100  1
  V  V40  1  -0.00568220  0.01695469  0.50353655  1
  V  V41  1  0.37909085  0.12941917  0.73293220  1
  V  V42  1  0.13621234  0.63794580  -0.00491326  1
  V  V43  1  0.14218987  0.48061348  0.12580463  1
  V  V44  1  0.63391123  0.73491351  0.36398171  1
  V  V45  1  0.10895996  0.75363309  0.38186674  1
  V  V46  1  0.62673326  0.13338108  0.51025510  1
  V  V47  1  0.25451978  0.48449598  0.25496047  1
  V  V48  1  -0.00513229  0.49195780  0.51013483  1
  V  V49  1  -0.00448979  0.63187301  0.12317460  1
  V  V50  1  0.86036822  -0.01055612  0.87619605  1
  V  V51  1  0.11758101  0.11250387  0.00646327  1
  V  V52  1  0.78331702  0.38494290  0.10916120  1
  V  V53  1  0.75500221  0.10759316  0.37554171  1
  V  V54  1  0.50391353  0.25059687  0.74821448  1
  V  V55  1  0.49651524  0.28235158  0.25708873  1
  V  V56  1  0.78171767  0.50125807  0.77200111  1
  V  V57  1  0.86427669  0.14419444  0.23802545  1
  V  V58  1  -0.00852721  0.63771101  0.63587397  1
  V  V59  1  0.74653405  0.73144357  -0.01199405  1
  V  V60  1  0.25822720  0.12072699  0.87650789  1
  V  V61  1  0.88173123  0.12995904  0.75671647  1
  V  V62  1  0.62088686  0.38275523  0.76379751  1
  V  V63  1  0.25363506  0.64333270  0.37154512  1
  Zn  Zn64  1  0.18938299  0.16399324  0.19098098  1
  Zn  Zn65  1  0.19156398  0.19119680  0.68420725  1
  Zn  Zn66  1  0.14563152  0.67047774  0.20931924  1
  Zn  Zn67  1  0.19400557  0.69130154  0.68520457  1
  Zn  Zn68  1  0.71334604  0.22325301  0.20273672  1
  Zn  Zn69  1  0.69560678  0.18650866  0.70095685  1
  Zn  Zn70  1  0.63825066  0.70442000  0.15445218  1
  Zn  Zn71  1  0.65994105  0.63961099  0.70647022  1
  Zn  Zn72  1  0.31978443  0.30822205  0.34069392  1
  Zn  Zn73  1  0.30593039  0.29842438  0.80352500  1
  Zn  Zn74  1  0.28951764  0.84711968  0.37655909  1
  Zn  Zn75  1  0.32427873  0.81452946  0.81290320  1
  Zn  Zn76  1  0.82645686  0.32940933  0.31286297  1
  Zn  Zn77  1  0.80570211  0.30845300  0.81692122  1
  Zn  Zn78  1  0.78091650  0.85673075  0.34806638  1
  Zn  Zn79  1  0.68478724  0.82884266  0.81399148  1
  Zn  Zn80  1  0.18217485  0.44757630  0.43577998  1
  Zn  Zn81  1  0.18383586  0.44638954  0.92023973  1
  Zn  Zn82  1  0.17876558  0.95459135  0.43741083  1
  Zn  Zn83  1  0.18457906  0.92951819  0.92793999  1
  Zn  Zn84  1  0.70518374  0.44761135  0.45069626  1
  Zn  Zn85  1  0.69057043  0.42978106  0.94136370  1
  Zn  Zn86  1  0.67562352  0.93759137  0.44754918  1
  Zn  Zn87  1  0.67750036  0.94232155  0.95576623  1
  Zn  Zn88  1  0.29084625  0.00912087  0.04106654  1
  Zn  Zn89  1  0.31528052  0.05727532  0.56250445  1
  Zn  Zn90  1  0.28236764  0.60097464  0.09361373  1
  Zn  Zn91  1  0.30090099  0.56050799  0.55964224  1
  Zn  Zn92  1  0.81933324  0.06493350  0.05812342  1
  Zn  Zn93  1  0.81468714  0.07204801  0.56272741  1
  Zn  Zn94  1  0.81905896  0.56731591  0.04907161  1
  Zn  Zn95  1  0.82189288  0.55255814  0.57992964  1
  Zn  Zn96  1  0.46068162  0.47845964  0.19929878  1
  Zn  Zn97  1  0.42646717  0.41069767  0.53320029  1
  Zn  Zn98  1  0.43070967  0.92446481  0.19806489  1
  Zn  Zn99  1  0.43727254  0.93759836  0.68188252  1
  Zn  Zn100  1  0.94955445  0.44041542  0.18809113  1
  Zn  Zn101  1  0.94028522  0.43895919  0.68948776  1
  Zn  Zn102  1  0.93829415  0.93630863  0.18707290  1
  Zn  Zn103  1  0.92636614  0.93704791  0.69429653  1
  Zn  Zn104  1  0.06440979  0.06000907  0.30522594  1
  Zn  Zn105  1  0.05555580  0.04671381  0.81096423  1
  Zn  Zn106  1  0.05843967  0.55647204  0.31331259  1
  Zn  Zn107  1  0.06785859  0.55848281  0.81078858  1
  Zn  Zn108  1  0.56660974  0.07565066  0.34309226  1
  Zn  Zn109  1  0.56957810  0.06559378  0.80857683  1
  Zn  Zn110  1  0.58846762  0.52431827  0.36166274  1
  Zn  Zn111  1  0.48175122  0.49364625  0.79597412  1
  Zn  Zn112  1  0.45605140  0.22615172  0.45417379  1
  Zn  Zn113  1  0.45720976  0.16165068  0.92526476  1
  Zn  Zn114  1  0.46832241  0.65439593  0.40807412  1
  Zn  Zn115  1  0.41289843  0.67395741  0.94350069  1
  Zn  Zn116  1  0.92880470  0.19893620  0.43455276  1
  Zn  Zn117  1  0.94242771  0.17487283  0.93179843  1
  Zn  Zn118  1  0.93154672  0.68672127  0.44837036  1
  Zn  Zn119  1  0.91038478  0.81820022  0.95033614  1
  Zn  Zn120  1  0.08790260  0.30701891  0.05277768  1
  Zn  Zn121  1  0.06277005  0.30367393  0.55893491  1
  Zn  Zn122  1  0.06868924  0.81458439  0.06315100  1
  Zn  Zn123  1  0.06122041  0.82032303  0.56644681  1
  Zn  Zn124  1  0.55888711  0.30143824  0.07514855  1
  Zn  Zn125  1  0.57542925  0.31275791  0.57356698  1
  Zn  Zn126  1  0.56927381  0.82759747  0.06190837  1
  Zn  Zn127  1  0.49699073  0.86054642  0.38008178  1
  O  O128  1  0.13549265  0.10815834  0.10323691  1
  O  O129  1  0.12352434  0.11177928  0.63773770  1
  O  O130  1  0.16129459  0.61943061  0.10393644  1
  O  O131  1  0.12969715  0.62944959  0.60993784  1
  O  O132  1  0.64014125  0.13435549  0.12024708  1
  O  O133  1  0.63897589  0.14051645  0.60776101  1
  O  O134  1  0.58240443  0.59433353  0.14896121  1
  O  O135  1  0.59702481  0.60827795  0.61880294  1
  O  O136  1  0.39059430  0.40107678  0.37133247  1
  O  O137  1  0.34556663  0.36070180  0.90285265  1
  O  O138  1  0.38907402  0.89095707  0.37972368  1
  O  O139  1  0.40091674  0.86350657  0.88056673  1
  O  O140  1  0.89817021  0.39324268  0.37224129  1
  O  O141  1  0.89967522  0.36506398  0.87066199  1
  O  O142  1  0.89415433  0.88043756  0.36471452  1
  O  O143  1  0.87223083  0.88940237  0.86923073  1
  O  O144  1  0.26654237  -0.00840564  0.37511142  1
  O  O145  1  0.23740397  0.01314373  0.84991135  1
  O  O146  1  0.25797666  0.51118913  0.36704236  1
  O  O147  1  0.25068961  0.51206922  0.85319227  1
  O  O148  1  0.74718736  0.00994676  0.36824244  1
  O  O149  1  0.76032696  -0.00304841  0.89433230  1
  O  O150  1  0.77920782  0.49221841  0.37825093  1
  O  O151  1  0.75932486  0.48692798  0.87030109  1
  O  O152  1  0.25160792  0.49747427  0.14034578  1
  O  O153  1  0.25090665  0.48751564  0.63914083  1
  O  O154  1  0.26015360  1.00416666  0.14911130  1
  O  O155  1  0.23754445  0.99925966  0.63307047  1
  O  O156  1  0.76510942  0.48411816  0.10606452  1
  O  O157  1  0.76891321  0.47977315  0.65348792  1
  O  O158  1  0.75300602  1.00435038  0.13165894  1
  O  O159  1  0.74990646  0.99773227  0.62174295  1
  O  O160  1  0.01151048  0.37502384  0.25660978  1
  O  O161  1  0.01723300  0.38204310  0.76589509  1
  O  O162  1  0.01693666  0.89505063  0.26728564  1
  O  O163  1  0.01167680  0.87585458  0.73669475  1
  O  O164  1  0.51766766  0.38645807  0.24654359  1
  O  O165  1  0.50990920  0.35592238  0.75634602  1
  O  O166  1  0.51508917  0.87287756  0.25676768  1
  O  O167  1  0.49974253  0.89294454  0.76410071  1
  O  O168  1  0.58519729  0.10539257  0.15700729  1
  O  O169  1  0.48175584  0.12710282  0.75893042  1
  O  O170  1  0.52012931  0.59246011  0.20576481  1
  O  O171  1  0.48050643  0.60444197  0.73310902  1
  O  O172  1  0.96336501  0.08856608  0.25568406  1
  O  O173  1  0.98167313  0.11160661  0.74889867  1
  O  O174  1  1.03572672  0.62200352  0.22056439  1
  O  O175  1  1.01833235  0.61851220  0.73322253  1
  O  O176  1  0.33492658  0.23736804  0.03120743  1
  O  O177  1  0.34354050  0.26178081  0.46259104  1
  O  O178  1  0.36647406  0.76411796  -0.00972321  1
  O  O179  1  0.43657544  0.77298849  0.55733547  1
  O  O180  1  0.87229823  0.24357249  -0.01034280  1
  O  O181  1  0.86957018  0.24759044  0.52067904  1
  O  O182  1  0.84287958  0.75769493  0.01426557  1
  O  O183  1  0.87878474  0.77111374  0.49735182  1
  O  O184  1  0.13455032  0.24147025  0.50190153  1
  O  O185  1  0.12714840  0.22507935  0.98598747  1
  O  O186  1  0.11596858  0.74087148  0.48977385  1
  O  O187  1  0.13059550  0.73580364  0.99891574  1
  O  O188  1  0.63134681  0.24429178  0.48907809  1
  O  O189  1  0.61916247  0.24842511  0.99339061  1
  O  O190  1  0.62449862  0.71924061  0.50047023  1
  O  O191  1  0.65824852  0.74723538  1.04873308  1
  O  O192  1  0.51497138  0.24259267  0.16444714  1
  O  O193  1  0.51495414  0.24009955  0.65077419  1
  O  O194  1  0.51615987  0.73461483  0.12015463  1
  O  O195  1  0.49389659  0.77653205  0.60068202  1
  O  O196  1  1.04966468  0.22716051  0.15126274  1
  O  O197  1  0.98438178  0.25912603  0.62893623  1
  O  O198  1  1.00617141  0.73041208  0.11032246  1
  O  O199  1  1.00579211  0.73727801  0.62281956  1
  O  O200  1  -0.00262164  0.27118620  0.38437863  1
  O  O201  1  0.01615393  0.25907838  0.88015312  1
  O  O202  1  0.00458408  0.76719211  0.38003687  1
  O  O203  1  -0.02084883  0.75150910  0.86887448  1
  O  O204  1  0.52662615  0.23876304  0.35295744  1
  O  O205  1  0.51285447  0.24124443  0.87011048  1
  O  O206  1  0.52289500  0.74842801  0.38747231  1
  O  O207  1  0.56622770  0.69371649  0.87092880  1
  O  O208  1  0.24391583  0.12606607  0.50676607  1
  O  O209  1  0.23510706  0.09782895  0.97794108  1
  O  O210  1  0.23065127  0.61826944  0.48464371  1
  O  O211  1  0.25451870  0.62252030  0.97665184  1
  O  O212  1  0.74151315  0.11914138  0.48497443  1
  O  O213  1  0.75100950  0.14368551  1.01031168  1
  O  O214  1  0.73844802  0.61486941  0.53250752  1
  O  O215  1  0.75223550  0.62971110  0.98671353  1
  O  O216  1  0.29067857  0.37908766  -0.04964517  1
  O  O217  1  0.23737565  0.38650094  0.51523113  1
  O  O218  1  0.27007044  0.89883009  -0.00649600  1
  O  O219  1  0.24471877  0.87618869  0.49934359  1
  O  O220  1  0.76183767  0.36481494  0.00435928  1
  O  O221  1  0.74639868  0.38120536  0.53252169  1
  O  O222  1  0.73831494  0.88043811  0.03352030  1
  O  O223  1  0.77610550  0.89022203  0.47355265  1
  O  O224  1  0.14149449  0.50126207  0.23540766  1
  O  O225  1  0.13975583  0.47937965  0.75602071  1
  O  O226  1  0.14223758  0.98890187  0.26503673  1
  O  O227  1  0.13128144  0.98969728  0.73790407  1
  O  O228  1  0.63837116  0.48177074  0.26954583  1
  O  O229  1  0.59805723  0.48018649  0.76654800  1
  O  O230  1  0.61259888  1.00325332  0.26325104  1
  O  O231  1  0.63542921  1.01809094  0.73371432  1
  O  O232  1  0.36576694  -0.00651166  0.26460017  1
  O  O233  1  0.35977691  0.01327463  0.74187875  1
  O  O234  1  0.36049822  0.50878125  0.25856533  1
  O  O235  1  0.36872147  0.48777133  0.75182571  1
  O  O236  1  0.90217651  0.03005346  0.25838527  1
  O  O237  1  0.86220362  0.00568676  0.75991024  1
  O  O238  1  0.89132416  0.50748486  0.25835899  1
  O  O239  1  0.88261950  0.50106013  0.76758516  1
  O  O240  1  0.11210362  0.38481411  0.37700946  1
  O  O241  1  0.12992223  0.35690949  0.86882680  1
  O  O242  1  0.11729005  0.86590744  0.37990375  1
  O  O243  1  0.12472708  0.87575442  0.85177560  1
  O  O244  1  0.62968344  0.37141063  0.39270448  1
  O  O245  1  0.62805409  0.35782129  0.86558172  1
  O  O246  1  0.62352484  0.86914509  0.36496419  1
  O  O247  1  0.60340257  0.87428575  0.88454270  1
  O  O248  1  0.31232766  0.20891757  0.09692466  1
  O  O249  1  0.37390214  0.13026046  0.63476293  1
  O  O250  1  0.38000059  0.64374649  0.12095025  1
  O  O251  1  0.37725539  0.61500106  0.63127538  1
  O  O252  1  0.86558015  0.13464389  0.13886589  1
  O  O253  1  0.86957289  0.14095187  0.63800476  1
  O  O254  1  0.89878634  0.61182689  0.12357889  1
  O  O255  1  0.89192076  0.62703441  0.63061679  1
  O  O256  1  0.24545413  0.24523085  0.13012951  1
  O  O257  1  0.24787951  0.25932862  0.60869256  1
  O  O258  1  0.25197399  0.75629471  0.13503549  1
  O  O259  1  0.25277448  0.76582761  0.61829262  1
  O  O260  1  0.75237219  0.26818791  0.10750591  1
  O  O261  1  0.76259185  0.26457700  0.64637119  1
  O  O262  1  0.76232775  0.70971980  0.16621073  1
  O  O263  1  0.69427827  0.79694770  0.60413623  1
  O  O264  1  0.24149832  0.24486625  0.38958587  1
  O  O265  1  0.23879381  0.22980467  0.87257329  1
  O  O266  1  0.23383795  0.74606315  0.38023393  1
  O  O267  1  0.25137247  0.73063136  0.85198386  1
  O  O268  1  0.74435445  0.26680590  0.37182455  1
  O  O269  1  0.73754941  0.25381056  0.89348492  1
  O  O270  1  0.73229230  0.75753888  0.37934324  1
  O  O271  1  0.73010844  0.76092277  0.89265305  1
  O  O272  1  0.01308365  0.11343796  -0.00165792  1
  O  O273  1  -0.00777433  0.11466988  0.49108404  1
  O  O274  1  0.03134113  0.60754944  0.01159913  1
  O  O275  1  0.00891810  0.62178737  0.51359143  1
  O  O276  1  0.48234441  0.11203307  0.01891791  1
  O  O277  1  0.52079274  0.13282204  0.49245552  1
  O  O278  1  0.49680081  0.63014136  0.00100839  1
  O  O279  1  0.48535184  0.62034766  0.51902988  1
  O  O280  1  0.48988053  0.32659741  0.50327849  1
  O  O281  1  0.49239625  0.36915564  1.01293721  1
  O  O282  1  0.51734406  0.90252489  0.49545715  1
  O  O283  1  0.49202946  0.88261235  0.99580141  1
  O  O284  1  1.00940795  0.39200817  0.50688177  1
  O  O285  1  1.01575613  0.37874331  0.99234503  1
  O  O286  1  0.98902147  0.88469115  0.49221049  1
  O  O287  1  1.00259196  0.87592388  0.99261794  1
  O  O288  1  0.47413258  0.54090710  0.36590208  1
  O  O289  1  0.46145987  0.48965773  0.90646549  1
  O  O290  1  0.48912782  1.00672849  0.38234975  1
  O  O291  1  0.49938578  1.00433511  0.87951894  1
  O  O292  1  0.99852900  0.49238982  0.38529758  1
  O  O293  1  1.02380163  0.48324721  0.89027439  1
  O  O294  1  1.01811632  0.99264453  0.39342783  1
  O  O295  1  0.98437373  0.99810217  0.88511334  1
  O  O296  1  -0.00769018  -0.01072453  0.09976497  1
  O  O297  1  0.00985537  -0.00240192  0.61697362  1
  O  O298  1  0.02794367  0.50023780  0.11493674  1
  O  O299  1  -0.00055457  0.50826661  0.61547422  1
  O  O300  1  0.48806798  -0.00503030  0.12702513  1
  O  O301  1  0.49492683  0.00571978  0.61011178  1
  O  O302  1  0.46304102  0.50907991  0.08802780  1
  O  O303  1  0.48419987  0.48524556  0.60886479  1
  O  O304  1  0.25598484  0.38723430  0.26549532  1
  O  O305  1  0.24724689  0.37701113  0.74348256  1
  O  O306  1  0.23734242  0.87919207  0.26600736  1
  O  O307  1  0.25325145  0.88866581  0.74991532  1
  O  O308  1  0.75264366  0.37195260  0.22403621  1
  O  O309  1  0.73910133  0.38652794  0.75829131  1
  O  O310  1  0.72825662  0.88343649  0.25010022  1
  O  O311  1  0.74321815  0.90360757  0.75390047  1
  O  O312  1  0.24833474  0.10675540  0.26776466  1
  O  O313  1  0.26223660  0.12430967  0.75361733  1
  O  O314  1  0.23650621  0.62609037  0.26957013  1
  O  O315  1  0.26377453  0.61282062  0.74373685  1
  O  O316  1  0.75603050  0.13435842  0.26036982  1
  O  O317  1  0.76348896  0.10811945  0.74832614  1
  O  O318  1  0.76246457  0.62086600  0.26302886  1
  O  O319  1  0.74736816  0.59678172  0.75516841  1
  O  O320  1  0.37872793  0.11399726  0.36878811  1
  O  O321  1  0.35855923  0.12601623  0.87456310  1
  O  O322  1  0.35356488  0.63933729  0.38189584  1
  O  O323  1  0.36591515  0.62661274  0.85102539  1
  O  O324  1  0.85619327  0.13387312  0.37229087  1
  O  O325  1  0.87487722  0.11250015  0.86422426  1
  O  O326  1  0.89569446  0.61082625  0.37670142  1
  O  O327  1  0.87070301  0.70997483  0.80590443  1
  O  O328  1  0.13922724  0.38158182  0.12150795  1
  O  O329  1  0.12969664  0.36376444  0.64337143  1
  O  O330  1  0.12585584  0.86876967  0.14687364  1
  O  O331  1  0.13996005  0.88380944  0.63024873  1
  O  O332  1  0.62876566  0.38735777  0.12943855  1
  O  O333  1  0.64059472  0.36531488  0.65159464  1
  O  O334  1  0.63167950  0.88093276  0.14879725  1
  O  O335  1  0.64202515  0.80938344  0.65320983  1
  O  O336  1  0.03897486  0.22094600  0.22673009  1
  O  O337  1  0.13171509  0.25745852  0.76122029  1
  O  O338  1  0.12244287  0.76661636  0.26936571  1
  O  O339  1  0.12919819  0.76460602  0.73975129  1
  O  O340  1  0.63241838  0.28352497  0.26289815  1
  O  O341  1  0.61797205  0.24582034  0.76636497  1
  O  O342  1  0.62614155  0.73373181  0.26351843  1
  O  O343  1  0.64384933  0.75456535  0.72802135  1
  O  O344  1  0.39709531  0.27338361  0.26505342  1
  O  O345  1  0.38741040  0.23851119  0.75544976  1
  O  O346  1  0.30368476  0.77410684  0.18257076  1
  O  O347  1  0.38280809  0.74003024  0.73828451  1
  O  O348  1  0.87814314  0.24262016  0.25329904  1
  O  O349  1  0.87239879  0.23370054  0.75974561  1
  O  O350  1  0.79539143  0.68048265  0.23353219  1
  O  O351  1  0.93962425  0.73767697  0.80131713  1
  O  O352  1  0.36629533  0.50025386  0.48486153  1
  O  O353  1  0.33405949  0.38463534  1.08630464  1
  O  O354  1  0.39055012  1.01176343  0.49186607  1
  O  O355  1  0.39190210  0.98429502  0.99549169  1
  O  O356  1  0.89282869  0.50529011  0.49726580  1
  O  O357  1  0.91081444  0.50488489  1.00092864  1
  O  O358  1  0.89192774  0.99646721  0.50886175  1
  O  O359  1  0.88629364  1.00414252  0.98815050  1
  O  O360  1  0.10958790  0.00284705  -0.01751321  1
  O  O361  1  0.11452550  0.00340403  0.51633791  1
  O  O362  1  0.13825541  0.49784189  0.01205071  1
  O  O363  1  0.11030135  0.52039573  0.49186524  1
  O  O364  1  0.59800694  0.00057188  0.00955741  1
  O  O365  1  0.61392824  0.02226192  0.49102535  1
  O  O366  1  0.60561600  0.48536083  -0.01038729  1
  O  O367  1  0.61745582  0.51655123  0.47692238  1
  O  O368  1  0.37971525  0.36155640  0.13679699  1
  O  O369  1  0.35698759  0.37091573  0.61951227  1
  O  O370  1  0.38166750  0.86787538  0.10940653  1
  O  O371  1  0.35121228  0.89052307  0.62227450  1
  O  O372  1  0.88273137  0.37801808  0.11918340  1
  O  O373  1  0.86770900  0.36076467  0.64587426  1
  O  O374  1  0.84890384  0.87788230  0.15329324  1
  O  O375  1  0.86923145  0.87730312  0.61464290  1
  O  O376  1  0.09961016  0.17382637  0.26762748  1
  O  O377  1  0.12538055  0.13163483  0.86642560  1
  O  O378  1  0.11954792  0.64215501  0.37904434  1
  O  O379  1  0.13957888  0.61770172  0.88442277  1
  O  O380  1  0.64766985  0.14534190  0.37592086  1
  O  O381  1  0.62816269  0.13443884  0.88060830  1
  O  O382  1  0.63298669  0.63043803  0.38854083  1
  O  O383  1  0.60779300  0.63641565  0.85565208  1
