# generated using pymatgen
data_VZnO4
_symmetry_space_group_name_H-M   'P 1'
_cell_length_a   17.04313692
_cell_length_b   17.03990546
_cell_length_c   17.02542650
_cell_angle_alpha   90.53752833
_cell_angle_beta   89.93982095
_cell_angle_gamma   89.47896452
_symmetry_Int_Tables_number   1
_chemical_formula_structural   VZnO4
_chemical_formula_sum   'V64 Zn64 O256'
_cell_volume   4943.98749834
_cell_formula_units_Z   64
loop_
 _symmetry_equiv_pos_site_id
 _symmetry_equiv_pos_as_xyz
  1  'x, y, z'
loop_
 _atom_site_type_symbol
 _atom_site_label
 _atom_site_symmetry_multiplicity
 _atom_site_fract_x
 _atom_site_fract_y
 _atom_site_fract_z
 _atom_site_occupancy
  V  V0  1  0.87619058  0.62019652  0.25543341  1
  V  V1  1  0.63377590  0.35950709  0.21460053  1
  V  V2  1  0.11121917  0.13084071  0.50621337  1
  V  V3  1  0.49489594  0.52135541  0.47542829  1
  V  V4  1  0.85581988  0.39003579  -0.02542394  1
  V  V5  1  0.88607251  0.74516228  0.11639162  1
  V  V6  1  0.75588921  0.63197834  0.38212856  1
  V  V7  1  0.62078032  0.61020390  0.00568020  1
  V  V8  1  0.11460108  0.00949971  0.15117628  1
  V  V9  1  0.84390568  0.38067558  0.49333168  1
  V  V10  1  0.00101958  0.76144973  0.25388909  1
  V  V11  1  0.50957412  0.87982817  0.89526588  1
  V  V12  1  0.78264060  0.86444955  0.64382001  1
  V  V13  1  0.33413208  0.73037170  0.12219385  1
  V  V14  1  0.63349125  0.25124323  0.41275894  1
  V  V15  1  0.13269037  0.23667629  0.92279805  1
  V  V16  1  -0.02563549  0.12153968  0.62187939  1
  V  V17  1  0.23837628  -0.03942180  0.26477476  1
  V  V18  1  -0.00739833  0.49020833  -0.00794130  1
  V  V19  1  0.13737601  0.61743069  0.50947572  1
  V  V20  1  0.85356260  0.15660843  0.77785197  1
  V  V21  1  0.61044454  0.51453474  0.61692389  1
  V  V22  1  -0.01301902  0.60724597  0.62913851  1
  V  V23  1  0.75124512  0.50510249  0.74922824  1
  V  V24  1  0.37266052  0.37950190  -0.01802270  1
  V  V25  1  0.79773838  0.75313974  0.50940886  1
  V  V26  1  0.50536757  0.22879837  0.76568638  1
  V  V27  1  0.24940221  0.61349879  0.35445022  1
  V  V28  1  0.12860095  0.49243347  0.13142295  1
  V  V29  1  -0.03251249  0.13467930  0.13146304  1
  V  V30  1  0.10561514  0.65091097  -0.00270560  1
  V  V31  1  -0.02125359  0.25579468  0.26498632  1
  V  V32  1  0.88261421  -0.03986188  0.90203646  1
  V  V33  1  -0.00154759  0.27798163  0.75818980  1
  V  V34  1  0.38685619  0.02287131  0.88696782  1
  V  V35  1  0.25076002  0.36282096  0.11406411  1
  V  V36  1  0.13429848  0.36299677  0.25999649  1
  V  V37  1  0.37400647  0.66865732  0.78071888  1
  V  V38  1  0.39632057  -0.03233065  0.35939494  1
  V  V39  1  0.12083010  0.75705223  0.37626820  1
  V  V40  1  -0.00543636  0.60952374  0.13483337  1
  V  V41  1  0.55993541  0.11984117  0.60761514  1
  V  V42  1  0.87421844  0.26719648  0.62664991  1
  V  V43  1  0.36147472  0.31401384  0.48162361  1
  V  V44  1  0.74429259  0.24043027  0.01023327  1
  V  V45  1  0.35363261  0.12127409  0.71130846  1
  V  V46  1  0.35731795  0.88325162  0.01418059  1
  V  V47  1  0.62265473  0.74541827  0.87277675  1
  V  V48  1  0.76582478  0.74806798  -0.00568933  1
  V  V49  1  0.48178341  0.65623613  0.62193610  1
  V  V50  1  0.61164693  0.10921377  -0.00054819  1
  V  V51  1  0.62686631  0.65464936  0.50803037  1
  V  V52  1  0.73175550  0.37899812  0.62602760  1
  V  V53  1  0.62744667  0.87823182  0.74836701  1
  V  V54  1  0.61881572  -0.00316212  0.14012688  1
  V  V55  1  0.73408788  0.11754241  0.35555510  1
  V  V56  1  0.76688492  0.88015114  0.12837235  1
  V  V57  1  0.01375479  0.75744491  0.73769659  1
  V  V58  1  0.60301929  0.74084121  0.32832363  1
  V  V59  1  0.76753388  0.61790438  0.86527401  1
  V  V60  1  0.01881278  0.48217728  0.49795313  1
  V  V61  1  0.87299315  0.49955295  0.37828046  1
  V  V62  1  0.38858287  0.22557432  0.12043912  1
  V  V63  1  0.58957742  0.39254818  0.75279212  1
  Zn  Zn64  1  0.15281682  0.21192440  0.13727944  1
  Zn  Zn65  1  0.14152170  0.14255508  0.71606031  1
  Zn  Zn66  1  0.17517360  0.68174026  0.18894846  1
  Zn  Zn67  1  0.18722240  0.66275174  0.70238811  1
  Zn  Zn68  1  0.68631083  0.18425275  0.17914686  1
  Zn  Zn69  1  0.68520941  0.21227385  0.70767690  1
  Zn  Zn70  1  0.70305561  0.67370535  0.17561973  1
  Zn  Zn71  1  0.69211516  0.69624206  0.68519255  1
  Zn  Zn72  1  0.32115034  0.32431385  0.29156277  1
  Zn  Zn73  1  0.30037441  0.26937667  0.82039472  1
  Zn  Zn74  1  0.32161067  0.78175195  0.32232656  1
  Zn  Zn75  1  0.33046640  0.86223441  0.81181162  1
  Zn  Zn76  1  0.78620976  0.31054361  0.31081320  1
  Zn  Zn77  1  0.76993047  0.32040759  0.82897591  1
  Zn  Zn78  1  0.81814087  0.81174248  0.31380523  1
  Zn  Zn79  1  0.82744044  0.80016300  0.81240552  1
  Zn  Zn80  1  0.21045013  0.43377685  0.43754713  1
  Zn  Zn81  1  0.16287686  0.41744717  0.94186000  1
  Zn  Zn82  1  0.13557037  0.96483464  0.42063387  1
  Zn  Zn83  1  0.20936366  1.02456030  0.81247414  1
  Zn  Zn84  1  0.66415578  0.44901759  0.42988567  1
  Zn  Zn85  1  0.66562348  0.41786642  0.94325732  1
  Zn  Zn86  1  0.73339380  0.95932185  0.47878733  1
  Zn  Zn87  1  0.69709157  0.93864367  0.94455870  1
  Zn  Zn88  1  0.32038356  0.03098380  0.09720234  1
  Zn  Zn89  1  0.31939529  0.10529092  0.50415758  1
  Zn  Zn90  1  0.28973346  0.55635549  0.02823541  1
  Zn  Zn91  1  0.32213677  0.56131624  0.57016071  1
  Zn  Zn92  1  0.83042962  0.06253699  0.05028409  1
  Zn  Zn93  1  0.75888512  0.06376365  0.63929323  1
  Zn  Zn94  1  0.78287852  0.54219661  0.04822052  1
  Zn  Zn95  1  0.80501205  0.55874890  0.56199960  1
  Zn  Zn96  1  0.43837193  0.39323983  0.17768183  1
  Zn  Zn97  1  0.41843144  0.42615661  0.64411511  1
  Zn  Zn98  1  0.44480312  0.93857262  0.20206778  1
  Zn  Zn99  1  0.47439126  0.96387573  0.71030563  1
  Zn  Zn100  1  0.94680681  0.43174391  0.20559796  1
  Zn  Zn101  1  0.93464671  0.44191053  0.68251084  1
  Zn  Zn102  1  0.96882360  0.93264065  0.08794479  1
  Zn  Zn103  1  0.95647535  0.94554935  0.71960986  1
  Zn  Zn104  1  0.03721638  0.06841918  0.31485909  1
  Zn  Zn105  1  0.01916652  0.08641010  0.82770010  1
  Zn  Zn106  1  0.06609355  0.55264710  0.32026557  1
  Zn  Zn107  1  0.05477404  0.57448721  0.82489804  1
  Zn  Zn108  1  0.61847876  -0.05190120  0.34743562  1
  Zn  Zn109  1  0.58569025  0.04960666  0.82870791  1
  Zn  Zn110  1  0.50450301  0.35680081  0.37436964  1
  Zn  Zn111  1  0.55401274  0.58324374  0.79715793  1
  Zn  Zn112  1  0.46749532  0.15047503  0.43198119  1
  Zn  Zn113  1  0.43960981  0.19890254  0.95039520  1
  Zn  Zn114  1  0.44977641  0.64818210  0.36699579  1
  Zn  Zn115  1  0.44314429  0.69900718  0.96351295  1
  Zn  Zn116  1  0.92576670  0.19615996  0.44094876  1
  Zn  Zn117  1  0.94124153  0.20966719  0.94427336  1
  Zn  Zn118  1  0.95635457  0.67331214  0.43818404  1
  Zn  Zn119  1  0.94445107  0.69176518  0.91309529  1
  Zn  Zn120  1  0.03911799  0.31623402  0.07008040  1
  Zn  Zn121  1  0.07288117  0.30344510  0.56818741  1
  Zn  Zn122  1  0.16742383  0.83728379  0.06803403  1
  Zn  Zn123  1  0.05803879  0.78658633  0.56560232  1
  Zn  Zn124  1  0.55448961  0.29972825  0.05008974  1
  Zn  Zn125  1  0.54225756  0.30812485  0.57145667  1
  Zn  Zn126  1  0.59392679  0.81582571  0.05869331  1
  Zn  Zn127  1  0.59774453  0.86485309  0.53656632  1
  O  O128  1  0.12617023  0.10428026  0.12091952  1
  O  O129  1  0.08542654  0.12481272  0.61584690  1
  O  O130  1  0.11164190  0.60832378  0.12159324  1
  O  O131  1  0.12224177  0.62174502  0.61304343  1
  O  O132  1  0.63703986  0.10065100  0.11962107  1
  O  O133  1  0.66297049  0.12690786  0.63627110  1
  O  O134  1  0.67260705  0.59795616  0.09637555  1
  O  O135  1  0.61843604  0.62956035  0.62432077  1
  O  O136  1  0.38568282  0.34777696  0.38509126  1
  O  O137  1  0.35097863  0.34432141  0.88873855  1
  O  O138  1  0.36309681  0.87609143  0.38053746  1
  O  O139  1  0.40146932  0.86647257  0.90595197  1
  O  O140  1  0.84869839  0.38661166  0.38868950  1
  O  O141  1  0.85210799  0.39014982  0.87613395  1
  O  O142  1  0.87453901  0.89486355  0.37829997  1
  O  O143  1  0.88515032  0.86072665  0.89188968  1
  O  O144  1  0.23179106  -0.01062528  0.36288526  1
  O  O145  1  0.30011835  -0.02719276  0.84759615  1
  O  O146  1  0.26312306  0.51735230  0.38000784  1
  O  O147  1  0.20871359  0.49159648  0.85544283  1
  O  O148  1  0.72822469  0.01581599  0.37437331  1
  O  O149  1  0.78598517  -0.01427295  0.89268236  1
  O  O150  1  0.75825252  0.52407708  0.39199165  1
  O  O151  1  0.73651915  0.51337027  0.85555110  1
  O  O152  1  0.22741997  0.49689640  0.11523584  1
  O  O153  1  0.32534891  0.48218091  0.64576498  1
  O  O154  1  0.22687642  0.99137248  0.15549652  1
  O  O155  1  0.22977526  0.95563377  0.59441190  1
  O  O156  1  0.80146651  0.47760528  0.14832871  1
  O  O157  1  0.73190794  0.50009909  0.63259764  1
  O  O158  1  0.78451964  0.97638604  0.11174319  1
  O  O159  1  0.74248472  0.95374452  0.61728013  1
  O  O160  1  0.01811353  0.36012459  0.25243643  1
  O  O161  1  0.00611948  0.37639758  0.73545535  1
  O  O162  1  -0.00339682  0.85615975  0.24531660  1
  O  O163  1  0.02722538  0.85521136  0.72479110  1
  O  O164  1  0.52132791  0.38833511  0.26116020  1
  O  O165  1  0.49146847  0.38500269  0.72459667  1
  O  O166  1  0.50592298  0.83059560  0.20359063  1
  O  O167  1  0.52033962  0.88000307  0.77375439  1
  O  O168  1  0.50060863  0.13990847  0.24878335  1
  O  O169  1  0.53993196  0.13624925  0.77048121  1
  O  O170  1  0.45201009  0.54721208  0.18507920  1
  O  O171  1  0.46950880  0.62992853  0.73484291  1
  O  O172  1  0.99636424  0.14623213  0.24757206  1
  O  O173  1  0.96375874  0.15306187  0.73672666  1
  O  O174  1  0.99028633  0.61500911  0.25009389  1
  O  O175  1  1.00344106  0.59020925  0.72754615  1
  O  O176  1  0.36809874  0.25575898  0.02013599  1
  O  O177  1  0.36461883  0.21058996  0.47398798  1
  O  O178  1  0.38572085  0.77664249  0.03631501  1
  O  O179  1  0.40907344  0.81520056  0.52217459  1
  O  O180  1  0.85277567  0.28410587  -0.00712748  1
  O  O181  1  0.87534538  0.28109352  0.50808684  1
  O  O182  1  0.87698812  0.72565035  0.00401907  1
  O  O183  1  0.89535407  0.74127593  0.51216887  1
  O  O184  1  0.11310172  0.22840304  0.49019461  1
  O  O185  1  0.12399542  0.24724484  1.02789468  1
  O  O186  1  0.11055359  0.72450360  0.48502778  1
  O  O187  1  0.11051688  0.74603467  1.02413463  1
  O  O188  1  0.63269819  0.26226217  0.51238016  1
  O  O189  1  0.63227236  0.21692571  1.01513608  1
  O  O190  1  0.62633637  0.75454192  0.51452543  1
  O  O191  1  0.64737215  0.73825367  0.99024202  1
  O  O192  1  0.48846674  0.22520437  0.10918858  1
  O  O193  1  0.51575439  0.21177714  0.63928834  1
  O  O194  1  0.50853969  0.78963369  0.13965497  1
  O  O195  1  0.50089085  0.74909548  0.63014185  1
  O  O196  1  0.99830345  0.24152958  0.14609007  1
  O  O197  1  0.98190844  0.26040261  0.62713648  1
  O  O198  1  0.99585111  0.72639304  0.14257643  1
  O  O199  1  0.99777278  0.72261508  0.63702842  1
  O  O200  1  -0.00976178  0.24457047  0.36497596  1
  O  O201  1  -0.03173146  0.27583290  0.85347581  1
  O  O202  1  0.00450665  0.74149708  0.36214951  1
  O  O203  1  0.06939469  0.85943616  0.90480850  1
  O  O204  1  0.52522684  0.24505018  0.39767056  1
  O  O205  1  0.49031233  0.25251921  0.86092716  1
  O  O206  1  0.50516261  0.74355196  0.35319489  1
  O  O207  1  0.52026102  0.76366886  0.88985653  1
  O  O208  1  0.20763847  0.10268501  0.51492904  1
  O  O209  1  0.23655715  0.08746571  1.00320795  1
  O  O210  1  0.23744886  0.61476199  0.50802523  1
  O  O211  1  0.19674068  0.61238958  0.98070333  1
  O  O212  1  0.79103096  0.12122300  0.48090507  1
  O  O213  1  0.77218617  0.14376505  0.99603116  1
  O  O214  1  0.75096743  0.64497143  0.50392538  1
  O  O215  1  0.74545772  0.62448550  0.97338591  1
  O  O216  1  0.24336142  0.37169152  0.01029431  1
  O  O217  1  0.27005188  0.35312773  0.49607915  1
  O  O218  1  0.25945792  0.87503703  0.00371004  1
  O  O219  1  0.26465700  0.92891327  0.53631553  1
  O  O220  1  0.76415076  0.43121781  0.00547973  1
  O  O221  1  0.74325136  0.39166277  0.50915401  1
  O  O222  1  0.75819220  0.85086739  0.00291204  1
  O  O223  1  0.78417811  0.85555969  0.51570617  1
  O  O224  1  0.11392768  0.48497588  0.23722352  1
  O  O225  1  0.16420760  0.52220017  0.80247457  1
  O  O226  1  0.12063175  0.99699027  0.25527374  1
  O  O227  1  0.11204446  1.04919094  0.77391625  1
  O  O228  1  0.58043227  0.44881236  0.25963880  1
  O  O229  1  0.61352356  0.50549718  0.73399027  1
  O  O230  1  0.63618578  0.98844033  0.23787436  1
  O  O231  1  0.64405607  0.97624701  0.76313223  1
  O  O232  1  0.34912175  -0.01444838  0.26249994  1
  O  O233  1  0.40179264  0.04297395  0.75920210  1
  O  O234  1  0.40254692  0.51205527  0.23277467  1
  O  O235  1  0.39147433  0.50153267  0.81666215  1
  O  O236  1  0.90423907  -0.04633638  0.33411585  1
  O  O237  1  0.81750236  0.07286410  0.73734629  1
  O  O238  1  0.88305090  0.50538194  0.27196840  1
  O  O239  1  0.84755703  0.49125231  0.74043714  1
  O  O240  1  0.14768375  0.37752863  0.35770888  1
  O  O241  1  0.11246603  0.33095253  0.89223786  1
  O  O242  1  0.11681940  0.85479955  0.39171025  1
  O  O243  1  0.17584469  0.89284848  0.76800057  1
  O  O244  1  0.63615666  0.35168101  0.37652739  1
  O  O245  1  0.59182417  0.40543629  0.85048476  1
  O  O246  1  0.64376978  0.83089887  0.33752888  1
  O  O247  1  0.62886382  0.86410651  0.87719112  1
  O  O248  1  0.36066397  0.12947542  0.13177009  1
  O  O249  1  0.36046412  0.10616685  0.61360922  1
  O  O250  1  0.33974072  0.63391032  0.09655734  1
  O  O251  1  0.38375496  0.65368799  0.60363686  1
  O  O252  1  0.87056068  0.12380596  0.14389171  1
  O  O253  1  0.86392773  0.16427200  0.61941288  1
  O  O254  1  0.87977186  0.62594696  0.13993388  1
  O  O255  1  0.88800462  0.60934947  0.62049033  1
  O  O256  1  0.25863156  0.26227067  0.12769608  1
  O  O257  1  0.21176469  0.30699020  0.66841471  1
  O  O258  1  0.23354465  0.75763047  0.12441108  1
  O  O259  1  0.22196793  0.77018780  0.63670122  1
  O  O260  1  0.74681210  0.25779658  0.10815144  1
  O  O261  1  0.75337740  0.27753806  0.63296416  1
  O  O262  1  0.76990195  0.74885333  0.11298453  1
  O  O263  1  0.76536751  0.75438851  0.61842826  1
  O  O264  1  0.25919778  0.21764634  0.33563279  1
  O  O265  1  0.22312751  0.21207375  0.88236720  1
  O  O266  1  0.22093208  0.73752017  0.36794333  1
  O  O267  1  0.21030796  0.83609333  0.80143268  1
  O  O268  1  0.74094655  0.23580497  0.38262543  1
  O  O269  1  0.71168459  0.31022913  0.92996379  1
  O  O270  1  0.78238440  0.74318558  0.39938815  1
  O  O271  1  0.75085525  0.73292362  0.87479529  1
  O  O272  1  -0.02815392  0.14243508  0.03055500  1
  O  O273  1  -0.01923374  0.13152309  0.51801656  1
  O  O274  1  0.00175335  0.60438926  0.02171997  1
  O  O275  1  0.01262015  0.60536922  0.51169520  1
  O  O276  1  0.51269294  0.11574558  -0.01061818  1
  O  O277  1  0.54356401  0.11562456  0.51001201  1
  O  O278  1  0.52702629  0.64558296  0.02052594  1
  O  O279  1  0.51401867  0.63389223  0.51262068  1
  O  O280  1  0.53129483  0.42434547  0.46615433  1
  O  O281  1  0.47309675  0.36750719  0.99797520  1
  O  O282  1  0.45821322  0.86742644  0.51392927  1
  O  O283  1  0.52383065  0.88246608  0.99387192  1
  O  O284  1  1.01749053  0.38293826  0.50398008  1
  O  O285  1  0.96986343  0.38438376  1.00993615  1
  O  O286  1  1.02666354  0.89416795  0.53481238  1
  O  O287  1  1.09380450  0.92705481  0.91356492  1
  O  O288  1  0.50405148  0.55215925  0.37939781  1
  O  O289  1  0.45633839  0.50040046  0.84934493  1
  O  O290  1  0.49051085  0.95798797  0.32319325  1
  O  O291  1  0.49240717  0.98939505  0.87547286  1
  O  O292  1  0.98816839  0.49989456  0.39337971  1
  O  O293  1  1.01199692  0.49455637  0.89490663  1
  O  O294  1  0.96387125  0.98897787  0.36967866  1
  O  O295  1  0.94828735  0.99271822  0.82497406  1
  O  O296  1  0.00221617  0.02701216  0.14836186  1
  O  O297  1  -0.04077519  0.02623873  0.63866303  1
  O  O298  1  0.00122149  0.49984679  0.12926832  1
  O  O299  1  -0.00004770  0.49768356  0.60518244  1
  O  O300  1  0.51972691  -0.01030242  0.13519688  1
  O  O301  1  0.52497970  0.03208025  0.64006459  1
  O  O302  1  0.48501578  0.49916836  0.13215865  1
  O  O303  1  0.50657727  0.51454532  0.60667663  1
  O  O304  1  0.24122011  0.38006860  0.23124806  1
  O  O305  1  0.24698301  0.33929855  0.73089841  1
  O  O306  1  0.24059580  0.86376995  0.26199762  1
  O  O307  1  0.32047189  0.90354600  0.69095752  1
  O  O308  1  0.72928444  0.37907190  0.24161185  1
  O  O309  1  0.71935100  0.39460619  0.74491095  1
  O  O310  1  0.77409410  0.86648414  0.22650578  1
  O  O311  1  0.74694287  0.85184437  0.74484700  1
  O  O312  1  0.28144397  0.15326954  0.30660344  1
  O  O313  1  0.25522780  0.11985691  0.73764815  1
  O  O314  1  0.23636333  0.61280136  0.25578311  1
  O  O315  1  0.28480095  0.63470836  0.74637997  1
  O  O316  1  0.74828917  0.12783355  0.25834782  1
  O  O317  1  0.76157836  0.21095533  0.79213756  1
  O  O318  1  0.76903762  0.63646542  0.26741130  1
  O  O319  1  0.74380523  0.61697491  0.75447366  1
  O  O320  1  0.44763512  0.13258161  0.29772552  1
  O  O321  1  0.37193736  0.11957786  0.89370541  1
  O  O322  1  0.34182483  0.66486640  0.36685290  1
  O  O323  1  0.38223402  0.65391844  0.88068939  1
  O  O324  1  0.84126297  0.11672810  0.41008509  1
  O  O325  1  0.88260017  0.13530957  0.87084154  1
  O  O326  1  0.87521215  0.61619952  0.37576860  1
  O  O327  1  0.86448062  0.61383152  0.86865201  1
  O  O328  1  0.13129267  0.37906648  0.13218167  1
  O  O329  1  0.15929025  0.35526511  0.63355210  1
  O  O330  1  0.09298778  0.92085473  0.09166113  1
  O  O331  1  0.16710216  0.81897360  0.62111444  1
  O  O332  1  0.61456630  0.37235123  0.11503008  1
  O  O333  1  0.61852257  0.39379280  0.62505898  1
  O  O334  1  0.65891903  0.88650286  0.11881253  1
  O  O335  1  0.61777873  0.86390139  0.64924961  1
  O  O336  1  0.13282977  0.26173553  0.24306824  1
  O  O337  1  0.09335092  0.24044814  0.74963265  1
  O  O338  1  0.10779949  0.74151989  0.26141943  1
  O  O339  1  0.10295502  0.71670733  0.76143368  1
  O  O340  1  0.62085204  0.26054390  0.23473058  1
  O  O341  1  0.60252925  0.28239020  0.74831570  1
  O  O342  1  0.61428598  0.70924487  0.23330380  1
  O  O343  1  0.63118943  0.75413197  0.76980740  1
  O  O344  1  0.39309693  0.28677485  0.21191561  1
  O  O345  1  0.39060616  0.21662369  0.74597753  1
  O  O346  1  0.36548916  0.74817160  0.21561105  1
  O  O347  1  0.37116076  0.76696899  0.76746441  1
  O  O348  1  0.88184860  0.27545117  0.25539858  1
  O  O349  1  0.87687834  0.27422508  0.73203773  1
  O  O350  1  0.88802257  0.73813018  0.24582610  1
  O  O351  1  0.93298164  0.74122663  0.80201938  1
  O  O352  1  0.39717897  0.51528286  0.48970748  1
  O  O353  1  0.35325493  0.47999444  0.97557692  1
  O  O354  1  0.39156573  1.04842193  0.42916845  1
  O  O355  1  0.37051438  0.99406423  0.98778645  1
  O  O356  1  0.87999165  0.48476589  0.49727091  1
  O  O357  1  0.88832933  0.50363345  0.99804350  1
  O  O358  1  0.79600532  1.05197982  0.52219610  1
  O  O359  1  0.91140778  0.98573795  0.99976585  1
  O  O360  1  0.18967194  0.04933009  -0.03827064  1
  O  O361  1  0.08551250  -0.05692502  0.53280975  1
  O  O362  1  0.10143064  0.48006786  0.02082547  1
  O  O363  1  0.12330188  0.50143593  0.49253566  1
  O  O364  1  0.63729661  0.00201415  0.01787119  1
  O  O365  1  0.62167977  -0.05797432  0.46447110  1
  O  O366  1  0.61370205  0.51573200  -0.02399064  1
  O  O367  1  0.62986533  0.53402859  0.50528008  1
  O  O368  1  0.35121897  0.39131592  0.10412737  1
  O  O369  1  0.42916502  0.34124488  0.55747955  1
  O  O370  1  0.37111863  0.91589116  0.11106827  1
  O  O371  1  0.38247844  0.90928010  0.64910635  1
  O  O372  1  0.84744790  0.41747699  0.13728180  1
  O  O373  1  0.85503859  0.38273630  0.61275949  1
  O  O374  1  0.88768368  0.85108589  0.11164863  1
  O  O375  1  0.87796332  0.87718491  0.66366575  1
  O  O376  1  0.08814313  0.07152900  0.41857678  1
  O  O377  1  0.06246170  0.16412433  0.90137687  1
  O  O378  1  0.13546752  0.61818227  0.38484990  1
  O  O379  1  0.05782566  0.66111381  0.90209844  1
  O  O380  1  0.63541798  0.14341007  0.38108968  1
  O  O381  1  0.64685065  0.10293490  0.90435415  1
  O  O382  1  0.64639603  0.65848415  0.38845573  1
  O  O383  1  0.61885445  0.63779665  0.87755878  1
