# generated using pymatgen
data_VZnO4
_symmetry_space_group_name_H-M   'P 1'
_cell_length_a   16.85651850
_cell_length_b   16.87996274
_cell_length_c   16.87588872
_cell_angle_alpha   90.05417818
_cell_angle_beta   89.96534052
_cell_angle_gamma   89.82906176
_symmetry_Int_Tables_number   1
_chemical_formula_structural   VZnO4
_chemical_formula_sum   'V64 Zn64 O256'
_cell_volume   4801.79716798
_cell_formula_units_Z   64
loop_
 _symmetry_equiv_pos_site_id
 _symmetry_equiv_pos_as_xyz
  1  'x, y, z'
loop_
 _atom_site_type_symbol
 _atom_site_label
 _atom_site_symmetry_multiplicity
 _atom_site_fract_x
 _atom_site_fract_y
 _atom_site_fract_z
 _atom_site_occupancy
  V  V0  1  0.61006537  0.12305021  0.02203559  1
  V  V1  1  0.77793982  0.37376505  0.11905318  1
  V  V2  1  0.24093012  0.25819167  0.49693620  1
  V  V3  1  0.12004374  0.63204379  0.50515886  1
  V  V4  1  0.24159051  0.24903718  -0.00591172  1
  V  V5  1  0.50186378  0.60704768  0.62417305  1
  V  V6  1  0.22874696  0.38918631  0.11327223  1
  V  V7  1  0.24858515  0.64318920  0.38788692  1
  V  V8  1  0.25631316  0.37429033  0.64775330  1
  V  V9  1  0.88414271  0.49306465  0.88492414  1
  V  V10  1  0.75056221  0.49370110  0.74885281  1
  V  V11  1  0.50123422  0.61466939  0.11476540  1
  V  V12  1  0.24373847  0.00492205  0.23190958  1
  V  V13  1  0.75946707  0.49786644  0.25701123  1
  V  V14  1  0.12440535  0.87382712  0.22895342  1
  V  V15  1  0.59998425  0.23781386  0.36632003  1
  V  V16  1  0.86643280  0.87893681  0.51084431  1
  V  V17  1  0.00677604  0.00844733  0.49803934  1
  V  V18  1  0.36701084  0.64405461  0.24400404  1
  V  V19  1  -0.00528013  0.73754132  0.25034236  1
  V  V20  1  0.11738553  0.12274214  0.02165492  1
  V  V21  1  0.87621247  0.36937167  0.49608396  1
  V  V22  1  0.38131932  -0.01355075  0.37941046  1
  V  V23  1  0.11970993  0.49429816  0.64100656  1
  V  V24  1  0.77057784  0.24841662  -0.00450455  1
  V  V25  1  0.25030488  0.49445888  0.27323564  1
  V  V26  1  0.87275564  0.64347832  0.75797394  1
  V  V27  1  0.48523912  0.39813086  0.37617751  1
  V  V28  1  0.61002663  0.37491674  0.23198944  1
  V  V29  1  -0.00225268  0.86927850  0.87496189  1
  V  V30  1  0.38734547  0.23566732  0.62341133  1
  V  V31  1  0.37991253  0.38195358  -0.00165046  1
  V  V32  1  0.75566836  0.13632193  0.37972534  1
  V  V33  1  0.36277900  0.50008617  0.86444336  1
  V  V34  1  -0.01462302  0.25356699  0.74827651  1
  V  V35  1  0.01116185  0.61178020  0.10479609  1
  V  V36  1  0.37285627  0.75211994  0.61344353  1
  V  V37  1  0.11609902  0.23150408  0.86478324  1
  V  V38  1  0.51197099  0.75616759  0.75578548  1
  V  V39  1  0.51136272  0.37690768  0.85616298  1
  V  V40  1  0.87367792  0.00146279  0.37240683  1
  V  V41  1  0.01350718  0.24925483  0.24664906  1
  V  V42  1  0.86844831  0.01149042  0.86536805  1
  V  V43  1  0.74719166  -0.00023128  0.22760550  1
  V  V44  1  0.25315010  0.87034719  0.61795387  1
  V  V45  1  0.00228266  0.65137344  0.64035133  1
  V  V46  1  0.35129697  0.11332715  0.75949980  1
  V  V47  1  0.62741131  0.60694941  -0.01298365  1
  V  V48  1  0.76181597  0.73202011  0.47971194  1
  V  V49  1  0.36343137  0.62734013  0.75499176  1
  V  V50  1  0.12073540  0.37629185  0.27971228  1
  V  V51  1  0.00833319  0.86593014  0.37646187  1
  V  V52  1  0.13501570  0.00713517  0.63285385  1
  V  V53  1  0.37794334  0.87129099  -0.00661815  1
  V  V54  1  -0.01599173  0.12119056  0.63498558  1
  V  V55  1  0.23987530  0.11452428  0.39390061  1
  V  V56  1  -0.00575830  0.00213761  0.01478909  1
  V  V57  1  0.13381992  0.86476659  0.76078975  1
  V  V58  1  0.59774401  0.74635491  0.32075870  1
  V  V59  1  0.51239926  -0.00270547  0.51403565  1
  V  V60  1  0.73375361  0.75406912  -0.00531804  1
  V  V61  1  0.36816309  0.23565407  0.12370775  1
  V  V62  1  0.86511514  0.74266818  0.12264082  1
  V  V63  1  0.89107389  0.13137146  0.23434297  1
  Zn  Zn64  1  0.20477736  0.19644422  0.19726578  1
  Zn  Zn65  1  0.19092390  0.18679947  0.68335220  1
  Zn  Zn66  1  0.17415628  0.67598724  0.19953046  1
  Zn  Zn67  1  0.18552080  0.68978721  0.69009486  1
  Zn  Zn68  1  0.69557563  0.19466835  0.18929624  1
  Zn  Zn69  1  0.68922190  0.31625562  0.68855375  1
  Zn  Zn70  1  0.68328898  0.66872218  0.17815703  1
  Zn  Zn71  1  0.66302475  0.64240070  0.70950523  1
  Zn  Zn72  1  0.31335656  0.29967331  0.31409114  1
  Zn  Zn73  1  0.32724212  0.29482657  0.81385275  1
  Zn  Zn74  1  0.29843438  0.81868084  0.31560601  1
  Zn  Zn75  1  0.31875597  0.81800895  0.80641900  1
  Zn  Zn76  1  0.81908940  0.31629247  0.29815185  1
  Zn  Zn77  1  0.81922060  0.32007618  0.82091104  1
  Zn  Zn78  1  0.78162525  0.81905683  0.31257831  1
  Zn  Zn79  1  0.81595286  0.81275113  0.83196538  1
  Zn  Zn80  1  0.18666059  0.44470737  0.45870403  1
  Zn  Zn81  1  0.20110888  0.40140698  0.89059922  1
  Zn  Zn82  1  0.18785401  0.93315841  0.44076731  1
  Zn  Zn83  1  0.18545647  0.94213703  0.94424067  1
  Zn  Zn84  1  0.67645886  0.41698582  0.42243817  1
  Zn  Zn85  1  0.69983882  0.43315285  0.93347555  1
  Zn  Zn86  1  0.64403324  0.88081217  0.44894827  1
  Zn  Zn87  1  0.71472665  0.95630704  0.99178334  1
  Zn  Zn88  1  0.30649625  0.05599071  0.03404551  1
  Zn  Zn89  1  0.32469454  0.05609198  0.55957016  1
  Zn  Zn90  1  0.32573734  0.55333899  0.07544193  1
  Zn  Zn91  1  0.31345624  0.56125845  0.56527335  1
  Zn  Zn92  1  0.81616736  0.07797316  0.05467789  1
  Zn  Zn93  1  0.77423996  0.14993143  0.59243046  1
  Zn  Zn94  1  0.81251292  0.56415144  0.06783254  1
  Zn  Zn95  1  0.82363692  0.56119195  0.57798510  1
  Zn  Zn96  1  0.42516789  0.43915378  0.18593935  1
  Zn  Zn97  1  0.43306767  0.42997038  0.68511921  1
  Zn  Zn98  1  0.41158687  0.92961899  0.18875738  1
  Zn  Zn99  1  0.44420435  0.94130605  0.68818131  1
  Zn  Zn100  1  0.94392658  0.43958847  0.19075284  1
  Zn  Zn101  1  0.97074719  0.45997602  0.74437663  1
  Zn  Zn102  1  0.91324622  0.92215856  0.19457065  1
  Zn  Zn103  1  0.94014595  0.93528075  0.69518416  1
  Zn  Zn104  1  0.06850745  0.06147797  0.30671470  1
  Zn  Zn105  1  0.05914941  0.05529661  0.81380405  1
  Zn  Zn106  1  0.06914034  0.56135756  0.31634634  1
  Zn  Zn107  1  0.07278891  0.57557562  0.82171209  1
  Zn  Zn108  1  0.59125913  0.02974133  0.35101997  1
  Zn  Zn109  1  0.57578711  0.21901951  0.81326609  1
  Zn  Zn110  1  0.56648862  0.56182151  0.30073408  1
  Zn  Zn111  1  0.55391533  0.55527766  0.81611801  1
  Zn  Zn112  1  0.42745418  0.16715940  0.43988864  1
  Zn  Zn113  1  0.43898017  0.18482734  0.93276229  1
  Zn  Zn114  1  0.43262080  0.69970782  0.42166912  1
  Zn  Zn115  1  0.44606391  0.68119611  0.93432445  1
  Zn  Zn116  1  0.95604439  0.18382395  0.42575527  1
  Zn  Zn117  1  0.93775585  0.17966249  0.93448102  1
  Zn  Zn118  1  0.94292967  0.69428732  0.45392953  1
  Zn  Zn119  1  0.93277744  0.68647245  0.94376607  1
  Zn  Zn120  1  0.05313754  0.31380313  0.05544237  1
  Zn  Zn121  1  0.06900537  0.30915933  0.57620494  1
  Zn  Zn122  1  0.01845688  0.82758106  0.07452833  1
  Zn  Zn123  1  0.06790358  0.81966499  0.56274444  1
  Zn  Zn124  1  0.55080403  0.29669300  0.06127399  1
  Zn  Zn125  1  0.55012760  0.29932434  0.53761876  1
  Zn  Zn126  1  0.55021461  0.78928520  0.07418877  1
  Zn  Zn127  1  0.56346777  0.78557262  0.55959875  1
  O  O128  1  0.13209147  0.13510671  0.11855637  1
  O  O129  1  0.12314122  0.10838064  0.62610573  1
  O  O130  1  0.11149639  0.61671784  0.12928736  1
  O  O131  1  0.11644439  0.62144386  0.62762602  1
  O  O132  1  0.61911292  0.14356023  0.12198254  1
  O  O133  1  0.70492873  0.05830083  0.62667453  1
  O  O134  1  0.60145301  0.60019547  0.12761621  1
  O  O135  1  0.59927667  0.62657323  0.60891381  1
  O  O136  1  0.38916158  0.37220269  0.35000995  1
  O  O137  1  0.37567331  0.38018364  0.87992423  1
  O  O138  1  0.36063652  0.88582595  0.38030530  1
  O  O139  1  0.37847913  0.88614007  0.88936779  1
  O  O140  1  0.88608001  0.37330127  0.39030174  1
  O  O141  1  0.88702368  0.39142833  0.87899665  1
  O  O142  1  0.88953493  0.89157130  0.37545788  1
  O  O143  1  0.89335639  0.88328023  0.87580688  1
  O  O144  1  0.25307780  0.00250978  0.38165690  1
  O  O145  1  0.27212732  0.01284660  0.93229010  1
  O  O146  1  0.25186045  0.49579582  0.37430266  1
  O  O147  1  0.26154339  0.49031822  0.86341652  1
  O  O148  1  0.77157542  0.01075905  0.36251300  1
  O  O149  1  0.77329558  -0.01344335  0.89886093  1
  O  O150  1  0.73587837  0.48797409  0.35903692  1
  O  O151  1  0.76940255  0.49744739  0.86509232  1
  O  O152  1  0.24426402  0.48869870  0.12954333  1
  O  O153  1  0.26161675  0.47724458  0.62340053  1
  O  O154  1  0.25515973  1.00894820  0.13320137  1
  O  O155  1  0.24092902  0.98817749  0.61756364  1
  O  O156  1  0.75853320  0.47961633  0.12910244  1
  O  O157  1  0.76114658  0.49876814  0.64636858  1
  O  O158  1  0.75392339  1.00687666  0.12593947  1
  O  O159  1  0.68388558  1.05583097  0.70378429  1
  O  O160  1  0.01625378  0.37147058  0.25555990  1
  O  O161  1  0.00463287  0.35122776  0.73965691  1
  O  O162  1  0.00748736  0.87139334  0.26305926  1
  O  O163  1  0.01573788  0.87805981  0.76450369  1
  O  O164  1  0.50451899  0.38351910  0.24648809  1
  O  O165  1  0.50753174  0.37800825  0.75464601  1
  O  O166  1  0.51785385  0.88014108  0.20844637  1
  O  O167  1  0.49894437  0.85686759  0.74186690  1
  O  O168  1  0.48325638  0.09108493  0.19351078  1
  O  O169  1  0.51195292  0.11828241  0.77506087  1
  O  O170  1  0.46905631  0.61542416  0.23592288  1
  O  O171  1  0.49175652  0.62814683  0.73716412  1
  O  O172  1  1.00280422  0.13530475  0.24689840  1
  O  O173  1  0.99850178  0.12386582  0.73842145  1
  O  O174  1  1.00554492  0.63756385  0.26027275  1
  O  O175  1  1.00130036  0.63552008  0.74562590  1
  O  O176  1  0.35315073  0.26368810  -0.00474357  1
  O  O177  1  0.36132985  0.23182208  0.51706569  1
  O  O178  1  0.37659898  0.76499164  -0.01706115  1
  O  O179  1  0.37638669  0.74522987  0.51468216  1
  O  O180  1  0.87127936  0.23882379  0.00522776  1
  O  O181  1  0.88638399  0.26417924  0.48584447  1
  O  O182  1  0.85019560  0.73812133  0.01182906  1
  O  O183  1  0.86945019  0.76672457  0.50575359  1
  O  O184  1  0.14026685  0.25110910  0.50618442  1
  O  O185  1  0.12217505  0.23963498  0.99002536  1
  O  O186  1  0.12805317  0.73266996  0.51333224  1
  O  O187  1  0.13835927  0.75692461  1.01871136  1
  O  O188  1  0.62491340  0.25239977  0.46461879  1
  O  O189  1  0.63250647  0.24908407  0.98822839  1
  O  O190  1  0.66158537  0.76200653  0.50073999  1
  O  O191  1  0.62834372  0.73330222  1.01550953  1
  O  O192  1  0.46731188  0.25252836  0.12570514  1
  O  O193  1  0.48662388  0.24677194  0.61418427  1
  O  O194  1  0.47424210  0.71336017  0.11565943  1
  O  O195  1  0.48500063  0.73894435  0.62881626  1
  O  O196  1  1.00929650  0.26058041  0.14328533  1
  O  O197  1  1.00928239  0.22963705  0.63624294  1
  O  O198  1  1.00083586  0.73077489  0.13735071  1
  O  O199  1  1.00341359  0.75038954  0.63171627  1
  O  O200  1  0.01193265  0.24656620  0.35361794  1
  O  O201  1  0.00709165  0.23762447  0.86064937  1
  O  O202  1  -0.00798537  0.76027438  0.36944269  1
  O  O203  1  0.00033431  0.77089685  0.89426564  1
  O  O204  1  0.50029745  0.22498281  0.36582817  1
  O  O205  1  0.48980943  0.27098699  0.87181498  1
  O  O206  1  0.50452746  0.76142432  0.36356376  1
  O  O207  1  0.50265287  0.74096497  0.85573469  1
  O  O208  1  0.24715416  0.12233741  0.49796319  1
  O  O209  1  0.23334984  0.14615754  0.99589015  1
  O  O210  1  0.24462135  0.62251035  0.49343940  1
  O  O211  1  0.24237851  0.61350689  0.98567211  1
  O  O212  1  0.75834853  0.12699060  0.47898078  1
  O  O213  1  0.73707553  0.14588098  1.01077484  1
  O  O214  1  0.77137538  0.63840290  0.51449054  1
  O  O215  1  0.73160507  0.63475078  1.01778910  1
  O  O216  1  0.24273859  0.37604815  0.00371653  1
  O  O217  1  0.25588934  0.35934081  0.49626460  1
  O  O218  1  0.27295728  0.87398251  -0.00178220  1
  O  O219  1  0.24129313  0.86728230  0.51885909  1
  O  O220  1  0.75389401  0.36499936  0.01191809  1
  O  O221  1  0.77278258  0.36636029  0.47910782  1
  O  O222  1  0.72858299  0.85129027  0.02514119  1
  O  O223  1  0.76733213  0.87675448  0.48779549  1
  O  O224  1  0.13271188  0.48616314  0.26005357  1
  O  O225  1  0.13859879  0.51416774  0.73950154  1
  O  O226  1  0.13098369  0.98427911  0.24937783  1
  O  O227  1  0.12221376  0.99191024  0.73559762  1
  O  O228  1  0.63262208  0.47776629  0.24630461  1
  O  O229  1  0.64926826  0.52926490  0.75432354  1
  O  O230  1  0.65083578  0.99583889  0.25410663  1
  O  O231  1  0.54015868  1.04212766  0.78485815  1
  O  O232  1  0.34829093  -0.01423156  0.26046975  1
  O  O233  1  0.38040811  0.01575596  0.74508240  1
  O  O234  1  0.34880725  0.50798401  0.24841562  1
  O  O235  1  0.37513613  0.51243934  0.75534117  1
  O  O236  1  0.89717048  0.01659928  0.26279247  1
  O  O237  1  0.86865271  -0.00893466  0.76409635  1
  O  O238  1  0.86115163  0.48053636  0.25830941  1
  O  O239  1  0.86721590  0.51104117  0.75987105  1
  O  O240  1  0.12621857  0.37963521  0.37857983  1
  O  O241  1  0.09148391  0.36281446  0.89473569  1
  O  O242  1  0.10966684  0.87370691  0.37898498  1
  O  O243  1  0.12588019  0.88814492  0.86504934  1
  O  O244  1  0.59745606  0.36017525  0.36036554  1
  O  O245  1  0.60969703  0.38285949  0.87745204  1
  O  O246  1  0.66300980  0.82805950  0.34554604  1
  O  O247  1  0.66092379  0.90359094  0.78729451  1
  O  O248  1  0.35840065  0.13925980  0.09432629  1
  O  O249  1  0.36971015  0.12864431  0.63683805  1
  O  O250  1  0.32049518  0.64101177  0.15086194  1
  O  O251  1  0.37387878  0.63484253  0.63753818  1
  O  O252  1  0.88544434  0.12356775  0.13675070  1
  O  O253  1  0.88564036  0.12063524  0.62237390  1
  O  O254  1  0.89188753  0.63662203  0.12280521  1
  O  O255  1  0.89895080  0.62373189  0.63965359  1
  O  O256  1  0.24270791  0.26635619  0.10416341  1
  O  O257  1  0.24988367  0.26094154  0.61714511  1
  O  O258  1  0.19137703  0.73809131  0.06579662  1
  O  O259  1  0.26160768  0.75795034  0.63175828  1
  O  O260  1  0.75245472  0.26593500  0.11728107  1
  O  O261  1  0.75317506  0.25497297  0.61981261  1
  O  O262  1  0.76615837  0.74569178  0.14385268  1
  O  O263  1  0.74691625  0.78612118  0.63588102  1
  O  O264  1  0.25836178  0.23066674  0.39002786  1
  O  O265  1  0.22705703  0.27474709  0.88495025  1
  O  O266  1  0.23692424  0.74087934  0.37854774  1
  O  O267  1  0.26820200  0.76763827  0.89126383  1
  O  O268  1  0.76298544  0.23576620  0.36091078  1
  O  O269  1  0.75902069  0.25970622  0.89467288  1
  O  O270  1  0.78239669  0.72687870  0.38047789  1
  O  O271  1  0.73898048  0.75903016  0.89390697  1
  O  O272  1  0.01022380  0.11852465  0.00614661  1
  O  O273  1  0.00052881  0.11234142  0.50788570  1
  O  O274  1  0.01118617  0.62950642  0.00515526  1
  O  O275  1  0.01086282  0.62870137  0.52199254  1
  O  O276  1  0.50776910  0.13268012  0.00529646  1
  O  O277  1  0.50629253  0.09785940  0.49102267  1
  O  O278  1  0.51282195  0.61744977  0.00309556  1
  O  O279  1  0.46632990  0.60897860  0.50986943  1
  O  O280  1  0.49041331  0.37479976  0.47514138  1
  O  O281  1  0.48030381  0.37169086  0.99834834  1
  O  O282  1  0.53421370  0.88104607  0.50616935  1
  O  O283  1  0.48420275  0.85707550  0.99933307  1
  O  O284  1  0.98060106  0.37147728  0.51125789  1
  O  O285  1  1.04838547  0.38371797  0.95952583  1
  O  O286  1  0.99231901  0.87722901  0.49075577  1
  O  O287  1  1.01894895  0.89669955  0.98465788  1
  O  O288  1  0.50004595  0.49790976  0.36935136  1
  O  O289  1  0.48100221  0.48375239  0.87064337  1
  O  O290  1  0.47922006  0.99514288  0.35152796  1
  O  O291  1  0.57527659  1.02597711  0.84980879  1
  O  O292  1  0.96730062  0.53625740  0.38506373  1
  O  O293  1  0.99114917  0.50343778  0.85316652  1
  O  O294  1  1.00384230  0.99631618  0.38744172  1
  O  O295  1  0.98923346  0.99650365  0.88201126  1
  O  O296  1  -0.01164591  -0.01325764  0.11257423  1
  O  O297  1  0.00648350  0.00691933  0.61851670  1
  O  O298  1  -0.00802221  0.51352858  0.12247529  1
  O  O299  1  0.01786045  0.49450352  0.64199506  1
  O  O300  1  0.48933465  0.02914410  0.15458483  1
  O  O301  1  0.51409591  -0.00278413  0.61471980  1
  O  O302  1  0.43917860  0.52772289  0.11222621  1
  O  O303  1  0.49368946  0.50737535  0.62883469  1
  O  O304  1  0.23682224  0.38326357  0.24533412  1
  O  O305  1  0.25124143  0.36602534  0.74745100  1
  O  O306  1  0.23034122  0.87827104  0.24336687  1
  O  O307  1  0.24186270  0.87738941  0.74320729  1
  O  O308  1  0.74364960  0.37507088  0.23285949  1
  O  O309  1  0.74534068  0.38609488  0.75666588  1
  O  O310  1  0.79194421  0.90460249  0.23946186  1
  O  O311  1  0.73226905  0.89909645  0.77056876  1
  O  O312  1  0.23704464  0.10539751  0.26164312  1
  O  O313  1  0.25033974  0.11642118  0.75161415  1
  O  O314  1  0.23594493  0.61256583  0.27515095  1
  O  O315  1  0.26449653  0.63364070  0.75333362  1
  O  O316  1  0.77311173  0.11455636  0.24935027  1
  O  O317  1  0.71172080  0.10839144  0.74999326  1
  O  O318  1  0.74845474  0.59658471  0.23608004  1
  O  O319  1  0.77127963  0.62391132  0.74175143  1
  O  O320  1  0.35618331  0.10059979  0.37783526  1
  O  O321  1  0.36810744  0.13638006  0.85997471  1
  O  O322  1  0.35413750  0.63256978  0.36468267  1
  O  O323  1  0.37913792  0.61102735  0.86637888  1
  O  O324  1  0.87718439  0.11738799  0.37030324  1
  O  O325  1  0.87364124  0.11256585  0.86864486  1
  O  O326  1  0.91232559  0.58753109  0.39282206  1
  O  O327  1  0.88449666  0.62454920  0.86065046  1
  O  O328  1  0.12923186  0.38065422  0.12002480  1
  O  O329  1  0.14039985  0.38578407  0.62637115  1
  O  O330  1  0.11155942  0.87562196  0.13129266  1
  O  O331  1  0.13521106  0.87845895  0.63798932  1
  O  O332  1  0.61322256  0.36265291  0.13125408  1
  O  O333  1  0.62781315  0.38457788  0.58797573  1
  O  O334  1  0.56419523  0.88506066  0.14717428  1
  O  O335  1  0.70089315  0.84321354  0.63561123  1
  O  O336  1  0.12746894  0.26757289  0.25124145  1
  O  O337  1  0.12295779  0.24259688  0.76334974  1
  O  O338  1  0.11179330  0.76364768  0.24684787  1
  O  O339  1  0.13139455  0.76413570  0.75928516  1
  O  O340  1  0.63142607  0.26456000  0.25969094  1
  O  O341  1  0.61915290  0.23690977  0.71443995  1
  O  O342  1  0.60313617  0.74320289  0.21811679  1
  O  O343  1  0.61154345  0.74011138  0.73502658  1
  O  O344  1  0.33115259  0.23646329  0.22076371  1
  O  O345  1  0.37401013  0.22913162  0.73569440  1
  O  O346  1  0.36473639  0.74413490  0.25667687  1
  O  O347  1  0.38392077  0.73967691  0.74662561  1
  O  O348  1  0.89331743  0.23836257  0.25167789  1
  O  O349  1  0.88595954  0.24994467  0.75546784  1
  O  O350  1  0.89207169  0.75441778  0.24285036  1
  O  O351  1  0.86876509  0.74491459  0.75634273  1
  O  O352  1  0.41202210  0.54980549  0.49815440  1
  O  O353  1  0.36247599  0.48631966  0.98301587  1
  O  O354  1  0.39708317  0.98989124  0.49250406  1
  O  O355  1  0.39409396  0.97530824  1.00546022  1
  O  O356  1  0.87434169  0.47211790  0.50632841  1
  O  O357  1  0.87690873  0.51717359  0.98292822  1
  O  O358  1  0.89116760  0.99278016  0.48625001  1
  O  O359  1  0.89111399  1.01212969  0.99394386  1
  O  O360  1  0.11777693  0.01741743  0.00437023  1
  O  O361  1  0.11009321  -0.01413819  0.51589396  1
  O  O362  1  0.17602006  0.58872058  -0.04462276  1
  O  O363  1  0.13273341  0.51676322  0.52812167  1
  O  O364  1  0.62774718  0.02389778  0.00787646  1
  O  O365  1  0.61162544  -0.00809520  0.45857015  1
  O  O366  1  0.63719855  0.50750918  -0.00269928  1
  O  O367  1  0.64577402  0.44225063  0.54032467  1
  O  O368  1  0.35791628  0.37052926  0.10812762  1
  O  O369  1  0.36422410  0.35350123  0.63394259  1
  O  O370  1  0.37457782  0.86630010  0.10066340  1
  O  O371  1  0.36376543  0.86389047  0.63153207  1
  O  O372  1  0.87739072  0.36915835  0.12474765  1
  O  O373  1  0.85761341  0.35390912  0.59681415  1
  O  O374  1  0.90378571  0.84340134  0.11267644  1
  O  O375  1  0.87604398  0.89231773  0.60927893  1
  O  O376  1  0.13876725  0.11464106  0.38079376  1
  O  O377  1  0.12434722  0.13086844  0.88076937  1
  O  O378  1  0.12968846  0.61586279  0.39798705  1
  O  O379  1  0.15331685  0.62987503  0.88906658  1
  O  O380  1  0.64482383  0.13520130  0.35507867  1
  O  O381  1  0.62083172  0.19204181  0.92661542  1
  O  O382  1  0.62283523  0.65063131  0.34754695  1
  O  O383  1  0.62067169  0.62108630  0.88795860  1
