# generated using pymatgen
data_VZnO4
_symmetry_space_group_name_H-M   'P 1'
_cell_length_a   16.92366773
_cell_length_b   16.87597865
_cell_length_c   16.89364140
_cell_angle_alpha   90.14345200
_cell_angle_beta   90.00611718
_cell_angle_gamma   89.88020059
_symmetry_Int_Tables_number   1
_chemical_formula_structural   VZnO4
_chemical_formula_sum   'V64 Zn64 O256'
_cell_volume   4824.85666183
_cell_formula_units_Z   64
loop_
 _symmetry_equiv_pos_site_id
 _symmetry_equiv_pos_as_xyz
  1  'x, y, z'
loop_
 _atom_site_type_symbol
 _atom_site_label
 _atom_site_symmetry_multiplicity
 _atom_site_fract_x
 _atom_site_fract_y
 _atom_site_fract_z
 _atom_site_occupancy
  V  V0  1  0.88334357  -0.02262029  0.87682367  1
  V  V1  1  0.36994352  0.13186302  0.73808415  1
  V  V2  1  0.62915077  0.12272468  -0.00665995  1
  V  V3  1  0.25993248  -0.00973689  0.24760251  1
  V  V4  1  0.12337903  0.61404927  0.00164756  1
  V  V5  1  0.00980306  0.87024777  0.37527154  1
  V  V6  1  0.64031293  0.63374279  -0.00059135  1
  V  V7  1  0.48690438  0.36142953  0.88873389  1
  V  V8  1  0.00119175  0.49713348  0.00855381  1
  V  V9  1  0.64123776  0.74144379  0.85598663  1
  V  V10  1  0.85801924  0.76692690  0.11985028  1
  V  V11  1  0.37175983  -0.01206433  0.39659206  1
  V  V12  1  0.24230374  0.13274083  0.37732259  1
  V  V13  1  0.63379700  0.49769323  0.11900926  1
  V  V14  1  0.50404450  0.85550011  0.86817169  1
  V  V15  1  0.75579097  0.12287030  0.86808106  1
  V  V16  1  0.26225201  0.25257392  0.01722674  1
  V  V17  1  0.75132978  0.36584393  0.13426690  1
  V  V18  1  0.11512109  0.12986106  0.51265375  1
  V  V19  1  -0.01654742  0.12427009  0.12305152  1
  V  V20  1  0.87440426  0.36786011  0.00757608  1
  V  V21  1  0.12058577  -0.01560138  0.63059675  1
  V  V22  1  0.88365207  0.86123883  0.50238581  1
  V  V23  1  0.86361080  0.51100917  0.88140458  1
  V  V24  1  0.25818426  0.12564075  0.87875553  1
  V  V25  1  0.11304887  0.75615064  0.87438377  1
  V  V26  1  0.86366554  0.61648834  0.72695005  1
  V  V27  1  0.89617991  0.12415997  0.74622920  1
  V  V28  1  0.12111609  0.13101355  -0.00166439  1
  V  V29  1  0.40110357  0.61698707  0.75053319  1
  V  V30  1  0.37344151  0.74921234  0.13112447  1
  V  V31  1  0.12506626  -0.01444044  0.13382125  1
  V  V32  1  0.84243545  0.62956707  0.25065837  1
  V  V33  1  -0.00280528  0.74013982  0.73057930  1
  V  V34  1  0.25095258  -0.01505762  0.75369501  1
  V  V35  1  0.25055376  0.74490265  0.00105466  1
  V  V36  1  0.26558753  0.63869814  0.37770347  1
  V  V37  1  0.59941679  0.62207255  0.49426920  1
  V  V38  1  0.14962437  0.37992624  0.73225009  1
  V  V39  1  0.64338681  0.76548005  0.38050537  1
  V  V40  1  0.00346100  -0.02330163  -0.00334803  1
  V  V41  1  0.49436364  0.13118388  0.12110173  1
  V  V42  1  0.50017821  0.23976590  0.26296699  1
  V  V43  1  0.49702821  0.61625958  0.12414389  1
  V  V44  1  0.00315405  0.63011225  0.14134261  1
  V  V45  1  0.50379042  0.24852151  0.74353661  1
  V  V46  1  0.61735230  0.48463737  0.62571389  1
  V  V47  1  0.53868312  0.01437422  0.55819096  1
  V  V48  1  0.86125472  0.12896307  0.26964194  1
  V  V49  1  0.74301088  -0.01918972  0.75119811  1
  V  V50  1  0.00453710  0.25349661  0.25443624  1
  V  V51  1  0.84216438  0.50759550  0.37449458  1
  V  V52  1  0.25548868  0.61066844  0.86698287  1
  V  V53  1  0.50626053  0.76091072  0.25526678  1
  V  V54  1  0.62473974  0.37073784  0.26839610  1
  V  V55  1  0.36977583  0.87525238  -0.00535428  1
  V  V56  1  0.18274486  0.44093242  0.19447356  1
  V  V57  1  0.00269156  0.35674773  0.87642501  1
  V  V58  1  0.24075718  0.76625348  0.51101744  1
  V  V59  1  0.75286565  0.24183785  0.00067675  1
  V  V60  1  0.39244490  0.76620566  0.63508141  1
  V  V61  1  0.62577409  -0.02085599  0.12039731  1
  V  V62  1  0.74525094  -0.00221268  0.24741847  1
  V  V63  1  0.49836892  -0.00277363  -0.01380491  1
  Zn  Zn64  1  0.18267893  0.17221545  0.18842018  1
  Zn  Zn65  1  0.18065310  0.19377467  0.68882014  1
  Zn  Zn66  1  0.20653084  0.64487774  0.17698586  1
  Zn  Zn67  1  0.18722008  0.69299184  0.69137124  1
  Zn  Zn68  1  0.67934085  0.18337773  0.18597644  1
  Zn  Zn69  1  0.66813668  0.33257099  0.71420296  1
  Zn  Zn70  1  0.68027784  0.70320435  0.18404708  1
  Zn  Zn71  1  0.67555187  0.66429760  0.66439659  1
  Zn  Zn72  1  0.30962536  0.29684197  0.29420397  1
  Zn  Zn73  1  0.30988426  0.31109257  0.82623975  1
  Zn  Zn74  1  0.30664714  0.81594208  0.31588901  1
  Zn  Zn75  1  0.31515076  0.79735147  0.81558951  1
  Zn  Zn76  1  0.83992360  0.32572001  0.30721969  1
  Zn  Zn77  1  0.83005224  0.31027157  0.81049774  1
  Zn  Zn78  1  0.82442273  0.81601778  0.31319881  1
  Zn  Zn79  1  0.82213242  0.79884319  0.80599019  1
  Zn  Zn80  1  0.21303890  0.44250456  0.36470191  1
  Zn  Zn81  1  0.19133786  0.42483930  0.93140420  1
  Zn  Zn82  1  0.18745773  0.94330902  0.44320731  1
  Zn  Zn83  1  0.18717531  0.93853319  0.93597569  1
  Zn  Zn84  1  0.68348727  0.44663556  0.45654078  1
  Zn  Zn85  1  0.68581040  0.43162523  0.94016834  1
  Zn  Zn86  1  0.66840578  0.94959646  0.44545546  1
  Zn  Zn87  1  0.68594851  0.92960389  0.92704296  1
  Zn  Zn88  1  0.30875116  0.06012081  0.06592482  1
  Zn  Zn89  1  0.29525469  0.06577241  0.56533140  1
  Zn  Zn90  1  0.30652737  0.55847919  0.07279700  1
  Zn  Zn91  1  0.32379088  0.62680014  0.56535550  1
  Zn  Zn92  1  0.80400397  0.02797492  0.04955830  1
  Zn  Zn93  1  0.83926872  0.02040306  0.58851930  1
  Zn  Zn94  1  0.81714508  0.56134779  0.07082354  1
  Zn  Zn95  1  0.78740642  0.57217538  0.55164107  1
  Zn  Zn96  1  0.45774051  0.43518429  0.19939828  1
  Zn  Zn97  1  0.45031430  0.44849231  0.71286727  1
  Zn  Zn98  1  0.43752535  0.93616315  0.17772717  1
  Zn  Zn99  1  0.43023527  0.94480573  0.69581046  1
  Zn  Zn100  1  0.93702506  0.44820770  0.19892782  1
  Zn  Zn101  1  0.97427936  0.45824989  0.72064836  1
  Zn  Zn102  1  0.93384877  0.94484668  0.19463138  1
  Zn  Zn103  1  0.94436605  0.92754099  0.69417582  1
  Zn  Zn104  1  0.06074699  0.05559083  0.31943493  1
  Zn  Zn105  1  0.07015108  0.05266957  0.81653694  1
  Zn  Zn106  1  0.09357791  0.57292247  0.31610733  1
  Zn  Zn107  1  0.06102007  0.56166197  0.81639235  1
  Zn  Zn108  1  0.55230859  0.04143011  0.29985526  1
  Zn  Zn109  1  0.55494838  0.05179373  0.76917242  1
  Zn  Zn110  1  0.59678039  0.57708820  0.29998068  1
  Zn  Zn111  1  0.59255225  0.55697867  0.80802458  1
  Zn  Zn112  1  0.45538851  0.13451462  0.42348389  1
  Zn  Zn113  1  0.43658254  0.18835190  0.93667755  1
  Zn  Zn114  1  0.42558140  0.69857281  0.43656749  1
  Zn  Zn115  1  0.44166996  0.67738691  0.93972469  1
  Zn  Zn116  1  0.95246756  0.17450649  0.43311253  1
  Zn  Zn117  1  0.93203407  0.17694405  0.94175756  1
  Zn  Zn118  1  0.92058020  0.69880637  0.42689402  1
  Zn  Zn119  1  0.93323007  0.68886925  0.94823948  1
  Zn  Zn120  1  0.06469150  0.31067209  0.07624419  1
  Zn  Zn121  1  0.19176428  0.30729716  0.55043756  1
  Zn  Zn122  1  0.06259474  0.80039329  0.07111748  1
  Zn  Zn123  1  0.06234444  0.81533049  0.55959220  1
  Zn  Zn124  1  0.56951957  0.30746246  0.06049116  1
  Zn  Zn125  1  0.51750406  0.34404673  0.58240201  1
  Zn  Zn126  1  0.55571150  0.80397876  0.05464276  1
  Zn  Zn127  1  0.54032167  0.82036666  0.53823945  1
  O  O128  1  0.11156821  0.10744785  0.11418608  1
  O  O129  1  0.12789461  0.11775889  0.61900046  1
  O  O130  1  0.11151360  0.63458162  0.11370490  1
  O  O131  1  0.11208945  0.61263771  0.63862728  1
  O  O132  1  0.61866641  0.11499407  0.10823521  1
  O  O133  1  0.63433341  0.21280052  0.54021521  1
  O  O134  1  0.62252465  0.61518446  0.11886692  1
  O  O135  1  0.59500499  0.59137667  0.61412109  1
  O  O136  1  0.37518443  0.35990422  0.38745054  1
  O  O137  1  0.38761720  0.37707274  0.88199147  1
  O  O138  1  0.37595624  0.88971889  0.37254706  1
  O  O139  1  0.38748445  0.85737500  0.89026124  1
  O  O140  1  0.87944543  0.41088738  0.36664893  1
  O  O141  1  0.88064425  0.38060561  0.89755219  1
  O  O142  1  0.88633981  0.86828082  0.39296237  1
  O  O143  1  0.87460334  0.87918616  0.87703539  1
  O  O144  1  0.25935799  -0.00292534  0.36488937  1
  O  O145  1  0.24053120  0.01328180  0.86789226  1
  O  O146  1  0.19241532  0.55259336  0.37147613  1
  O  O147  1  0.24919618  0.51360868  0.88937398  1
  O  O148  1  0.70700424  0.02593460  0.35517503  1
  O  O149  1  0.76866432  0.00185860  0.87509478  1
  O  O150  1  0.74262213  0.49817692  0.37019461  1
  O  O151  1  0.76516689  0.49372089  0.88549313  1
  O  O152  1  0.35958230  0.41962764  0.13972257  1
  O  O153  1  0.15080317  0.56284371  0.58858782  1
  O  O154  1  0.23507087  1.00394131  0.13501841  1
  O  O155  1  0.24546585  0.99964247  0.64795630  1
  O  O156  1  0.73894045  0.48794163  0.12645976  1
  O  O157  1  0.71113223  0.48245364  0.56921232  1
  O  O158  1  0.73337534  1.00320338  0.13781625  1
  O  O159  1  0.74519650  1.00431573  0.65389552  1
  O  O160  1  -0.01593205  0.35186931  0.23218650  1
  O  O161  1  -0.02747037  0.35845083  0.77870673  1
  O  O162  1  -0.00671887  0.88741931  0.27075127  1
  O  O163  1  -0.01671874  0.83918954  0.75369492  1
  O  O164  1  0.51565778  0.35610980  0.25406598  1
  O  O165  1  0.48817607  0.35479157  0.76356474  1
  O  O166  1  0.49961914  0.85977884  0.23601622  1
  O  O167  1  0.49013278  0.87603702  0.77272048  1
  O  O168  1  0.51353487  0.13043044  0.22932272  1
  O  O169  1  0.47957813  0.13525188  0.76369466  1
  O  O170  1  0.51455477  0.63761005  0.22965549  1
  O  O171  1  0.49822305  0.61414973  0.77236825  1
  O  O172  1  0.98068921  0.12333971  0.23789626  1
  O  O173  1  0.99423452  0.11846032  0.76576099  1
  O  O174  1  1.01948486  0.61899620  0.24042990  1
  O  O175  1  0.98688770  0.63067924  0.75869720  1
  O  O176  1  0.36198228  0.24225566  0.00536642  1
  O  O177  1  0.41049570  0.32211185  0.44648719  1
  O  O178  1  0.36846435  0.75077344  0.00541219  1
  O  O179  1  0.37023927  0.74549660  0.52663638  1
  O  O180  1  0.86465882  0.25631493  0.00547375  1
  O  O181  1  0.88870718  0.25059951  0.49918510  1
  O  O182  1  0.87337357  0.74806654  0.02070401  1
  O  O183  1  0.87286382  0.76108238  0.51320315  1
  O  O184  1  0.11604780  0.23236606  0.50573230  1
  O  O185  1  0.12839096  0.23202500  1.01190465  1
  O  O186  1  0.14105355  0.75009023  0.50796111  1
  O  O187  1  0.13372165  0.73870441  0.99635277  1
  O  O188  1  0.65753146  0.18558630  0.47727534  1
  O  O189  1  0.64188109  0.23603853  1.00050825  1
  O  O190  1  0.60880127  0.75089515  0.48251703  1
  O  O191  1  0.63057843  0.73638318  1.00028614  1
  O  O192  1  0.50648094  0.23391071  0.12170849  1
  O  O193  1  0.48353935  0.25423267  0.64351975  1
  O  O194  1  0.49023714  0.74078902  0.12935986  1
  O  O195  1  0.49335709  0.76659745  0.62764824  1
  O  O196  1  0.99489754  0.22804766  0.12504350  1
  O  O197  1  0.94269673  0.29983209  0.60054742  1
  O  O198  1  0.98908652  0.73358083  0.12826852  1
  O  O199  1  1.01101731  0.73829792  0.63195718  1
  O  O200  1  -0.00463453  0.24609024  0.35518194  1
  O  O201  1  -0.00383021  0.25940138  0.89914334  1
  O  O202  1  -0.00317514  0.76467322  0.37504474  1
  O  O203  1  0.01378086  0.74450409  0.88905216  1
  O  O204  1  0.50561504  0.21766144  0.36095148  1
  O  O205  1  0.49931780  0.25544968  0.87048546  1
  O  O206  1  0.48374979  0.75043332  0.35293901  1
  O  O207  1  0.50967471  0.75157930  0.87833359  1
  O  O208  1  0.23525853  0.12693056  0.48853943  1
  O  O209  1  0.23773650  0.12118682  0.99746725  1
  O  O210  1  0.24850451  0.63512141  0.48784077  1
  O  O211  1  0.24360485  0.62729997  0.99792953  1
  O  O212  1  0.82981394  0.21489420  0.54454135  1
  O  O213  1  0.74881789  0.12427814  0.99862432  1
  O  O214  1  0.70334282  0.65129985  0.54846833  1
  O  O215  1  0.73864092  0.61971981  1.01008695  1
  O  O216  1  0.24208641  0.35093998  -0.00020667  1
  O  O217  1  0.22451497  0.38671108  0.46414022  1
  O  O218  1  0.26293013  0.86321836  -0.00752168  1
  O  O219  1  0.25027709  0.86527255  0.50573219  1
  O  O220  1  0.75404800  0.36259113  0.00735786  1
  O  O221  1  0.74761122  0.33501872  0.46887728  1
  O  O222  1  0.75726310  0.92457439  0.01306506  1
  O  O223  1  0.77737876  0.91733992  0.48566783  1
  O  O224  1  0.22944408  0.52756674  0.15355981  1
  O  O225  1  0.08602048  0.47308576  0.74355478  1
  O  O226  1  0.12022028  0.99796242  0.23493021  1
  O  O227  1  0.14138616  1.00032362  0.74678345  1
  O  O228  1  0.61845197  0.48103180  0.23744786  1
  O  O229  1  0.63796286  0.49347599  0.72458847  1
  O  O230  1  0.62585588  0.99312722  0.22767190  1
  O  O231  1  0.64534140  0.98961411  0.77992443  1
  O  O232  1  0.36092789  -0.00263689  0.23782691  1
  O  O233  1  0.35943347  0.01764253  0.75536987  1
  O  O234  1  0.42849340  0.49002527  0.31032442  1
  O  O235  1  0.37314329  0.51823847  0.75139283  1
  O  O236  1  0.85515583  0.01803463  0.24314663  1
  O  O237  1  0.87646949  -0.00057524  0.76718302  1
  O  O238  1  0.87285910  0.52242440  0.25771996  1
  O  O239  1  0.88352238  0.51189416  0.77094943  1
  O  O240  1  0.10806899  0.47304142  0.25468441  1
  O  O241  1  0.10207589  0.37795318  0.87802084  1
  O  O242  1  0.10968548  0.88203548  0.38763735  1
  O  O243  1  0.13012383  0.85416189  0.88199714  1
  O  O244  1  0.63064599  0.37897595  0.36558882  1
  O  O245  1  0.60444897  0.39823780  0.86368565  1
  O  O246  1  0.62393847  0.86700392  0.38276468  1
  O  O247  1  0.61528495  0.85261819  0.87865074  1
  O  O248  1  0.39624961  0.11456968  0.11508471  1
  O  O249  1  0.36532600  0.12607145  0.63963475  1
  O  O250  1  0.38894274  0.63025888  0.12008972  1
  O  O251  1  0.39848337  0.62770941  0.64390633  1
  O  O252  1  0.88585670  0.10777383  0.10958113  1
  O  O253  1  0.88387520  0.10603509  0.64614697  1
  O  O254  1  0.88329236  0.62703773  0.14087108  1
  O  O255  1  0.87466830  0.59899873  0.62969460  1
  O  O256  1  0.24823558  0.23362621  0.11735735  1
  O  O257  1  0.25509388  0.23966835  0.61435911  1
  O  O258  1  0.26540290  0.73293616  0.11490034  1
  O  O259  1  0.26041287  0.73516768  0.61802664  1
  O  O260  1  0.74429416  0.26060287  0.11800040  1
  O  O261  1  0.79026821  0.26464291  0.58544050  1
  O  O262  1  0.75651838  0.75996829  0.12699349  1
  O  O263  1  0.72229769  0.79878454  0.61875048  1
  O  O264  1  0.24218957  0.23249544  0.35943810  1
  O  O265  1  0.24781560  0.23054218  0.89410576  1
  O  O266  1  0.26644339  0.74916271  0.39935347  1
  O  O267  1  0.24030045  0.73532753  0.88630237  1
  O  O268  1  0.76268043  0.28802149  0.41273206  1
  O  O269  1  0.76253627  0.22934271  0.88674736  1
  O  O270  1  0.74229996  0.76009996  0.37826209  1
  O  O271  1  0.73872979  0.75193437  0.87183715  1
  O  O272  1  0.00887776  0.11569824  0.00695515  1
  O  O273  1  0.01543592  0.10884606  0.49694080  1
  O  O274  1  0.00707579  0.61550580  0.00918355  1
  O  O275  1  0.01132540  0.61495339  0.47101840  1
  O  O276  1  0.50849435  0.11639107  0.00039676  1
  O  O277  1  0.49539208  0.10036415  0.52247858  1
  O  O278  1  0.51441670  0.62809365  0.01644805  1
  O  O279  1  0.50069595  0.63965954  0.50028102  1
  O  O280  1  0.47618445  0.35993842  0.47207690  1
  O  O281  1  0.50579274  0.36407335  0.98901958  1
  O  O282  1  0.50609237  0.92477746  0.51930808  1
  O  O283  1  0.49100120  0.87695771  0.99073649  1
  O  O284  1  0.98459930  0.41995949  0.53998555  1
  O  O285  1  0.99121360  0.37896000  1.01097568  1
  O  O286  1  0.99029139  0.87576997  0.49324441  1
  O  O287  1  1.00530492  0.87887254  1.00448450  1
  O  O288  1  0.48453287  0.50949071  0.35517465  1
  O  O289  1  0.54477439  0.46165608  0.86618386  1
  O  O290  1  0.47059217  1.02264876  0.37182423  1
  O  O291  1  0.50639540  0.98603445  0.88540455  1
  O  O292  1  1.02503102  0.55802302  0.42328487  1
  O  O293  1  0.98749539  0.49073205  0.89554601  1
  O  O294  1  0.98516804  0.98318498  0.36153312  1
  O  O295  1  0.99732928  0.98998715  0.88606136  1
  O  O296  1  0.00552008  0.00182226  0.11451831  1
  O  O297  1  0.02117183  -0.00305176  0.64490751  1
  O  O298  1  -0.00873020  0.51324487  0.11736482  1
  O  O299  1  -0.04385649  0.46534573  0.59073394  1
  O  O300  1  0.51082535  0.00352210  0.11269651  1
  O  O301  1  0.52163455  0.00694036  0.66286883  1
  O  O302  1  0.51111589  0.51020691  0.12925411  1
  O  O303  1  0.50791867  0.45983023  0.61593063  1
  O  O304  1  0.24734531  0.39145029  0.26657873  1
  O  O305  1  0.23878089  0.38748683  0.78121552  1
  O  O306  1  0.24524404  0.88951543  0.25222590  1
  O  O307  1  0.25991679  0.88667949  0.76870573  1
  O  O308  1  0.74129506  0.36333935  0.23939807  1
  O  O309  1  0.75758263  0.37344326  0.75907835  1
  O  O310  1  0.75822742  0.90186455  0.26778390  1
  O  O311  1  0.76245540  0.88143806  0.75498161  1
  O  O312  1  0.23393502  0.10314811  0.26566500  1
  O  O313  1  0.25375108  0.12898983  0.76728663  1
  O  O314  1  0.24112152  0.66417206  0.27866203  1
  O  O315  1  0.24202245  0.61980560  0.76718598  1
  O  O316  1  0.75685881  0.12380068  0.24566919  1
  O  O317  1  0.76014660  0.11156691  0.76816094  1
  O  O318  1  0.74302998  0.62269130  0.24288850  1
  O  O319  1  0.76322726  0.62317358  0.73471807  1
  O  O320  1  0.34859856  0.11272178  0.38327955  1
  O  O321  1  0.35949347  0.11690329  0.88347493  1
  O  O322  1  0.36268166  0.61672729  0.37632568  1
  O  O323  1  0.36285521  0.63159543  0.86723063  1
  O  O324  1  0.86627484  0.12486084  0.36856218  1
  O  O325  1  0.86935027  0.10854125  0.87486020  1
  O  O326  1  0.86460964  0.62752075  0.35596148  1
  O  O327  1  0.87031583  0.61137954  0.89102984  1
  O  O328  1  0.14027671  0.38055211  0.12716040  1
  O  O329  1  0.16732397  0.38808331  0.63221504  1
  O  O330  1  0.12232401  0.88568545  0.11951721  1
  O  O331  1  0.12677932  0.88320973  0.62786977  1
  O  O332  1  0.63546192  0.38326394  0.12252929  1
  O  O333  1  0.62594874  0.36883807  0.61415911  1
  O  O334  1  0.62068155  0.88075329  0.11243209  1
  O  O335  1  0.67179360  0.85135536  0.61161725  1
  O  O336  1  0.10356312  0.23985430  0.23890759  1
  O  O337  1  0.12334104  0.28103388  0.73924441  1
  O  O338  1  0.12025069  0.77570553  0.24149059  1
  O  O339  1  0.10961783  0.73759871  0.76619596  1
  O  O340  1  0.61917011  0.26061947  0.24790495  1
  O  O341  1  0.60467088  0.24201604  0.74576679  1
  O  O342  1  0.61498187  0.75227160  0.26616561  1
  O  O343  1  0.63320880  0.72639969  0.75712537  1
  O  O344  1  0.40138347  0.25393920  0.24594272  1
  O  O345  1  0.37008938  0.23495286  0.76100181  1
  O  O346  1  0.37798025  0.75611891  0.23303242  1
  O  O347  1  0.37198341  0.73275961  0.74140692  1
  O  O348  1  0.87579555  0.23369182  0.24955021  1
  O  O349  1  0.87619669  0.22256117  0.75689874  1
  O  O350  1  0.86564252  0.73537514  0.23994241  1
  O  O351  1  0.88204520  0.72590557  0.74277342  1
  O  O352  1  0.28677439  0.44379058  0.50224787  1
  O  O353  1  0.36172957  0.47320282  1.01552339  1
  O  O354  1  0.35895056  0.99548709  0.49578240  1
  O  O355  1  0.37951970  0.98065555  1.00639608  1
  O  O356  1  0.85932887  0.53024984  0.47299353  1
  O  O357  1  0.87967493  0.49077594  1.00021603  1
  O  O358  1  0.82247543  0.98771053  0.47759697  1
  O  O359  1  0.89668546  0.99795256  0.98826507  1
  O  O360  1  0.11542475  0.00124704  0.00612386  1
  O  O361  1  0.13818164  0.00607744  0.52533162  1
  O  O362  1  0.11619811  0.50643504  -0.00152198  1
  O  O363  1  0.10865726  0.51239906  0.55355563  1
  O  O364  1  0.61541716  0.00243429  0.00419298  1
  O  O365  1  0.63726173  0.01731431  0.53092952  1
  O  O366  1  0.62688823  0.50603323  0.01428470  1
  O  O367  1  0.59673436  0.52120786  0.47316859  1
  O  O368  1  0.37973247  0.41122574  0.05983505  1
  O  O369  1  0.31717830  0.41748314  0.56441598  1
  O  O370  1  0.38044136  0.85642603  0.10756505  1
  O  O371  1  0.37074759  0.86408347  0.64269987  1
  O  O372  1  0.85542470  0.38519309  0.12134888  1
  O  O373  1  0.88568915  0.32816943  0.63435789  1
  O  O374  1  0.87920200  0.86481137  0.13440259  1
  O  O375  1  0.87977590  0.90658817  0.60049496  1
  O  O376  1  0.13315889  0.10664349  0.39082920  1
  O  O377  1  0.12727422  0.11964427  0.89481220  1
  O  O378  1  0.11100669  0.73639931  0.30191857  1
  O  O379  1  0.13256533  0.62772691  0.88668439  1
  O  O380  1  0.64917640  0.08345418  0.35840241  1
  O  O381  1  0.64681802  0.11174840  0.88775131  1
  O  O382  1  0.62384418  0.64484263  0.38580430  1
  O  O383  1  0.62651912  0.63158203  0.88927673  1
