# generated using pymatgen
data_VZnO4
_symmetry_space_group_name_H-M   'P 1'
_cell_length_a   16.99268797
_cell_length_b   17.01434403
_cell_length_c   16.97694744
_cell_angle_alpha   89.89739423
_cell_angle_beta   89.82769052
_cell_angle_gamma   90.06385685
_symmetry_Int_Tables_number   1
_chemical_formula_structural   VZnO4
_chemical_formula_sum   'V64 Zn64 O256'
_cell_volume   4908.33237485
_cell_formula_units_Z   64
loop_
 _symmetry_equiv_pos_site_id
 _symmetry_equiv_pos_as_xyz
  1  'x, y, z'
loop_
 _atom_site_type_symbol
 _atom_site_label
 _atom_site_symmetry_multiplicity
 _atom_site_fract_x
 _atom_site_fract_y
 _atom_site_fract_z
 _atom_site_occupancy
  V  V0  1  0.75973389  0.20322382  -0.02929754  1
  V  V1  1  0.11445840  0.62316079  -0.01279274  1
  V  V2  1  0.11015294  0.48453914  0.64017930  1
  V  V3  1  0.13634388  0.61007798  0.51215270  1
  V  V4  1  0.87477922  0.29413668  0.62178436  1
  V  V5  1  0.11539503  0.92645610  0.74875821  1
  V  V6  1  0.60634961  -0.00691816  0.61699478  1
  V  V7  1  0.38801825  0.24456638  0.61152725  1
  V  V8  1  0.47910587  0.74224089  0.25468188  1
  V  V9  1  0.49996755  0.24037904  0.74257428  1
  V  V10  1  0.12859664  0.50774460  0.12120934  1
  V  V11  1  0.87685444  0.86582799  -0.01728859  1
  V  V12  1  0.77801357  0.74952161  0.50640299  1
  V  V13  1  0.61952850  0.64618002  0.49793907  1
  V  V14  1  0.61756037  0.86101133  0.74493483  1
  V  V15  1  0.62386869  -0.00875361  0.11465076  1
  V  V16  1  0.48731958  0.62290382  0.12274107  1
  V  V17  1  0.36999513  0.75897968  0.09386320  1
  V  V18  1  0.81385112  0.82833814  0.18469851  1
  V  V19  1  0.74217243  0.50546163  0.74609109  1
  V  V20  1  0.74898402  -0.01328996  0.25828754  1
  V  V21  1  0.61318956  0.51960793  0.62510366  1
  V  V22  1  0.75513380  0.75418375  0.01164449  1
  V  V23  1  0.49248015  0.36855171  0.87348823  1
  V  V24  1  -0.01943631  0.10536767  0.13936850  1
  V  V25  1  0.74273250  0.21820764  0.48622214  1
  V  V26  1  0.11684456  0.11835200  -0.00781117  1
  V  V27  1  0.61253005  0.86147101  0.25195424  1
  V  V28  1  0.87328622  0.48387453  0.88291314  1
  V  V29  1  0.87253407  0.25505113  0.10940137  1
  V  V30  1  0.62421888  0.26696856  0.34163347  1
  V  V31  1  0.62213228  0.37822164  0.75227241  1
  V  V32  1  0.26587606  0.37919470  0.64042139  1
  V  V33  1  0.74727429  0.00434094  0.75400274  1
  V  V34  1  0.14391724  0.76504444  0.43267660  1
  V  V35  1  0.06338201  0.31227488  0.91173407  1
  V  V36  1  0.24729540  0.24656108  0.01308183  1
  V  V37  1  0.76543278  0.87275937  0.62229697  1
  V  V38  1  0.13231188  -0.00728253  0.11665014  1
  V  V39  1  0.25577145  0.60971172  0.37720513  1
  V  V40  1  0.24885792  -0.00281752  0.26311483  1
  V  V41  1  -0.00529143  0.11398126  0.61005474  1
  V  V42  1  0.12768504  0.84740915  0.22110445  1
  V  V43  1  0.27500516  0.27111305  0.48204902  1
  V  V44  1  0.08068273  0.77599301  0.86184840  1
  V  V45  1  -0.00891032  -0.01801543  -0.01262394  1
  V  V46  1  0.01262129  0.87452735  0.42620328  1
  V  V47  1  -0.00850060  0.63411531  0.13932921  1
  V  V48  1  0.37139538  0.38158420  0.05114900  1
  V  V49  1  -0.00845330  0.63167199  0.61559345  1
  V  V50  1  0.24964109  0.64528825  0.87201361  1
  V  V51  1  0.47071454  0.89312298  0.36514071  1
  V  V52  1  0.50511707  0.12329958  0.12849890  1
  V  V53  1  0.50556780  0.49885981  -0.00061338  1
  V  V54  1  0.47929877  0.88441306  0.88168520  1
  V  V55  1  0.88054954  0.63133662  0.74420782  1
  V  V56  1  0.36151792  0.49412382  0.86751161  1
  V  V57  1  0.12700187  0.39439827  0.26365517  1
  V  V58  1  0.62119661  0.75572654  0.87851544  1
  V  V59  1  0.49825202  0.49880157  0.49296228  1
  V  V60  1  0.76536170  0.63015511  0.36719344  1
  V  V61  1  0.75087190  0.63000631  0.87718920  1
  V  V62  1  0.62531204  0.62495806  0.00829198  1
  V  V63  1  0.10920564  0.20887720  0.38656382  1
  Zn  Zn64  1  0.17891052  0.18324384  0.19601332  1
  Zn  Zn65  1  0.12803919  0.31090017  0.74446970  1
  Zn  Zn66  1  0.20978000  0.66393511  0.16821176  1
  Zn  Zn67  1  0.14163689  0.63740686  0.73675724  1
  Zn  Zn68  1  0.66164980  0.21047529  0.13760857  1
  Zn  Zn69  1  0.72485274  0.21775359  0.76831451  1
  Zn  Zn70  1  0.68045432  0.69104915  0.19019387  1
  Zn  Zn71  1  0.69200555  0.69203264  0.68592883  1
  Zn  Zn72  1  0.30892890  0.35922859  0.28958673  1
  Zn  Zn73  1  0.31646807  0.28541284  0.82087411  1
  Zn  Zn74  1  0.29697726  0.80144637  0.30728297  1
  Zn  Zn75  1  0.29053179  0.84357728  0.80095513  1
  Zn  Zn76  1  0.77584419  0.19871835  0.27780704  1
  Zn  Zn77  1  0.89210049  0.24470608  0.82112947  1
  Zn  Zn78  1  0.81729929  0.84410181  0.35509969  1
  Zn  Zn79  1  0.80966973  0.81115353  0.80697581  1
  Zn  Zn80  1  0.18812119  0.43195134  0.44733151  1
  Zn  Zn81  1  0.19005386  0.42790641  0.96212426  1
  Zn  Zn82  1  0.15382041  1.01199180  0.45133176  1
  Zn  Zn83  1  0.17471428  0.96916483  0.90117740  1
  Zn  Zn84  1  0.72553776  0.43211848  0.42878161  1
  Zn  Zn85  1  0.68502995  0.43954391  0.92821456  1
  Zn  Zn86  1  0.67636821  0.91996926  0.43631626  1
  Zn  Zn87  1  0.69525842  0.93539208  0.93586749  1
  Zn  Zn88  1  0.32387621  0.06903308  0.13764797  1
  Zn  Zn89  1  0.29441263  0.09215664  0.54514410  1
  Zn  Zn90  1  0.30553120  0.56595260  0.04385700  1
  Zn  Zn91  1  0.31212390  0.54607566  0.56970794  1
  Zn  Zn92  1  0.80369014  0.04021858  0.06486492  1
  Zn  Zn93  1  0.78760369  0.13130492  0.63405628  1
  Zn  Zn94  1  0.82489786  0.57010311  0.05658486  1
  Zn  Zn95  1  0.80716278  0.55481947  0.55529050  1
  Zn  Zn96  1  0.48354776  0.44265802  0.20046476  1
  Zn  Zn97  1  0.44072365  0.45193719  0.69241013  1
  Zn  Zn98  1  0.43658710  0.93156487  0.17394778  1
  Zn  Zn99  1  0.43722339  0.88960763  0.68316435  1
  Zn  Zn100  1  0.96394610  0.43597013  0.04929350  1
  Zn  Zn101  1  0.93253930  0.44753144  0.69804668  1
  Zn  Zn102  1  0.95335728  0.91629723  0.18885603  1
  Zn  Zn103  1  0.93795116  0.95230870  0.69586965  1
  Zn  Zn104  1  0.05815555  0.03719395  0.30963284  1
  Zn  Zn105  1  0.06358770  0.13174099  0.80398886  1
  Zn  Zn106  1  0.10414746  0.59986673  0.29318514  1
  Zn  Zn107  1  0.08142914  0.50876993  0.84847598  1
  Zn  Zn108  1  0.55587464  0.06340196  0.29954522  1
  Zn  Zn109  1  0.51902546  0.03001784  0.75912459  1
  Zn  Zn110  1  0.56629663  0.58137233  0.32109642  1
  Zn  Zn111  1  0.55170193  0.57006859  0.81695806  1
  Zn  Zn112  1  0.45974120  0.33205157  0.42331363  1
  Zn  Zn113  1  0.35916434  0.12899105  0.96699188  1
  Zn  Zn114  1  0.43379372  0.68309833  0.44791138  1
  Zn  Zn115  1  0.43522670  0.68046347  0.91235481  1
  Zn  Zn116  1  0.94502106  0.23396295  0.47293798  1
  Zn  Zn117  1  0.94240792  0.15923999  0.94298778  1
  Zn  Zn118  1  0.95215924  0.69099839  0.43032626  1
  Zn  Zn119  1  0.93349384  0.68270706  0.93131543  1
  Zn  Zn120  1  0.07438793  0.29962064  0.10884021  1
  Zn  Zn121  1  0.08670577  0.28843494  0.56601397  1
  Zn  Zn122  1  0.06460681  0.79947610  0.04930830  1
  Zn  Zn123  1  0.05255760  0.83261547  0.62555588  1
  Zn  Zn124  1  0.57458967  0.29082168  0.01355224  1
  Zn  Zn125  1  0.58005633  0.32399813  0.57021998  1
  Zn  Zn126  1  0.54875239  0.81576766  0.05833495  1
  Zn  Zn127  1  0.55791668  0.83897111  0.53869288  1
  O  O128  1  0.10770849  0.10247464  0.11336914  1
  O  O129  1  0.12017733  0.22177713  0.65816319  1
  O  O130  1  0.11106934  0.63372754  0.09842248  1
  O  O131  1  0.10927078  0.61160274  0.62468698  1
  O  O132  1  0.61751552  0.10089838  0.12656598  1
  O  O133  1  0.60833113  0.08763429  0.60919747  1
  O  O134  1  0.61766817  0.63513923  0.11170921  1
  O  O135  1  0.62600885  0.62539997  0.62019573  1
  O  O136  1  0.40345669  0.39993791  0.33307002  1
  O  O137  1  0.38605467  0.37753334  0.87180659  1
  O  O138  1  0.37335757  0.87046275  0.35437987  1
  O  O139  1  0.38598247  0.85520261  0.86920674  1
  O  O140  1  0.88649038  0.38242848  0.29708798  1
  O  O141  1  0.84476181  0.39223359  0.87227457  1
  O  O142  1  0.91896579  0.87706735  0.39251180  1
  O  O143  1  0.86915475  0.87053382  0.88394907  1
  O  O144  1  0.24686841  0.00562048  0.35988310  1
  O  O145  1  0.31671672  0.02868287  0.92320380  1
  O  O146  1  0.25220918  0.50956753  0.38848364  1
  O  O147  1  0.26558018  0.47293954  0.88601220  1
  O  O148  1  0.75421586  -0.05299775  0.35865711  1
  O  O149  1  0.73637144  -0.00173669  0.85307484  1
  O  O150  1  0.74933396  0.53036421  0.37084890  1
  O  O151  1  0.75027613  0.51654384  0.87292529  1
  O  O152  1  0.22730368  0.54919820  0.12956971  1
  O  O153  1  0.24129930  0.48186906  0.63784977  1
  O  O154  1  0.22992205  0.99899617  0.10134062  1
  O  O155  1  0.28194587  0.91308327  0.57119222  1
  O  O156  1  0.74654310  0.50351727  0.14076917  1
  O  O157  1  0.73344551  0.51377103  0.64470513  1
  O  O158  1  0.73064438  0.98943653  0.13892633  1
  O  O159  1  0.72317159  0.97243193  0.62908302  1
  O  O160  1  0.05734486  0.33786749  0.21692726  1
  O  O161  1  -0.01031100  0.35116469  0.73031254  1
  O  O162  1  0.03535038  0.87210810  0.25956442  1
  O  O163  1  0.01539941  0.87902682  0.72901307  1
  O  O164  1  0.59818588  0.43341084  0.23307470  1
  O  O165  1  0.50681187  0.38157410  0.75952795  1
  O  O166  1  0.49321847  0.85853113  0.25117505  1
  O  O167  1  0.51652027  0.85796243  0.76920218  1
  O  O168  1  0.49238177  0.13347519  0.22626268  1
  O  O169  1  0.51684976  0.14405846  0.74905513  1
  O  O170  1  0.50316790  0.63111910  0.23364518  1
  O  O171  1  0.47433940  0.64591752  0.81178988  1
  O  O172  1  0.99663070  0.09811271  0.23892563  1
  O  O173  1  1.06909816  0.16056363  0.68120441  1
  O  O174  1  1.01218261  0.63230940  0.23873871  1
  O  O175  1  0.98065447  0.61918739  0.73938670  1
  O  O176  1  0.34531308  0.27872263  0.04328645  1
  O  O177  1  0.39051355  0.28104210  0.50654640  1
  O  O178  1  0.38536337  0.73773927  -0.00304230  1
  O  O179  1  0.40186406  0.75650254  0.54067466  1
  O  O180  1  0.86856012  0.22168224  -0.00160726  1
  O  O181  1  0.83889179  0.26076469  0.51902275  1
  O  O182  1  0.86359386  0.75283067  -0.00670438  1
  O  O183  1  0.87584889  0.74450255  0.50851170  1
  O  O184  1  0.15208448  0.25723910  0.47421238  1
  O  O185  1  0.07785639  0.20884877  0.97667837  1
  O  O186  1  0.13949002  0.72584838  0.52711467  1
  O  O187  1  0.11388631  0.74206694  0.96066635  1
  O  O188  1  0.61955781  0.19069993  0.42686238  1
  O  O189  1  0.66383730  0.24043606  0.96416371  1
  O  O190  1  0.61711099  0.74502856  0.50837962  1
  O  O191  1  0.63713798  0.74816281  0.99600811  1
  O  O192  1  0.53946751  0.21870728  0.09525984  1
  O  O193  1  0.50007847  0.26452337  0.63418470  1
  O  O194  1  0.48882382  0.73613856  0.12285296  1
  O  O195  1  0.45548284  0.77923932  0.59007294  1
  O  O196  1  0.97970778  0.21300272  0.11711873  1
  O  O197  1  0.97311338  0.29538060  0.57036955  1
  O  O198  1  0.99850046  0.73208798  0.11169225  1
  O  O199  1  1.00084338  0.72810999  0.62757161  1
  O  O200  1  0.01175749  0.23621883  0.38237925  1
  O  O201  1  -0.03064799  0.30746851  0.88463771  1
  O  O202  1  0.03860077  0.76588826  0.39890743  1
  O  O203  1  -0.01693307  0.75576690  0.86016425  1
  O  O204  1  0.52591671  0.28866171  0.33810333  1
  O  O205  1  0.49786584  0.26696606  0.85567811  1
  O  O206  1  0.48257719  0.73873644  0.35498385  1
  O  O207  1  0.52203510  0.76299659  0.89048679  1
  O  O208  1  0.28090793  0.17243174  0.46432695  1
  O  O209  1  0.22143155  0.14006822  1.01117147  1
  O  O210  1  0.24019205  0.61298725  0.50522504  1
  O  O211  1  0.22898536  0.63151155  0.98374218  1
  O  O212  1  0.74922326  0.12633257  0.52740735  1
  O  O213  1  0.75420606  0.10388000  0.98221413  1
  O  O214  1  0.74304245  0.64305680  0.50405076  1
  O  O215  1  0.74592778  0.63250378  0.99796430  1
  O  O216  1  0.27943469  0.41561697  0.05078087  1
  O  O217  1  0.23969514  0.37142555  0.53129774  1
  O  O218  1  0.26486587  0.91528806  -0.03230761  1
  O  O219  1  0.31331034  0.88055920  0.51545929  1
  O  O220  1  0.71789438  0.38949923  0.03128076  1
  O  O221  1  0.67509074  0.27754062  0.53327244  1
  O  O222  1  0.76321296  0.86396145  -0.00007501  1
  O  O223  1  0.74983141  0.86006635  0.51317743  1
  O  O224  1  0.11469275  0.49809658  0.23492035  1
  O  O225  1  0.12015844  0.51179154  0.73777796  1
  O  O226  1  0.13742484  0.99233925  0.22820451  1
  O  O227  1  0.09197859  1.02310285  0.75292850  1
  O  O228  1  0.63070958  0.49805040  0.25772451  1
  O  O229  1  0.62500203  0.51421963  0.74971654  1
  O  O230  1  0.63437904  0.98596039  0.25077029  1
  O  O231  1  0.62685960  0.97377084  0.73898084  1
  O  O232  1  0.34455667  -0.01748938  0.22070409  1
  O  O233  1  0.30766497  0.08264882  0.75744514  1
  O  O234  1  0.42232302  0.46926969  0.29430610  1
  O  O235  1  0.37337946  0.50201642  0.76926039  1
  O  O236  1  0.84204452  -0.06532602  0.23062962  1
  O  O237  1  0.84630297  -0.00003024  0.73912795  1
  O  O238  1  0.91160100  0.44775941  0.27997315  1
  O  O239  1  0.85201419  0.50987568  0.75646892  1
  O  O240  1  0.11852963  0.39431096  0.36516459  1
  O  O241  1  0.10690774  0.39993230  0.87253715  1
  O  O242  1  0.15024124  0.86213002  0.44313422  1
  O  O243  1  0.09510720  0.87768289  0.86103957  1
  O  O244  1  0.66702525  0.35208741  0.37885392  1
  O  O245  1  0.60601170  0.38721119  0.86519642  1
  O  O246  1  0.59805716  0.87343278  0.35490649  1
  O  O247  1  0.63636819  0.86142670  0.86765214  1
  O  O248  1  0.40569473  0.11574247  0.07428330  1
  O  O249  1  0.38167708  0.14613933  0.60098975  1
  O  O250  1  0.38710840  0.62431523  0.11350932  1
  O  O251  1  0.37978731  0.61919783  0.63283068  1
  O  O252  1  0.88130307  0.09451099  0.12847742  1
  O  O253  1  0.90198497  0.14678782  0.63396283  1
  O  O254  1  0.89077065  0.61750695  0.13046873  1
  O  O255  1  0.88144769  0.60955588  0.63040323  1
  O  O256  1  0.18888188  0.25271542  0.10446208  1
  O  O257  1  0.28274234  0.26206520  0.60802200  1
  O  O258  1  0.27259355  0.74095927  0.11490364  1
  O  O259  1  0.33514003  0.67545993  0.67134417  1
  O  O260  1  0.76059641  0.23419794  0.08306996  1
  O  O261  1  0.79473721  0.24799388  0.67596665  1
  O  O262  1  0.75379265  0.75539441  0.12257964  1
  O  O263  1  0.75268897  0.76114988  0.61855678  1
  O  O264  1  0.28591634  0.31538257  0.39341931  1
  O  O265  1  0.19636943  0.31118569  0.95768418  1
  O  O266  1  0.23101270  0.73768174  0.38194362  1
  O  O267  1  0.26262149  0.74314689  0.86064022  1
  O  O268  1  0.76671472  0.22155007  0.38656259  1
  O  O269  1  0.78623976  0.22493379  0.86445126  1
  O  O270  1  0.75674298  0.75498812  0.40236630  1
  O  O271  1  0.74608426  0.74170855  0.88698294  1
  O  O272  1  -0.00190493  0.09023515  0.01459585  1
  O  O273  1  0.01493175  0.14318460  0.51638091  1
  O  O274  1  0.01142388  0.62118903  -0.01801759  1
  O  O275  1  0.00662085  0.62216005  0.51221689  1
  O  O276  1  0.55017875  0.11553618  -0.06129964  1
  O  O277  1  0.46785643  0.06274157  0.48936975  1
  O  O278  1  0.50711380  0.61779543  0.00618854  1
  O  O279  1  0.51605094  0.62112376  0.49980903  1
  O  O280  1  0.51624488  0.39323756  0.50240712  1
  O  O281  1  0.49588741  0.37406241  0.98952880  1
  O  O282  1  0.48373871  0.87587035  0.46339327  1
  O  O283  1  0.50274193  0.88332487  0.98035222  1
  O  O284  1  0.94425335  0.42879177  0.44899422  1
  O  O285  1  1.03857129  0.35303193  1.01264001  1
  O  O286  1  1.00684753  0.86876489  0.52465048  1
  O  O287  1  0.98597453  0.87060544  0.99806769  1
  O  O288  1  0.51606519  0.50995695  0.39490444  1
  O  O289  1  0.48589416  0.49058417  0.88496835  1
  O  O290  1  0.48200415  0.99198985  0.34605964  1
  O  O291  1  0.48073130  0.98316424  0.85347833  1
  O  O292  1  0.97079629  0.48176982  0.40800363  1
  O  O293  1  0.96997607  0.49046766  0.85511666  1
  O  O294  1  1.05544066  0.96826329  0.40072667  1
  O  O295  1  0.98901153  0.99342554  0.89307223  1
  O  O296  1  0.00742833  -0.00867508  0.12235735  1
  O  O297  1  -0.00655788  0.01456652  0.61504597  1
  O  O298  1  0.01665904  0.52032076  0.11310536  1
  O  O299  1  0.00729611  0.50061683  0.62888711  1
  O  O300  1  0.51058054  0.01036466  0.12922205  1
  O  O301  1  0.50139684  -0.02217282  0.65198990  1
  O  O302  1  0.50641425  0.51680064  0.11559128  1
  O  O303  1  0.50962926  0.51167317  0.62326663  1
  O  O304  1  0.22035668  0.36972952  0.23136219  1
  O  O305  1  0.24516316  0.33944316  0.73903027  1
  O  O306  1  0.22253956  0.87927783  0.26142833  1
  O  O307  1  0.21490544  0.93009485  0.79995097  1
  O  O308  1  0.77657825  0.45743850  0.18890995  1
  O  O309  1  0.72608115  0.40152773  0.76468207  1
  O  O310  1  0.71718748  0.85644363  0.23808758  1
  O  O311  1  0.73953016  0.87259596  0.73823445  1
  O  O312  1  0.25111323  0.09989101  0.22419684  1
  O  O313  1  0.25548346  0.09676768  0.70935165  1
  O  O314  1  0.22317192  0.62178176  0.27923081  1
  O  O315  1  0.24665043  0.61141150  0.77675022  1
  O  O316  1  0.76864670  0.08206681  0.26902916  1
  O  O317  1  0.72709473  0.10530465  0.73056501  1
  O  O318  1  0.74343337  0.64939956  0.27074092  1
  O  O319  1  0.74984624  0.62062661  0.76018047  1
  O  O320  1  0.36583326  0.19482024  0.30095731  1
  O  O321  1  0.30964131  0.21428293  0.91201639  1
  O  O322  1  0.35213338  0.63631478  0.38685079  1
  O  O323  1  0.34898476  0.60005434  0.89840661  1
  O  O324  1  0.88438478  0.05836920  0.42217131  1
  O  O325  1  0.95340235  0.14740671  0.83410072  1
  O  O326  1  0.86657663  0.63763496  0.37974635  1
  O  O327  1  0.86377464  0.61779361  0.86340795  1
  O  O328  1  0.14111784  0.41286339  0.10553977  1
  O  O329  1  0.12263797  0.38007494  0.64139891  1
  O  O330  1  0.12185673  0.87597384  0.11819925  1
  O  O331  1  0.14751911  0.89118582  0.65868444  1
  O  O332  1  0.65785261  0.36914107  0.07478880  1
  O  O333  1  0.61860935  0.40395629  0.64850449  1
  O  O334  1  0.59849102  0.88536473  0.13946570  1
  O  O335  1  0.61140255  0.84751599  0.64419910  1
  O  O336  1  0.15351256  0.23124619  0.29798221  1
  O  O337  1  0.10327381  0.24582435  0.83339353  1
  O  O338  1  0.13714218  0.74960572  0.22472496  1
  O  O339  1  0.11944084  0.74220853  0.77375508  1
  O  O340  1  0.66709752  0.24991335  0.24530853  1
  O  O341  1  0.62095685  0.27367645  0.74653225  1
  O  O342  1  0.59806476  0.75736734  0.23903293  1
  O  O343  1  0.63553805  0.75076577  0.76968352  1
  O  O344  1  0.35781497  0.24254772  0.24579911  1
  O  O345  1  0.39431212  0.24715084  0.73378889  1
  O  O346  1  0.37948338  0.74778638  0.23269220  1
  O  O347  1  0.37515844  0.72257861  0.71278653  1
  O  O348  1  0.85015423  0.24272638  0.20758932  1
  O  O349  1  0.93682347  0.28796592  0.72051787  1
  O  O350  1  0.85855757  0.77924103  0.25613522  1
  O  O351  1  0.86272471  0.72884758  0.74739451  1
  O  O352  1  0.39876859  0.50653054  0.50628740  1
  O  O353  1  0.39309301  0.48745098  1.00242001  1
  O  O354  1  0.40661137  1.02432292  0.49666028  1
  O  O355  1  0.32357091  0.96482219  0.97439622  1
  O  O356  1  0.80570812  0.46089635  0.49793616  1
  O  O357  1  0.87865681  0.49536820  0.99018454  1
  O  O358  1  0.87527643  1.01281620  0.47728252  1
  O  O359  1  0.87978117  0.97248414  1.00789935  1
  O  O360  1  0.10723523  -0.01169575  0.00565548  1
  O  O361  1  0.21115971  0.02319986  0.54441579  1
  O  O362  1  0.12673000  0.51667976  0.00110535  1
  O  O363  1  0.12711138  0.50423141  0.52477176  1
  O  O364  1  0.63212356  -0.01727247  0.01630666  1
  O  O365  1  0.60798475  -0.04833030  0.52063563  1
  O  O366  1  0.61395096  0.51344728  -0.01219319  1
  O  O367  1  0.62256918  0.51378271  0.52069692  1
  O  O368  1  0.40457151  0.38358707  0.14602505  1
  O  O369  1  0.36753752  0.38303564  0.63902375  1
  O  O370  1  0.38703681  0.85750622  0.10397816  1
  O  O371  1  0.33805285  0.84966107  0.69755733  1
  O  O372  1  0.89125499  0.35178538  0.09841139  1
  O  O373  1  0.85450847  0.39011719  0.63018841  1
  O  O374  1  0.88268439  0.85159943  0.11268210  1
  O  O375  1  0.86153629  0.88426186  0.62767494  1
  O  O376  1  0.11676684  0.10658038  0.38671950  1
  O  O377  1  0.13098009  0.08390522  0.89617707  1
  O  O378  1  0.12636334  0.62229464  0.40647634  1
  O  O379  1  0.13324326  0.61170951  0.87556153  1
  O  O380  1  0.62266995  0.14903995  0.35222618  1
  O  O381  1  0.60089384  0.10240911  0.88851222  1
  O  O382  1  0.63739938  0.63520668  0.39505569  1
  O  O383  1  0.63314752  0.63823033  0.88824013  1
