# generated using pymatgen
data_VZnO4
_symmetry_space_group_name_H-M   'P 1'
_cell_length_a   16.92148875
_cell_length_b   16.88783095
_cell_length_c   16.86250052
_cell_angle_alpha   89.89251544
_cell_angle_beta   90.08378566
_cell_angle_gamma   90.06330782
_symmetry_Int_Tables_number   1
_chemical_formula_structural   VZnO4
_chemical_formula_sum   'V64 Zn64 O256'
_cell_volume   4818.73369939
_cell_formula_units_Z   64
loop_
 _symmetry_equiv_pos_site_id
 _symmetry_equiv_pos_as_xyz
  1  'x, y, z'
loop_
 _atom_site_type_symbol
 _atom_site_label
 _atom_site_symmetry_multiplicity
 _atom_site_fract_x
 _atom_site_fract_y
 _atom_site_fract_z
 _atom_site_occupancy
  V  V0  1  0.00808290  0.51228417  0.00431677  1
  V  V1  1  0.73646491  0.37610112  0.12562434  1
  V  V2  1  0.51788532  0.86719537  0.37387429  1
  V  V3  1  0.83877727  0.10096335  0.74882308  1
  V  V4  1  0.00833474  0.36345247  0.86701504  1
  V  V5  1  0.52532992  0.75219428  0.24637141  1
  V  V6  1  0.88484412  0.36694164  0.00898663  1
  V  V7  1  0.75531009  0.38103454  0.63616385  1
  V  V8  1  0.11666016  0.51612737  0.61440134  1
  V  V9  1  0.23572326  0.25548192  0.50001288  1
  V  V10  1  0.63473118  0.24198242  0.37626478  1
  V  V11  1  0.37751215  0.75300964  0.13504393  1
  V  V12  1  0.88742712  0.49937641  0.37914152  1
  V  V13  1  0.24578360  0.00002957  0.24532939  1
  V  V14  1  0.37562339  -0.00312777  0.36976710  1
  V  V15  1  0.11958255  0.64710126  0.49712699  1
  V  V16  1  0.12120177  0.50565229  0.12373105  1
  V  V17  1  0.88630271  0.62301362  0.23669618  1
  V  V18  1  0.50301556  0.61098199  0.12641275  1
  V  V19  1  0.25123622  0.88815635  0.12073217  1
  V  V20  1  0.24704484  0.51278803  0.75106297  1
  V  V21  1  0.10915288  0.73682978  0.86681406  1
  V  V22  1  0.50076553  0.01953106  0.50242523  1
  V  V23  1  0.10857703  0.36485074  0.26618768  1
  V  V24  1  0.87771176  0.74751801  0.10707928  1
  V  V25  1  0.87882481  0.51101265  0.87348438  1
  V  V26  1  0.89079259  0.37654474  0.50338695  1
  V  V27  1  0.62333682  0.24481535  0.86343098  1
  V  V28  1  0.49097204  0.14831752  0.63763141  1
  V  V29  1  0.60409513  0.88221105  0.74599126  1
  V  V30  1  0.76931967  0.10420893  0.37634954  1
  V  V31  1  -0.00754088  0.87735802  0.36361121  1
  V  V32  1  0.26479990  0.88394148  0.64986526  1
  V  V33  1  0.39658088  0.88389381  -0.00947621  1
  V  V34  1  0.36965248  0.86632858  0.49648005  1
  V  V35  1  0.24548935  0.13492811  0.37891916  1
  V  V36  1  0.38360108  0.37506231  0.49794195  1
  V  V37  1  0.37400326  0.51037273  0.37429591  1
  V  V38  1  0.24788733  0.38028473  0.62337572  1
  V  V39  1  0.24201143  0.64111464  0.37141024  1
  V  V40  1  0.38039607  0.73339936  0.62065167  1
  V  V41  1  0.24982463  0.50072680  0.24658517  1
  V  V42  1  0.61134921  0.61947030  0.50092542  1
  V  V43  1  0.61178242  0.73834744  0.86716680  1
  V  V44  1  0.25452105  0.74808776  -0.01248045  1
  V  V45  1  0.14285125  0.24906628  0.89796319  1
  V  V46  1  0.74422552  0.63232858  0.36863426  1
  V  V47  1  0.49575147  0.37200017  0.89650286  1
  V  V48  1  0.10845861  0.88547359  0.76011010  1
  V  V49  1  0.61398504  0.49895542  0.63528857  1
  V  V50  1  0.51696617  0.12263754  0.13890459  1
  V  V51  1  0.74080038  0.49163747  0.25097391  1
  V  V52  1  0.74480074  0.89090369  0.63164186  1
  V  V53  1  0.75808859  0.52255792  0.75453132  1
  V  V54  1  0.50550202  0.37914506  0.35892957  1
  V  V55  1  0.62651863  0.59879330  0.00040366  1
  V  V56  1  0.74374700  0.75443898  -0.00577227  1
  V  V57  1  0.38391956  0.62012293  0.77325622  1
  V  V58  1  0.25044170  0.34496669  0.12347062  1
  V  V59  1  0.75606466  0.74085062  0.52939340  1
  V  V60  1  -0.02646316  0.12625986  0.11010291  1
  V  V61  1  0.74441032  0.24439808  0.00115161  1
  V  V62  1  0.89736149  0.25484471  0.64593722  1
  V  V63  1  -0.01893039  -0.02156904  -0.00597726  1
  Zn  Zn64  1  0.17927269  0.18520678  0.20536683  1
  Zn  Zn65  1  0.15435472  0.17658490  0.74092713  1
  Zn  Zn66  1  0.18659544  0.69094333  0.18649717  1
  Zn  Zn67  1  0.19529276  0.69625775  0.68632256  1
  Zn  Zn68  1  0.70566898  0.19614354  0.20095032  1
  Zn  Zn69  1  0.68427085  0.20912365  0.67907308  1
  Zn  Zn70  1  0.69261199  0.67904931  0.17568028  1
  Zn  Zn71  1  0.55222702  0.68124627  0.68984951  1
  Zn  Zn72  1  0.31369242  0.31750380  0.30549333  1
  Zn  Zn73  1  0.27279893  0.31396386  0.81209079  1
  Zn  Zn74  1  0.31919274  0.81760638  0.30489068  1
  Zn  Zn75  1  0.34023371  0.80419239  0.81371162  1
  Zn  Zn76  1  0.80509527  0.31645181  0.32467283  1
  Zn  Zn77  1  0.81293946  0.32197187  0.82376349  1
  Zn  Zn78  1  0.81291118  0.80447418  0.29703029  1
  Zn  Zn79  1  0.75978581  0.73896268  0.75102219  1
  Zn  Zn80  1  0.18404716  0.44620770  0.43736061  1
  Zn  Zn81  1  0.23018044  0.45822452  0.95967338  1
  Zn  Zn82  1  0.18709668  0.93317462  0.43225547  1
  Zn  Zn83  1  0.13678551  0.89609345  0.96870379  1
  Zn  Zn84  1  0.67918905  0.41804480  0.45494089  1
  Zn  Zn85  1  0.68997818  0.42738211  0.93076760  1
  Zn  Zn86  1  0.68952582  0.92926297  0.44992855  1
  Zn  Zn87  1  0.75450578  0.85883690  0.85936860  1
  Zn  Zn88  1  0.33052224  0.07060878  0.05755977  1
  Zn  Zn89  1  0.28944869  0.09176838  0.59731077  1
  Zn  Zn90  1  0.31861100  0.57005633  0.06520224  1
  Zn  Zn91  1  0.30128170  0.56344917  0.55087592  1
  Zn  Zn92  1  0.81471689  0.05332710  0.04958867  1
  Zn  Zn93  1  0.67575703  0.07278156  0.55696430  1
  Zn  Zn94  1  0.81067625  0.55484198  0.05765953  1
  Zn  Zn95  1  0.78501517  0.53364840  0.53717552  1
  Zn  Zn96  1  0.42641406  0.42898521  0.18295858  1
  Zn  Zn97  1  0.42326990  0.43017375  0.69893108  1
  Zn  Zn98  1  0.44492931  0.93263574  0.19000190  1
  Zn  Zn99  1  0.44726226  0.94006403  0.67801676  1
  Zn  Zn100  1  0.93522951  0.43790772  0.18989741  1
  Zn  Zn101  1  0.94563586  0.44482702  0.69192378  1
  Zn  Zn102  1  0.93796205  0.93303175  0.16145423  1
  Zn  Zn103  1  0.89715421  0.89159046  0.74763084  1
  Zn  Zn104  1  0.07236224  0.06037291  0.31494984  1
  Zn  Zn105  1  0.08876681  0.04477880  0.87053390  1
  Zn  Zn106  1  0.06783681  0.56354962  0.30989964  1
  Zn  Zn107  1  0.09874082  0.53477645  0.83722111  1
  Zn  Zn108  1  0.58030794  0.05375207  0.32530733  1
  Zn  Zn109  1  0.61494326  0.09354172  0.75729332  1
  Zn  Zn110  1  0.56328476  0.56136350  0.30899210  1
  Zn  Zn111  1  0.56060264  0.54628043  0.82172047  1
  Zn  Zn112  1  0.42976502  0.20107503  0.41373465  1
  Zn  Zn113  1  0.45360409  0.17283270  0.94235057  1
  Zn  Zn114  1  0.43593559  0.68967435  0.42722381  1
  Zn  Zn115  1  0.44132469  0.68747510  0.95130025  1
  Zn  Zn116  1  0.76250624  0.23716197  0.50415537  1
  Zn  Zn117  1  0.93390716  0.17967667  0.92442734  1
  Zn  Zn118  1  0.93006909  0.68507552  0.43724986  1
  Zn  Zn119  1  0.89837881  0.73125016  0.88757845  1
  Zn  Zn120  1  0.06695120  0.30556592  0.07445532  1
  Zn  Zn121  1  0.06654596  0.32139902  0.56753285  1
  Zn  Zn122  1  0.06807271  0.79167870  0.07970626  1
  Zn  Zn123  1  0.09319775  0.84032217  0.56073307  1
  Zn  Zn124  1  0.56238670  0.31609760  0.05752315  1
  Zn  Zn125  1  0.56806014  0.31399206  0.54961025  1
  Zn  Zn126  1  0.57050769  0.80944285  0.05814093  1
  Zn  Zn127  1  0.56427138  0.80744883  0.55803542  1
  O  O128  1  0.08769806  0.12005931  0.16427688  1
  O  O129  1  0.17849866  0.12295307  0.64561763  1
  O  O130  1  0.12705227  0.60391105  0.12869513  1
  O  O131  1  0.13636758  0.62671110  0.60910637  1
  O  O132  1  0.62168010  0.12818544  0.14348031  1
  O  O133  1  0.61255222  0.13095869  0.63155669  1
  O  O134  1  0.61258549  0.61831554  0.11641909  1
  O  O135  1  0.60759281  0.60755855  0.61597730  1
  O  O136  1  0.38307550  0.38909077  0.37898366  1
  O  O137  1  0.38899875  0.34885645  0.84630563  1
  O  O138  1  0.38458890  0.87536837  0.38149784  1
  O  O139  1  0.38593454  0.87129604  0.89025465  1
  O  O140  1  0.87089919  0.38698746  0.39139021  1
  O  O141  1  0.88846357  0.38805026  0.88739927  1
  O  O142  1  0.88607983  0.87373979  0.36143904  1
  O  O143  1  0.76247859  1.03618924  0.89993758  1
  O  O144  1  0.26187947  -0.01530149  0.36344244  1
  O  O145  1  0.27471890  0.03337085  0.87472180  1
  O  O146  1  0.25401425  0.50871276  0.36273106  1
  O  O147  1  0.21994198  0.48954762  0.84874823  1
  O  O148  1  0.73169589  0.00574552  0.38146888  1
  O  O149  1  0.71234706  -0.01584821  0.88791691  1
  O  O150  1  0.76127526  0.50346153  0.36171216  1
  O  O151  1  0.76661139  0.49350013  0.86579778  1
  O  O152  1  0.24228690  0.49887953  0.13756522  1
  O  O153  1  0.24366654  0.50054223  0.62822262  1
  O  O154  1  0.26885370  1.00225185  0.13472517  1
  O  O155  1  0.27136683  0.98109901  0.62118849  1
  O  O156  1  0.75668534  0.48686783  0.13847318  1
  O  O157  1  0.75550521  0.50340097  0.64405094  1
  O  O158  1  0.72379362  0.98930229  0.10489214  1
  O  O159  1  0.73359153  0.98826635  0.61595151  1
  O  O160  1  0.00860140  0.37629826  0.24813573  1
  O  O161  1  0.00952613  0.38890665  0.76934064  1
  O  O162  1  -0.01260004  0.88323436  0.25759587  1
  O  O163  1  0.01058529  0.87750662  0.74428555  1
  O  O164  1  0.49419265  0.37510816  0.25962304  1
  O  O165  1  0.44353639  0.34626049  0.78193288  1
  O  O166  1  0.50525821  0.86463587  0.26082101  1
  O  O167  1  0.50452172  0.86166917  0.74126345  1
  O  O168  1  0.51188362  0.12804622  0.24403715  1
  O  O169  1  0.50293838  0.13889277  0.73688277  1
  O  O170  1  0.51209921  0.64098014  0.23950239  1
  O  O171  1  0.48648719  0.60729936  0.75215129  1
  O  O172  1  1.02761613  0.11655079  0.22344588  1
  O  O173  1  1.05038000  0.07682920  0.66093369  1
  O  O174  1  0.98479774  0.62225325  0.25049536  1
  O  O175  1  0.93819474  0.68704566  0.65701654  1
  O  O176  1  0.35875857  0.16441165  0.00153810  1
  O  O177  1  0.36673153  0.27266501  0.48807370  1
  O  O178  1  0.37277881  0.75989541  0.01212317  1
  O  O179  1  0.38149842  0.75756012  0.50433150  1
  O  O180  1  0.86355702  0.26632913  -0.01159964  1
  O  O181  1  0.87719094  0.27294698  0.52106387  1
  O  O182  1  0.85283450  0.73153304  -0.00380422  1
  O  O183  1  0.85147827  0.74044798  0.49699260  1
  O  O184  1  0.13655511  0.25865154  0.50095453  1
  O  O185  1  0.11096991  0.23493829  0.99288727  1
  O  O186  1  0.13483882  0.74632883  0.50606465  1
  O  O187  1  0.14485703  0.77040878  0.98500244  1
  O  O188  1  0.65462028  0.29535362  0.47696822  1
  O  O189  1  0.64013249  0.25146823  0.99924922  1
  O  O190  1  0.63646394  0.72411007  0.51181372  1
  O  O191  1  0.62986915  0.73899628  0.99133281  1
  O  O192  1  0.51878837  0.22807594  0.12901180  1
  O  O193  1  0.50580679  0.24750912  0.61223714  1
  O  O194  1  0.49925176  0.75211477  0.13581747  1
  O  O195  1  0.48710704  0.74500660  0.62066075  1
  O  O196  1  0.98880997  0.22774218  0.11067501  1
  O  O197  1  0.99740457  0.26020087  0.63426371  1
  O  O198  1  0.97438921  0.72699592  0.09558070  1
  O  O199  1  0.99122083  0.79393378  0.59819075  1
  O  O200  1  -0.04515623  0.22443185  0.32098654  1
  O  O201  1  -0.00637380  0.26297690  0.87130138  1
  O  O202  1  -0.00976741  0.77227648  0.36714077  1
  O  O203  1  0.01092282  0.74491491  0.87801197  1
  O  O204  1  0.52452754  0.27422053  0.38714035  1
  O  O205  1  0.51459628  0.24994550  0.88909004  1
  O  O206  1  0.50306566  0.75573652  0.35849215  1
  O  O207  1  0.51186076  0.74127666  0.87758182  1
  O  O208  1  0.25796886  0.14856104  0.49647564  1
  O  O209  1  0.24656941  0.06451904  0.93399764  1
  O  O210  1  0.24236054  0.63102057  0.47760486  1
  O  O211  1  0.25035401  0.65284588  1.01865911  1
  O  O212  1  0.74874831  0.12471561  0.48844735  1
  O  O213  1  0.76083906  0.14597914  1.00736976  1
  O  O214  1  0.74528640  0.62962777  0.48600729  1
  O  O215  1  0.72926792  0.61676397  1.00652268  1
  O  O216  1  0.24063407  0.36539798  0.02524865  1
  O  O217  1  0.25468564  0.37278320  0.49839376  1
  O  O218  1  0.26957729  0.86771522  0.01315506  1
  O  O219  1  0.26955967  0.87324921  0.49380513  1
  O  O220  1  0.76002941  0.37743250  0.01362407  1
  O  O221  1  0.77335818  0.40680585  0.52216485  1
  O  O222  1  0.74979528  0.85356605  -0.02095718  1
  O  O223  1  0.73322156  0.85007080  0.52288643  1
  O  O224  1  0.12915151  0.49184500  0.24060462  1
  O  O225  1  0.13862576  0.52152945  0.72809761  1
  O  O226  1  0.14765890  0.99465541  0.25137696  1
  O  O227  1  0.12692061  0.98357696  0.77481955  1
  O  O228  1  0.64253245  0.50020919  0.24997383  1
  O  O229  1  0.64461284  0.51185834  0.74358889  1
  O  O230  1  0.62215393  1.00612172  0.23634908  1
  O  O231  1  0.60615221  0.98116794  0.75649430  1
  O  O232  1  0.37851252  -0.00648135  0.26565022  1
  O  O233  1  0.39366878  0.00391865  0.76584888  1
  O  O234  1  0.35530324  0.49565362  0.25684361  1
  O  O235  1  0.36111132  0.51324093  0.74955027  1
  O  O236  1  0.82315145  -0.03817209  0.22947384  1
  O  O237  1  0.86006248  0.00277318  0.75183360  1
  O  O238  1  0.86877015  0.50829965  0.25659450  1
  O  O239  1  0.87436300  0.50249989  0.76476618  1
  O  O240  1  0.11960671  0.38960331  0.36485669  1
  O  O241  1  0.10983277  0.36062035  0.89454997  1
  O  O242  1  0.09686453  0.87086081  0.36231801  1
  O  O243  1  0.13454242  0.85476266  0.85961788  1
  O  O244  1  0.60046148  0.41230246  0.37368892  1
  O  O245  1  0.60499900  0.36465747  0.88640684  1
  O  O246  1  0.61603806  0.87155737  0.37741037  1
  O  O247  1  0.62687908  0.84641404  0.85172420  1
  O  O248  1  0.41164988  0.12792692  0.13913962  1
  O  O249  1  0.38952860  0.13711610  0.62251944  1
  O  O250  1  0.39055324  0.64276193  0.12198828  1
  O  O251  1  0.37107810  0.63417258  0.60958560  1
  O  O252  1  0.87537985  0.11131284  0.13298932  1
  O  O253  1  0.88017874  0.15029569  0.65849459  1
  O  O254  1  0.86991598  0.61732435  0.13378383  1
  O  O255  1  0.99989035  0.72785197  0.64537410  1
  O  O256  1  0.23928934  0.24375448  0.13042197  1
  O  O257  1  0.25008208  0.27511953  0.61096421  1
  O  O258  1  0.26800471  0.76487299  0.13093333  1
  O  O259  1  0.27437017  0.76697913  0.63049501  1
  O  O260  1  0.74988683  0.26558319  0.11821084  1
  O  O261  1  0.76261034  0.27314027  0.62329882  1
  O  O262  1  0.75263408  0.74317460  0.10355633  1
  O  O263  1  0.75880127  0.73025967  0.62823642  1
  O  O264  1  0.24361432  0.24059444  0.38258303  1
  O  O265  1  0.24374473  0.25509264  0.90880512  1
  O  O266  1  0.25239389  0.73905209  0.35316245  1
  O  O267  1  0.26530830  0.74736946  0.88720899  1
  O  O268  1  0.75411461  0.23365657  0.38247052  1
  O  O269  1  0.73687906  0.26788902  0.89033681  1
  O  O270  1  0.74786518  0.73339605  0.36160043  1
  O  O271  1  0.73028874  0.72843261  0.88607238  1
  O  O272  1  -0.02578418  0.10767832  0.00269975  1
  O  O273  1  0.01796036  0.13153238  0.49074378  1
  O  O274  1  0.00550764  0.60683054  -0.00051604  1
  O  O275  1  0.01883328  0.64051676  0.48864318  1
  O  O276  1  0.51981550  0.11562011  0.03307570  1
  O  O277  1  0.48862170  0.11743898  0.48228534  1
  O  O278  1  0.50800389  0.62183594  0.01858835  1
  O  O279  1  0.51459466  0.62255998  0.48098616  1
  O  O280  1  0.48591927  0.38293130  0.49311009  1
  O  O281  1  0.48002742  0.36438947  0.99744924  1
  O  O282  1  0.49763881  0.86782432  0.48335548  1
  O  O283  1  0.49687938  0.87410870  1.00506401  1
  O  O284  1  0.98961686  0.38489570  0.50716425  1
  O  O285  1  0.99024149  0.37385902  1.00041820  1
  O  O286  1  0.98584281  0.88550771  0.46803475  1
  O  O287  1  1.01789885  0.88120693  1.01408484  1
  O  O288  1  0.47746639  0.50228846  0.35913026  1
  O  O289  1  0.49437121  0.47101805  0.87286152  1
  O  O290  1  0.49465116  0.98701025  0.37712639  1
  O  O291  1  0.44308709  1.02647836  0.82335205  1
  O  O292  1  0.98497390  0.50471379  0.36536767  1
  O  O293  1  1.00171560  0.49099836  0.88896720  1
  O  O294  1  0.99632616  0.98305029  0.36041867  1
  O  O295  1  0.98622061  0.99355564  0.89129647  1
  O  O296  1  -0.00259937  0.00989322  0.10775979  1
  O  O297  1  0.11328017  0.06424120  0.62421221  1
  O  O298  1  0.01129481  0.49273711  0.11557438  1
  O  O299  1  0.01827365  0.50686373  0.62828456  1
  O  O300  1  0.51297803  0.01797874  0.14095007  1
  O  O301  1  0.49277714  0.02132532  0.60797318  1
  O  O302  1  0.48773788  0.51355024  0.13899784  1
  O  O303  1  0.51978274  0.47205174  0.64787822  1
  O  O304  1  0.23750646  0.38474611  0.25018462  1
  O  O305  1  0.26747626  0.39457976  0.72783167  1
  O  O306  1  0.26283979  0.88890786  0.23335591  1
  O  O307  1  0.28599819  0.88398948  0.74725517  1
  O  O308  1  0.76054132  0.38188609  0.24011866  1
  O  O309  1  0.75965081  0.39094204  0.73912644  1
  O  O310  1  0.77454395  0.90697042  0.24481151  1
  O  O311  1  0.72465438  0.86626596  0.73969349  1
  O  O312  1  0.25136868  0.11302391  0.26822200  1
  O  O313  1  0.30132304  0.15030398  0.75749120  1
  O  O314  1  0.23731832  0.61166005  0.25649490  1
  O  O315  1  0.26469476  0.61830431  0.74786238  1
  O  O316  1  0.74723212  0.12350087  0.27255876  1
  O  O317  1  0.73720839  0.11940350  0.74026724  1
  O  O318  1  0.75219089  0.61261400  0.25584264  1
  O  O319  1  0.76785794  0.61965664  0.75502335  1
  O  O320  1  0.35707194  0.09898418  0.38827625  1
  O  O321  1  0.41297721  0.08222636  0.86864964  1
  O  O322  1  0.36141455  0.61691449  0.37445859  1
  O  O323  1  0.38071991  0.62678068  0.87171679  1
  O  O324  1  0.86591110  0.09957104  0.37547544  1
  O  O325  1  0.87297552  0.14377850  0.83397234  1
  O  O326  1  0.86373509  0.61840460  0.36349621  1
  O  O327  1  0.88501767  0.60913999  0.88126984  1
  O  O328  1  0.13318082  0.37687128  0.14088645  1
  O  O329  1  0.14107728  0.39782669  0.61480069  1
  O  O330  1  0.15357189  0.88768471  0.11203045  1
  O  O331  1  0.15605671  0.86890480  0.65763888  1
  O  O332  1  0.63737099  0.37707428  0.12174767  1
  O  O333  1  0.64872023  0.38999665  0.61921424  1
  O  O334  1  0.64483863  0.88454027  0.11817904  1
  O  O335  1  0.62531686  0.86109244  0.63886528  1
  O  O336  1  0.12270998  0.26407442  0.26469804  1
  O  O337  1  0.16558244  0.27982503  0.77878016  1
  O  O338  1  0.10425035  0.76407298  0.18551797  1
  O  O339  1  0.12714244  0.75029641  0.76118502  1
  O  O340  1  0.64559717  0.26602990  0.27868584  1
  O  O341  1  0.63200361  0.26592227  0.76459583  1
  O  O342  1  0.62421562  0.75502656  0.23814935  1
  O  O343  1  0.63077474  0.72036970  0.76324346  1
  O  O344  1  0.38511939  0.23331192  0.31091047  1
  O  O345  1  0.34457706  0.20704103  0.77709384  1
  O  O346  1  0.38882269  0.75362164  0.23756529  1
  O  O347  1  0.38046314  0.72553752  0.73742852  1
  O  O348  1  0.90279399  0.24391916  0.27315085  1
  O  O349  1  0.88004858  0.28122445  0.74058669  1
  O  O350  1  0.86394732  0.73087720  0.22733463  1
  O  O351  1  0.84851199  0.80293141  0.81019393  1
  O  O352  1  0.36319998  0.49394323  0.47965932  1
  O  O353  1  0.33318335  0.49857984  0.98382840  1
  O  O354  1  0.39283749  0.97910198  0.48736563  1
  O  O355  1  0.38191291  0.98335669  1.00668005  1
  O  O356  1  0.88358259  0.50768060  0.48441842  1
  O  O357  1  0.88820422  0.49223757  0.99359804  1
  O  O358  1  0.96239488  1.09464011  0.51882069  1
  O  O359  1  0.87837798  0.97114939  1.00580512  1
  O  O360  1  0.11301666  0.00556955  -0.02290332  1
  O  O361  1  0.11031076  -0.05948989  0.50987531  1
  O  O362  1  0.11997236  0.49122538  0.01289726  1
  O  O363  1  0.12977554  0.51895871  0.50854834  1
  O  O364  1  0.66515990  -0.05198970  0.07458858  1
  O  O365  1  0.60346852  -0.00009524  0.49503315  1
  O  O366  1  0.62511080  0.49956362  -0.00262199  1
  O  O367  1  0.63728131  0.50983851  0.52131841  1
  O  O368  1  0.35068407  0.35850889  0.14377713  1
  O  O369  1  0.36328846  0.39323492  0.60385158  1
  O  O370  1  0.38167576  0.86619995  0.11981072  1
  O  O371  1  0.37957520  0.86804164  0.61024827  1
  O  O372  1  0.87330942  0.37790660  0.11152792  1
  O  O373  1  0.87582548  0.38311133  0.62151860  1
  O  O374  1  0.87746602  0.84702509  0.12051843  1
  O  O375  1  0.84328195  0.87491860  0.64185404  1
  O  O376  1  0.14929276  0.10334748  0.38827919  1
  O  O377  1  0.12006061  0.15135174  0.84925879  1
  O  O378  1  0.13376105  0.62826306  0.37958431  1
  O  O379  1  0.12787259  0.63753652  0.87631598  1
  O  O380  1  0.61700308  0.14286971  0.38404298  1
  O  O381  1  0.62567798  0.14337440  0.86526599  1
  O  O382  1  0.63875990  0.61045530  0.38546396  1
  O  O383  1  0.61137041  0.62095911  0.89427175  1
