# generated using pymatgen
data_VZnO4
_symmetry_space_group_name_H-M   'P 1'
_cell_length_a   16.92765919
_cell_length_b   16.95642441
_cell_length_c   16.94782644
_cell_angle_alpha   90.03275882
_cell_angle_beta   89.74406345
_cell_angle_gamma   90.11194772
_symmetry_Int_Tables_number   1
_chemical_formula_structural   VZnO4
_chemical_formula_sum   'V64 Zn64 O256'
_cell_volume   4864.51964940
_cell_formula_units_Z   64
loop_
 _symmetry_equiv_pos_site_id
 _symmetry_equiv_pos_as_xyz
  1  'x, y, z'
loop_
 _atom_site_type_symbol
 _atom_site_label
 _atom_site_symmetry_multiplicity
 _atom_site_fract_x
 _atom_site_fract_y
 _atom_site_fract_z
 _atom_site_occupancy
  V  V0  1  0.48819580  0.49749725  0.51035467  1
  V  V1  1  0.89419153  0.11875518  0.73183898  1
  V  V2  1  0.12225330  0.75059402  0.86763847  1
  V  V3  1  0.62515312  0.75553529  0.89035997  1
  V  V4  1  0.72218873  0.25508469  0.50817973  1
  V  V5  1  0.62917896  0.38992168  0.23387257  1
  V  V6  1  0.86566601  0.50049917  0.35204937  1
  V  V7  1  0.73857819  0.87205186  0.61104087  1
  V  V8  1  0.51619232  0.49020206  0.00570388  1
  V  V9  1  0.12501853  0.49813412  0.62341860  1
  V  V10  1  0.73983856  0.61795820  0.35651203  1
  V  V11  1  0.00378294  0.11985586  0.11829609  1
  V  V12  1  0.12654786  0.76329239  0.36830382  1
  V  V13  1  0.13002650  0.62651823  0.48692610  1
  V  V14  1  0.76187196  0.12985826  0.86589053  1
  V  V15  1  0.11579584  0.24821164  0.89061355  1
  V  V16  1  -0.01852828  0.50207725  0.49702414  1
  V  V17  1  0.34979500  0.74101316  0.10431898  1
  V  V18  1  0.62361080  0.61434772  0.50686801  1
  V  V19  1  0.78195432  0.23937365  0.02285913  1
  V  V20  1  0.85810771  0.86688351  -0.02700070  1
  V  V21  1  0.11922171  0.87727105  0.73713096  1
  V  V22  1  0.71287326  0.00956692  0.26446328  1
  V  V23  1  0.36346393  0.50436473  0.35787904  1
  V  V24  1  0.37548055  0.26394822  0.10246558  1
  V  V25  1  0.50118909  0.25244137  0.23984044  1
  V  V26  1  0.68886561  0.13377391  0.39164461  1
  V  V27  1  -0.02177172  0.00061415  0.48648038  1
  V  V28  1  0.00468756  0.49066851  -0.00322597  1
  V  V29  1  0.04528192  -0.01358840  -0.00852674  1
  V  V30  1  0.10305863  0.36554258  0.74325217  1
  V  V31  1  0.24326442  0.63162132  0.87389799  1
  V  V32  1  0.25222773  0.13372633  0.88367582  1
  V  V33  1  0.47892276  0.74995386  0.24636540  1
  V  V34  1  0.73371438  0.39543953  0.62530278  1
  V  V35  1  0.26590731  0.01440029  0.73820178  1
  V  V36  1  0.61095444  0.74977186  0.36796115  1
  V  V37  1  0.51007048  0.72793077  0.74848601  1
  V  V38  1  0.11279893  0.00534341  0.61165624  1
  V  V39  1  0.50161612  0.11347822  0.12133302  1
  V  V40  1  0.26924578  0.74869661  0.50379259  1
  V  V41  1  0.50277358  0.37830908  0.37357674  1
  V  V42  1  0.65057523  0.36978137  0.78814845  1
  V  V43  1  0.77822243  0.37839867  0.13252421  1
  V  V44  1  0.26919282  0.86994207  0.62129493  1
  V  V45  1  0.28567576  0.25982541  0.51665514  1
  V  V46  1  0.63563681  0.12750369  0.00845747  1
  V  V47  1  0.85998395  0.74514118  0.17874520  1
  V  V48  1  0.86548906  0.62131324  0.74794501  1
  V  V49  1  0.87666576  0.75820028  0.58618037  1
  V  V50  1  0.26356712  0.13352212  0.37306617  1
  V  V51  1  0.36873974  -0.01650869  0.39557893  1
  V  V52  1  0.25598464  0.50128403  0.74122235  1
  V  V53  1  0.12304171  0.14138145  0.49990093  1
  V  V54  1  0.63017369  0.01398600  0.67593774  1
  V  V55  1  0.51566676  0.61765111  0.12174035  1
  V  V56  1  0.74841870  0.61644823  0.89375475  1
  V  V57  1  0.38606720  0.88683347  -0.00250053  1
  V  V58  1  0.04668393  0.62787397  0.12543136  1
  V  V59  1  0.00028211  0.62992799  0.61567901  1
  V  V60  1  0.00343489  0.37042396  0.36653174  1
  V  V61  1  0.35243995  0.49688139  0.90873155  1
  V  V62  1  0.86971107  0.26103825  0.62291956  1
  V  V63  1  -0.00808577  0.75971771  0.74622536  1
  Zn  Zn64  1  0.20273849  0.18997458  0.18307326  1
  Zn  Zn65  1  0.19103782  0.19434462  0.67690842  1
  Zn  Zn66  1  0.16121934  0.74015394  0.16504539  1
  Zn  Zn67  1  0.18922292  0.68589851  0.68388206  1
  Zn  Zn68  1  0.68261446  0.19250323  0.18961603  1
  Zn  Zn69  1  0.68736270  0.19821493  0.70042714  1
  Zn  Zn70  1  0.67714135  0.68978361  0.18333665  1
  Zn  Zn71  1  0.68992069  0.69885172  0.68197188  1
  Zn  Zn72  1  0.32779277  0.30660006  0.31537474  1
  Zn  Zn73  1  0.29338909  0.32714749  0.81303066  1
  Zn  Zn74  1  0.29590627  0.79726774  0.30746591  1
  Zn  Zn75  1  0.30678331  0.82253947  0.81687928  1
  Zn  Zn76  1  0.79355111  0.32014069  0.33365896  1
  Zn  Zn77  1  0.89804278  0.26726188  0.84432348  1
  Zn  Zn78  1  0.76484347  0.80701205  0.28948708  1
  Zn  Zn79  1  0.78782135  0.81637688  0.80849218  1
  Zn  Zn80  1  0.19106700  0.42719062  0.43940629  1
  Zn  Zn81  1  0.14169180  0.45766773  0.90779634  1
  Zn  Zn82  1  0.19706777  0.93538784  0.43292854  1
  Zn  Zn83  1  0.21403398  0.93270283  0.91228684  1
  Zn  Zn84  1  0.67928161  0.43898707  0.43461152  1
  Zn  Zn85  1  0.78537855  0.40920357  0.91832424  1
  Zn  Zn86  1  0.71161053  0.91899421  0.41848284  1
  Zn  Zn87  1  0.66503641  0.90531354  1.01090585  1
  Zn  Zn88  1  0.32442443  0.07878792  0.05024642  1
  Zn  Zn89  1  0.29751928  0.05356481  0.54388516  1
  Zn  Zn90  1  0.24714368  0.57530557  0.07321642  1
  Zn  Zn91  1  0.31198121  0.55815807  0.55112440  1
  Zn  Zn92  1  0.81573889  0.04690087  0.07819532  1
  Zn  Zn93  1  0.79243669  0.06765484  0.56275243  1
  Zn  Zn94  1  0.82582214  0.56598692  0.07426446  1
  Zn  Zn95  1  0.80618159  0.57885953  0.55717055  1
  Zn  Zn96  1  0.43198839  0.43678697  0.18162013  1
  Zn  Zn97  1  0.43447214  0.56227883  0.68326818  1
  Zn  Zn98  1  0.55650813  0.92689003  0.17568669  1
  Zn  Zn99  1  0.44869186  0.92783362  0.69549020  1
  Zn  Zn100  1  0.95845198  0.44663081  0.18159670  1
  Zn  Zn101  1  0.88042458  0.40924839  0.74707759  1
  Zn  Zn102  1  0.95057449  0.92567009  0.11841792  1
  Zn  Zn103  1  0.89483690  0.91515816  0.70601003  1
  Zn  Zn104  1  0.07721594  0.06243095  0.32534541  1
  Zn  Zn105  1  0.07031686  0.06306695  0.80100211  1
  Zn  Zn106  1  0.06080495  0.56346927  0.31087541  1
  Zn  Zn107  1  0.04841925  0.56872276  0.80466732  1
  Zn  Zn108  1  0.53427967  0.06255037  0.31329732  1
  Zn  Zn109  1  0.61991980  0.00462679  0.87836808  1
  Zn  Zn110  1  0.55263531  0.56181623  0.30497570  1
  Zn  Zn111  1  0.55237094  0.56501937  0.84279852  1
  Zn  Zn112  1  0.43725016  0.19425003  0.42466552  1
  Zn  Zn113  1  0.44181621  0.17402182  0.93652136  1
  Zn  Zn114  1  0.43724016  0.67384641  0.43449850  1
  Zn  Zn115  1  0.43499618  0.67755980  0.93540904  1
  Zn  Zn116  1  0.94400503  0.20960429  0.47644727  1
  Zn  Zn117  1  0.96544791  0.12430578  0.91595373  1
  Zn  Zn118  1  0.92065166  0.70879036  0.37894235  1
  Zn  Zn119  1  0.90824026  0.65537802  0.96239322  1
  Zn  Zn120  1  -0.01338138  0.28128690  0.01619937  1
  Zn  Zn121  1  0.05746413  0.32348286  0.55630314  1
  Zn  Zn122  1  0.01569399  0.77556965  0.02970930  1
  Zn  Zn123  1  0.05796494  0.82122632  0.54764534  1
  Zn  Zn124  1  0.57479837  0.31186734  0.05663522  1
  Zn  Zn125  1  0.54908553  0.32857260  0.57615014  1
  Zn  Zn126  1  0.53302071  0.79979456  0.04934012  1
  Zn  Zn127  1  0.56057679  0.78281906  0.56615071  1
  O  O128  1  0.11547641  0.11565620  0.16657385  1
  O  O129  1  0.13524428  0.11272454  0.61077232  1
  O  O130  1  0.15069095  0.62156717  0.12633658  1
  O  O131  1  0.11465925  0.62004880  0.61718190  1
  O  O132  1  0.61525383  0.12305704  0.12045191  1
  O  O133  1  0.62066090  0.11306499  0.66400763  1
  O  O134  1  0.61489667  0.62633752  0.11567529  1
  O  O135  1  0.63023982  0.63424690  0.60491911  1
  O  O136  1  0.39385793  0.38422012  0.36592704  1
  O  O137  1  0.34464982  0.39992655  0.88549781  1
  O  O138  1  0.33318865  0.89123112  0.36645901  1
  O  O139  1  0.30979625  0.87338815  0.91801907  1
  O  O140  1  0.87506741  0.39496696  0.37099112  1
  O  O141  1  0.87221682  0.37390485  0.85427974  1
  O  O142  1  0.91031921  0.91382019  0.30964252  1
  O  O143  1  0.85820510  0.88189951  0.87248704  1
  O  O144  1  0.26026554  0.02153338  0.39220245  1
  O  O145  1  0.23554384  0.02546617  0.84322233  1
  O  O146  1  0.26511639  0.48335362  0.37607071  1
  O  O147  1  0.23926810  0.51291722  0.86165359  1
  O  O148  1  0.71382980  0.03060499  0.38538857  1
  O  O149  1  0.78663447  0.04222655  0.89961518  1
  O  O150  1  0.75633990  0.50347537  0.37238707  1
  O  O151  1  0.76348486  0.51846375  0.88274555  1
  O  O152  1  0.23706753  0.49071364  0.16770700  1
  O  O153  1  0.23323324  0.50585677  0.62988396  1
  O  O154  1  0.23362762  1.01927909  0.12499926  1
  O  O155  1  0.24770189  0.98664683  0.62506206  1
  O  O156  1  0.76941600  0.47784954  0.11733536  1
  O  O157  1  0.75069645  0.49097550  0.60518139  1
  O  O158  1  0.75484419  1.00937325  0.17408241  1
  O  O159  1  0.71849318  0.98747725  0.61539527  1
  O  O160  1  0.00197855  0.38429532  0.26640957  1
  O  O161  1  0.00547541  0.37991496  0.74247999  1
  O  O162  1  0.04954471  0.90603078  0.24519142  1
  O  O163  1  0.00176564  0.86645833  0.73423093  1
  O  O164  1  0.51049307  0.37348639  0.24829310  1
  O  O165  1  0.54043504  0.40000551  0.79201079  1
  O  O166  1  0.49632257  0.84711552  0.23639333  1
  O  O167  1  0.46826082  0.83829091  0.77424406  1
  O  O168  1  0.50698627  0.14352879  0.23426639  1
  O  O169  1  0.51886324  0.12264361  0.80323152  1
  O  O170  1  0.49506680  0.62790952  0.22919445  1
  O  O171  1  0.49785839  0.62085113  0.75557774  1
  O  O172  1  1.05285610  0.12074118  0.22566863  1
  O  O173  1  0.99508507  0.12371923  0.73434061  1
  O  O174  1  1.01836985  0.62194715  0.22544105  1
  O  O175  1  0.99218156  0.63998655  0.73204755  1
  O  O176  1  0.39390418  0.25372396  0.00255151  1
  O  O177  1  0.38779738  0.25207098  0.50948307  1
  O  O178  1  0.36925546  0.74774120  0.00083285  1
  O  O179  1  0.36754479  0.74174403  0.49920625  1
  O  O180  1  0.88019908  0.22501824  0.02329918  1
  O  O181  1  0.83972382  0.23977806  0.51382032  1
  O  O182  1  0.90388354  0.77117729  -0.01525574  1
  O  O183  1  0.88874417  0.74359441  0.48817396  1
  O  O184  1  0.12446851  0.24110083  0.51188147  1
  O  O185  1  0.13242442  0.25345081  0.98499937  1
  O  O186  1  0.12082091  0.73641030  0.49055404  1
  O  O187  1  0.12015926  0.76746357  0.96362831  1
  O  O188  1  0.62166270  0.25254554  0.52228362  1
  O  O189  1  0.64211838  0.23280403  1.00887375  1
  O  O190  1  0.59570448  0.72227110  0.47714407  1
  O  O191  1  0.61463903  0.73712893  0.98789397  1
  O  O192  1  0.49689242  0.25247110  0.12820444  1
  O  O193  1  0.48019822  0.27474073  0.65865907  1
  O  O194  1  0.48001162  0.72812653  0.12751638  1
  O  O195  1  0.49789307  0.74155822  0.64873901  1
  O  O196  1  1.01243304  0.22041746  0.10867641  1
  O  O197  1  0.96821453  0.26052874  0.58841183  1
  O  O198  1  1.05271874  0.74188002  0.13343910  1
  O  O199  1  0.99471821  0.74461216  0.61754954  1
  O  O200  1  -0.01824418  0.27319269  0.38893572  1
  O  O201  1  0.00500653  0.24239706  0.89951314  1
  O  O202  1  0.03037201  0.73583935  0.35549628  1
  O  O203  1  0.01068265  0.75095685  0.84712419  1
  O  O204  1  0.49337636  0.26623516  0.35564928  1
  O  O205  1  0.50047340  0.19297311  0.83068734  1
  O  O206  1  0.49473992  0.73645218  0.35522679  1
  O  O207  1  0.51840047  0.72241135  0.86826487  1
  O  O208  1  0.24797039  0.14495153  0.50089856  1
  O  O209  1  0.24184491  0.12009951  0.98238210  1
  O  O210  1  0.23551978  0.63913069  0.51248879  1
  O  O211  1  0.22623631  0.63097995  0.97108867  1
  O  O212  1  0.72235149  0.13536267  0.49483212  1
  O  O213  1  0.74697331  0.12959101  1.03663118  1
  O  O214  1  0.72787889  0.61856992  0.48338393  1
  O  O215  1  0.77118553  0.63330975  0.99104913  1
  O  O216  1  0.21528749  0.37958546  0.04526918  1
  O  O217  1  0.25453036  0.35444339  0.49854270  1
  O  O218  1  0.23131646  0.94600888  0.12094294  1
  O  O219  1  0.25038208  0.86205201  0.51427592  1
  O  O220  1  0.77577164  0.35136640  0.02130827  1
  O  O221  1  0.73397729  0.36384759  0.50639000  1
  O  O222  1  0.76293330  0.84930926  -0.00184854  1
  O  O223  1  0.75931592  0.88206158  0.51095616  1
  O  O224  1  0.13430902  0.48637925  0.25046920  1
  O  O225  1  0.11442263  0.49939477  0.73069416  1
  O  O226  1  0.15410598  0.98041212  0.28162586  1
  O  O227  1  0.12994063  0.99545367  0.72721308  1
  O  O228  1  0.62095127  0.48885769  0.24381477  1
  O  O229  1  0.58313251  0.46751278  0.77267538  1
  O  O230  1  0.61136056  0.99335813  0.25463034  1
  O  O231  1  0.64641068  0.99015298  0.77200695  1
  O  O232  1  0.33570699  -0.00863504  0.22650400  1
  O  O233  1  0.36352910  -0.00637517  0.74267190  1
  O  O234  1  0.37227443  0.49524885  0.25706847  1
  O  O235  1  0.35537210  0.49360660  0.74590279  1
  O  O236  1  0.90608094  -0.03454176  0.25886877  1
  O  O237  1  0.87892030  0.01994997  0.73698751  1
  O  O238  1  0.87883335  0.50673104  0.25546371  1
  O  O239  1  0.88633511  0.52455121  0.73924256  1
  O  O240  1  0.10252141  0.38231534  0.38507006  1
  O  O241  1  0.12009453  0.35573117  0.85475658  1
  O  O242  1  0.12357150  0.86062480  0.39102287  1
  O  O243  1  0.13734910  0.86548842  0.84268417  1
  O  O244  1  0.61102569  0.38234987  0.35790673  1
  O  O245  1  0.67703407  0.37563383  0.88278370  1
  O  O246  1  0.62160428  0.84731741  0.38463348  1
  O  O247  1  0.63000325  0.85708903  0.89054080  1
  O  O248  1  0.39784353  0.13871711  0.11240894  1
  O  O249  1  0.44536952  0.11718359  0.60494873  1
  O  O250  1  0.33693185  0.64116764  0.11577315  1
  O  O251  1  0.36341995  0.62332743  0.62488120  1
  O  O252  1  0.90714433  0.09699074  0.13644812  1
  O  O253  1  0.85726579  0.13802434  0.63139085  1
  O  O254  1  0.87218982  0.65487139  0.13507900  1
  O  O255  1  0.88374351  0.64052661  0.62028259  1
  O  O256  1  0.27649920  0.23523055  0.11488495  1
  O  O257  1  0.26862377  0.24992801  0.61624054  1
  O  O258  1  0.25598832  0.77696309  0.11708322  1
  O  O259  1  0.24735327  0.76241227  0.61896874  1
  O  O260  1  0.75632852  0.25711802  0.12944424  1
  O  O261  1  0.74473461  0.26261304  0.62000214  1
  O  O262  1  0.75765520  0.76996712  0.17522496  1
  O  O263  1  0.77178310  0.75516782  0.61025663  1
  O  O264  1  0.27542772  0.23859354  0.39340957  1
  O  O265  1  0.23477774  0.24057133  0.85954612  1
  O  O266  1  0.24372240  0.74960111  0.40313899  1
  O  O267  1  0.23458370  0.73713710  0.84517699  1
  O  O268  1  0.73130816  0.24094960  0.39243152  1
  O  O269  1  0.77268122  0.22856109  0.91543037  1
  O  O270  1  0.72384186  0.73046060  0.36704456  1
  O  O271  1  0.73253941  0.73564132  0.86344681  1
  O  O272  1  0.01961852  0.10120175  0.01120658  1
  O  O273  1  0.01920323  0.12145291  0.49670232  1
  O  O274  1  0.00934495  0.64930890  0.02546862  1
  O  O275  1  0.01517102  0.61555560  0.49982845  1
  O  O276  1  0.52088517  0.12904567  0.01074696  1
  O  O277  1  0.49240795  0.12207000  0.54955924  1
  O  O278  1  0.48416645  0.61345104  0.01998709  1
  O  O279  1  0.50340045  0.60397266  0.49828443  1
  O  O280  1  0.50883869  0.38502309  0.48231011  1
  O  O281  1  0.50827342  0.38910889  1.00775548  1
  O  O282  1  0.50196240  0.87773918  0.50318928  1
  O  O283  1  0.47993238  0.86769120  0.96702497  1
  O  O284  1  0.99705507  0.40047729  0.49213658  1
  O  O285  1  0.98549436  0.39312255  1.01242316  1
  O  O286  1  0.99846860  0.90128659  0.49200618  1
  O  O287  1  1.00612917  0.89004228  0.99643918  1
  O  O288  1  0.48998505  0.49024366  0.37335377  1
  O  O289  1  0.46274231  0.51172453  0.90699269  1
  O  O290  1  0.46033651  0.98872161  0.35089644  1
  O  O291  1  0.50419769  1.06190919  0.85304634  1
  O  O292  1  0.98339582  0.50521998  0.38089062  1
  O  O293  1  1.02455101  0.49986909  0.88917886  1
  O  O294  1  0.99337294  1.02113183  0.38703422  1
  O  O295  1  1.01440005  1.01595073  0.89179487  1
  O  O296  1  0.03243408  0.00003346  0.10391472  1
  O  O297  1  0.01382610  0.00602226  0.60605903  1
  O  O298  1  0.00693388  0.52078296  0.11110091  1
  O  O299  1  0.00769439  0.51366791  0.60668489  1
  O  O300  1  0.49293033  0.01620902  0.13545806  1
  O  O301  1  0.53930468  -0.02704032  0.65007065  1
  O  O302  1  0.49803353  0.50812437  0.11715052  1
  O  O303  1  0.48580478  0.48560394  0.60979516  1
  O  O304  1  0.21786687  0.34385090  0.26406073  1
  O  O305  1  0.22462073  0.39824675  0.74931071  1
  O  O306  1  0.32211717  0.92311041  0.20618097  1
  O  O307  1  0.24290046  0.88255298  0.73219358  1
  O  O308  1  0.73840570  0.36842088  0.24390547  1
  O  O309  1  0.74221274  0.39748652  0.73508468  1
  O  O310  1  0.75000315  0.91628787  0.30421855  1
  O  O311  1  0.78029972  0.87630499  0.71195241  1
  O  O312  1  0.25058464  0.13868907  0.27432527  1
  O  O313  1  0.26053775  0.11345510  0.72265590  1
  O  O314  1  0.20331599  0.52006812  0.23071091  1
  O  O315  1  0.23862838  0.60820420  0.75095631  1
  O  O316  1  0.71437037  0.12285814  0.27993514  1
  O  O317  1  0.75987518  0.13186767  0.76253870  1
  O  O318  1  0.73553496  0.61631526  0.25773298  1
  O  O319  1  0.76648949  0.62843694  0.72982103  1
  O  O320  1  0.37067582  0.11066902  0.38415934  1
  O  O321  1  0.35218880  0.13485145  0.87320758  1
  O  O322  1  0.37154115  0.60481729  0.37353217  1
  O  O323  1  0.34960707  0.61395990  0.87555719  1
  O  O324  1  0.88927368  0.16425197  0.29790919  1
  O  O325  1  0.88324517  0.14961200  0.84462258  1
  O  O326  1  0.85118611  0.61369185  0.37477816  1
  O  O327  1  0.86145944  0.63984006  0.85209704  1
  O  O328  1  0.17527401  0.36501569  0.10327794  1
  O  O329  1  0.11602971  0.39324893  0.62516816  1
  O  O330  1  0.12190475  0.92461282  0.23312645  1
  O  O331  1  0.12610286  0.88740044  0.62296411  1
  O  O332  1  0.63747686  0.37700270  0.13190486  1
  O  O333  1  0.63219581  0.38344187  0.63373143  1
  O  O334  1  0.60928787  0.86576871  0.10037214  1
  O  O335  1  0.64308213  0.84309761  0.61947083  1
  O  O336  1  0.16286581  0.29630749  0.24570818  1
  O  O337  1  0.11754183  0.26706392  0.72499883  1
  O  O338  1  0.17995815  0.76466748  0.27550327  1
  O  O339  1  0.10993852  0.76066091  0.73346634  1
  O  O340  1  0.60854956  0.26699337  0.24165440  1
  O  O341  1  0.63516649  0.27231042  0.76763810  1
  O  O342  1  0.60529742  0.74033642  0.26098805  1
  O  O343  1  0.61309943  0.74530664  0.75591595  1
  O  O344  1  0.39301303  0.26006045  0.23251403  1
  O  O345  1  0.38700252  0.27616145  0.75046222  1
  O  O346  1  0.37321140  0.74930803  0.23651765  1
  O  O347  1  0.40481879  0.78058360  0.77088638  1
  O  O348  1  0.87003755  0.22461007  0.26179702  1
  O  O349  1  0.88244488  0.24351207  0.72586811  1
  O  O350  1  0.87286440  0.75235490  0.28256272  1
  O  O351  1  0.88851983  0.74850842  0.73693101  1
  O  O352  1  0.38497742  0.49560848  0.48735381  1
  O  O353  1  0.32563507  0.50436784  1.00404701  1
  O  O354  1  0.37934945  0.98979856  0.49690587  1
  O  O355  1  0.37384444  0.98739197  1.00759520  1
  O  O356  1  0.88260583  0.51182670  0.49762728  1
  O  O357  1  0.90668213  0.53797263  0.99230218  1
  O  O358  1  0.88077316  1.01837742  0.50478889  1
  O  O359  1  0.87238307  0.95810900  1.03292431  1
  O  O360  1  0.14456788  -0.02316378  -0.01280961  1
  O  O361  1  0.13338794  0.00711615  0.50706915  1
  O  O362  1  0.11353766  0.49983612  0.00863443  1
  O  O363  1  0.13091580  0.51209539  0.50887118  1
  O  O364  1  0.63493308  0.01419553  -0.00925927  1
  O  O365  1  0.54183062  -0.06139217  0.49280519  1
  O  O366  1  0.60844981  0.50695740  -0.01387208  1
  O  O367  1  0.60879772  0.50700752  0.49755501  1
  O  O368  1  0.37383113  0.36419856  0.11684262  1
  O  O369  1  0.41820876  0.31413954  0.68919923  1
  O  O370  1  0.38746645  0.85550061  0.09723895  1
  O  O371  1  0.36737961  0.87386172  0.62673163  1
  O  O372  1  0.87552920  0.36890597  0.15137781  1
  O  O373  1  0.85222929  0.36596733  0.63480347  1
  O  O374  1  0.91053833  0.82467533  0.14064298  1
  O  O375  1  0.88953929  0.85719857  0.60336845  1
  O  O376  1  0.14581445  0.12722741  0.39371272  1
  O  O377  1  0.12970380  0.14564406  0.85822548  1
  O  O378  1  0.13271598  0.61912742  0.38625711  1
  O  O379  1  0.12427737  0.64382703  0.85470340  1
  O  O380  1  0.58829931  0.13241360  0.39163811  1
  O  O381  1  0.65597601  0.12859017  0.89753416  1
  O  O382  1  0.62724159  0.61781655  0.37592647  1
  O  O383  1  0.64465260  0.62205911  0.87455867  1
