# generated using pymatgen
data_VZnO4
_symmetry_space_group_name_H-M   'P 1'
_cell_length_a   16.94939110
_cell_length_b   16.92231427
_cell_length_c   16.95396257
_cell_angle_alpha   90.64696296
_cell_angle_beta   90.01066452
_cell_angle_gamma   90.39514667
_symmetry_Int_Tables_number   1
_chemical_formula_structural   VZnO4
_chemical_formula_sum   'V64 Zn64 O256'
_cell_volume   4862.35928999
_cell_formula_units_Z   64
loop_
 _symmetry_equiv_pos_site_id
 _symmetry_equiv_pos_as_xyz
  1  'x, y, z'
loop_
 _atom_site_type_symbol
 _atom_site_label
 _atom_site_symmetry_multiplicity
 _atom_site_fract_x
 _atom_site_fract_y
 _atom_site_fract_z
 _atom_site_occupancy
  V  V0  1  0.75370355  0.88265484  0.61902483  1
  V  V1  1  0.51420403  0.13238472  0.62140061  1
  V  V2  1  0.25052472  0.24937309  0.50832144  1
  V  V3  1  0.25556186  0.25022451  0.01204156  1
  V  V4  1  0.86871981  0.73788682  0.12657552  1
  V  V5  1  0.00114406  0.49659627  -0.03698354  1
  V  V6  1  0.13902315  -0.00942131  0.63668851  1
  V  V7  1  0.49149779  0.59612403  0.62756531  1
  V  V8  1  0.13792927  0.38013205  0.24529471  1
  V  V9  1  0.61775561  0.12095051  -0.00199057  1
  V  V10  1  0.00006310  0.12146164  0.62876727  1
  V  V11  1  0.24521629  0.10592742  0.37375188  1
  V  V12  1  0.85516826  0.50229074  0.37854239  1
  V  V13  1  0.41893235  -0.04406036  0.88175158  1
  V  V14  1  0.50356898  0.39170284  0.87776816  1
  V  V15  1  -0.00855325  0.88060811  0.84694423  1
  V  V16  1  0.87488949  0.00744072  0.36322076  1
  V  V17  1  0.73730879  0.37417983  0.62888892  1
  V  V18  1  0.30090847  0.80913591  0.58162593  1
  V  V19  1  0.86754249  0.38419028  0.01049195  1
  V  V20  1  0.74265816  0.88857425  0.11438330  1
  V  V21  1  0.13765616  0.62752871  -0.00042352  1
  V  V22  1  0.87252971  0.12476193  0.76428851  1
  V  V23  1  0.40525390  0.00268317  0.37602602  1
  V  V24  1  0.13372204  0.75418447  0.85211777  1
  V  V25  1  0.76753471  0.61438953  0.89005362  1
  V  V26  1  0.88194335  0.37159781  0.50687256  1
  V  V27  1  0.74579907  0.12304413  0.36524457  1
  V  V28  1  0.61143164  0.00500773  0.15629137  1
  V  V29  1  0.48847771  0.14210283  0.12630383  1
  V  V30  1  0.74515432  0.25772662  0.03173544  1
  V  V31  1  0.34702479  0.49940161  0.86957390  1
  V  V32  1  0.62004216  0.83954508  0.24658494  1
  V  V33  1  0.00575322  0.37184726  0.37806467  1
  V  V34  1  0.62482685  0.85567222  0.74669888  1
  V  V35  1  0.38009685  0.64807033  0.23930341  1
  V  V36  1  0.63530190  0.25948067  0.87722850  1
  V  V37  1  0.01585298  0.77197942  0.25419496  1
  V  V38  1  0.00756954  0.26658921  0.75462273  1
  V  V39  1  0.12516001  0.25830819  0.88768900  1
  V  V40  1  0.87941699  0.24929228  0.62643069  1
  V  V41  1  0.75289931  0.00382164  0.76780644  1
  V  V42  1  0.37390598  0.23359233  0.63809036  1
  V  V43  1  0.87397523  0.75275227  0.63088171  1
  V  V44  1  -0.00082729  -0.00450964  0.49297585  1
  V  V45  1  0.74146262  0.24097723  0.49693309  1
  V  V46  1  0.35639050  0.76618797  0.11476813  1
  V  V47  1  0.02621653  0.60537805  0.16515131  1
  V  V48  1  0.12748563  0.11857023  0.50370827  1
  V  V49  1  0.51790963  0.85089005  0.38502720  1
  V  V50  1  0.25348505  0.37319143  0.64329256  1
  V  V51  1  0.01057129  0.63871730  0.63226862  1
  V  V52  1  0.00843997  0.51031568  0.50084194  1
  V  V53  1  -0.00193842  0.23653664  0.22720367  1
  V  V54  1  0.36983509  0.13475610  0.24743803  1
  V  V55  1  0.63370702  0.72794246  0.89083914  1
  V  V56  1  0.87301978  0.86966290  0.48674154  1
  V  V57  1  0.12222028  0.24388746  0.37902822  1
  V  V58  1  0.37182806  0.38833990  0.01490781  1
  V  V59  1  0.25976406  0.12435482  0.86347403  1
  V  V60  1  0.49478304  0.24277653  0.76449058  1
  V  V61  1  0.12820932  0.49514997  0.63644607  1
  V  V62  1  0.63131093  0.01043295  0.61610174  1
  V  V63  1  0.26725311  0.65881885  0.37639730  1
  Zn  Zn64  1  0.21398184  0.22598781  0.21481546  1
  Zn  Zn65  1  0.18390643  0.18253434  0.69460834  1
  Zn  Zn66  1  0.19318379  0.68808438  0.18346126  1
  Zn  Zn67  1  0.18873538  0.70628518  0.66412571  1
  Zn  Zn68  1  0.67624965  0.18791098  0.19444849  1
  Zn  Zn69  1  0.69168303  0.19744054  0.69694183  1
  Zn  Zn70  1  0.70493813  0.69078403  0.05924817  1
  Zn  Zn71  1  0.66237140  0.70759110  0.60420899  1
  Zn  Zn72  1  0.31734085  0.30937311  0.32690787  1
  Zn  Zn73  1  0.31245017  0.31377979  0.82325282  1
  Zn  Zn74  1  0.34261655  0.81687354  0.31497657  1
  Zn  Zn75  1  0.31470128  0.80632613  0.79536551  1
  Zn  Zn76  1  0.83642354  0.29263324  0.32384732  1
  Zn  Zn77  1  0.80767838  0.35406950  0.82179401  1
  Zn  Zn78  1  0.81117622  0.81747367  0.29793996  1
  Zn  Zn79  1  0.80718459  0.80947388  0.81728801  1
  Zn  Zn80  1  0.18449311  0.42820607  0.45002021  1
  Zn  Zn81  1  0.18592457  0.43444638  0.94442332  1
  Zn  Zn82  1  0.18753074  0.91709457  0.44791657  1
  Zn  Zn83  1  0.16766076  0.95468633  0.83174673  1
  Zn  Zn84  1  0.69657291  0.52551884  0.50059686  1
  Zn  Zn85  1  0.68981126  0.44530806  0.94633634  1
  Zn  Zn86  1  0.68596476  0.93712459  0.42892737  1
  Zn  Zn87  1  0.61582473  0.90594842  0.95263957  1
  Zn  Zn88  1  0.31098298  0.06383126  0.04291224  1
  Zn  Zn89  1  0.33345753  -0.02209366  0.56960364  1
  Zn  Zn90  1  0.35369457  0.62081545  0.00751376  1
  Zn  Zn91  1  0.30095305  0.55163959  0.54726768  1
  Zn  Zn92  1  0.78833391  0.05447665  0.05921007  1
  Zn  Zn93  1  0.81583086  0.06202898  0.55878543  1
  Zn  Zn94  1  0.87420685  0.57941227  0.05346605  1
  Zn  Zn95  1  0.80482535  0.57098968  0.63264495  1
  Zn  Zn96  1  0.43860681  0.48715438  0.17439013  1
  Zn  Zn97  1  0.43183967  0.42256203  0.70039813  1
  Zn  Zn98  1  0.44152726  0.93775791  0.21020183  1
  Zn  Zn99  1  0.44644998  0.95187091  0.70631652  1
  Zn  Zn100  1  0.93155571  0.43430505  0.19962234  1
  Zn  Zn101  1  0.93217538  0.44775800  0.69389821  1
  Zn  Zn102  1  0.93356687  0.91930315  0.18443824  1
  Zn  Zn103  1  0.93505962  0.94246753  0.68379894  1
  Zn  Zn104  1  0.06060521  0.05968796  0.30054839  1
  Zn  Zn105  1  0.05844337  0.07478787  0.82343467  1
  Zn  Zn106  1  0.10047846  0.55404105  0.34258558  1
  Zn  Zn107  1  0.06850896  0.57553287  0.81009734  1
  Zn  Zn108  1  0.56104570  0.11124862  0.31831337  1
  Zn  Zn109  1  0.57296885  0.06621176  0.81420245  1
  Zn  Zn110  1  0.58842781  0.61829301  0.22647523  1
  Zn  Zn111  1  0.49456902  0.60630296  0.85021448  1
  Zn  Zn112  1  0.40595232  0.13817394  0.47603303  1
  Zn  Zn113  1  0.43344476  0.19432732  0.94499376  1
  Zn  Zn114  1  0.41820020  0.68475627  0.45611794  1
  Zn  Zn115  1  0.45756226  0.78166416  0.93469287  1
  Zn  Zn116  1  0.93936348  0.18103751  0.43804110  1
  Zn  Zn117  1  0.90831794  0.23754690  0.91686410  1
  Zn  Zn118  1  0.93656947  0.68582418  0.42948933  1
  Zn  Zn119  1  0.93973545  0.68860164  0.91993353  1
  Zn  Zn120  1  0.06347727  0.32847331  0.06287610  1
  Zn  Zn121  1  0.06608228  0.31225182  0.56863252  1
  Zn  Zn122  1  0.02571667  0.79222577  0.01469723  1
  Zn  Zn123  1  0.07368175  0.81338289  0.54737832  1
  Zn  Zn124  1  0.55263544  0.32012375  0.06150300  1
  Zn  Zn125  1  0.59667761  0.36296750  0.50498517  1
  Zn  Zn126  1  0.45183560  0.93540172  0.04857574  1
  Zn  Zn127  1  0.48294455  0.83153063  0.56866305  1
  O  O128  1  0.17174072  0.04842216  0.15757423  1
  O  O129  1  0.11634981  0.11919589  0.62041595  1
  O  O130  1  0.12210187  0.60737491  0.11955712  1
  O  O131  1  0.11598477  0.61556024  0.62204503  1
  O  O132  1  0.60450209  0.11995472  0.12487598  1
  O  O133  1  0.62474889  0.12428594  0.63419574  1
  O  O134  1  0.66542860  0.60738966  0.13142601  1
  O  O135  1  0.59456174  0.60309982  0.62162216  1
  O  O136  1  0.38625216  0.34669218  0.41195316  1
  O  O137  1  0.38206245  0.38852735  0.88527832  1
  O  O138  1  0.40701213  0.89408266  0.37079856  1
  O  O139  1  0.39294234  0.85132793  0.86454621  1
  O  O140  1  0.89058570  0.37263304  0.39001847  1
  O  O141  1  0.88025793  0.34916809  0.90203779  1
  O  O142  1  0.86095800  0.88599409  0.38311400  1
  O  O143  1  0.89250727  0.86603393  0.86848465  1
  O  O144  1  0.23590767  0.00606164  0.38551530  1
  O  O145  1  0.23821714  0.02387942  0.88060144  1
  O  O146  1  0.28733590  0.46692778  0.40222768  1
  O  O147  1  0.24747561  0.50081009  0.87283578  1
  O  O148  1  0.76348183  0.01139971  0.37786436  1
  O  O149  1  0.75057950  0.00143362  0.86304888  1
  O  O150  1  0.75935886  0.49776799  0.40606684  1
  O  O151  1  0.75215774  0.51202833  0.87946563  1
  O  O152  1  0.26481516  0.49370632  0.15589940  1
  O  O153  1  0.24023911  0.48597269  0.61832912  1
  O  O154  1  0.23030832  1.00799451  0.12251970  1
  O  O155  1  0.23696785  1.00857457  0.62659491  1
  O  O156  1  0.68398243  0.53038210  0.09490951  1
  O  O157  1  0.75307816  0.47025933  0.59693051  1
  O  O158  1  0.71623094  1.00499826  0.13167614  1
  O  O159  1  0.74848331  1.00140081  0.63012488  1
  O  O160  1  0.01656904  0.37248938  0.26521104  1
  O  O161  1  -0.00940079  0.36396064  0.74594546  1
  O  O162  1  0.02046092  0.87358029  0.24701311  1
  O  O163  1  -0.00431863  0.87301243  0.74715343  1
  O  O164  1  0.44499728  0.43951809  0.29934405  1
  O  O165  1  0.49988768  0.36359227  0.77157225  1
  O  O166  1  0.51894549  0.87510646  0.26909208  1
  O  O167  1  0.52713115  0.87525039  0.74017427  1
  O  O168  1  0.48269820  0.12858199  0.23787708  1
  O  O169  1  0.50640239  0.13985136  0.75534623  1
  O  O170  1  0.47144013  0.58849016  0.21877061  1
  O  O171  1  0.49728706  0.58821900  0.73200313  1
  O  O172  1  1.00143074  0.13704841  0.24405565  1
  O  O173  1  0.98968119  0.12832625  0.74279031  1
  O  O174  1  1.03287316  0.59168449  0.26200313  1
  O  O175  1  1.00121960  0.63026279  0.73040934  1
  O  O176  1  0.36283861  0.26742726  0.00360139  1
  O  O177  1  0.35607011  0.22880403  0.52250343  1
  O  O178  1  0.38294636  0.74159721  0.01552593  1
  O  O179  1  0.38527090  0.76514164  0.53645880  1
  O  O180  1  0.84805742  0.24980126  0.01562085  1
  O  O181  1  0.88683759  0.25250315  0.51378113  1
  O  O182  1  0.91243305  0.75025126  0.03332198  1
  O  O183  1  0.88036375  0.76792019  0.49433005  1
  O  O184  1  0.12677378  0.23657423  0.49895970  1
  O  O185  1  0.13210398  0.26129295  0.99291019  1
  O  O186  1  0.11616368  0.83287369  0.44722264  1
  O  O187  1  0.11712037  0.72548483  1.02231248  1
  O  O188  1  0.64433745  0.25542995  0.49220616  1
  O  O189  1  0.63104867  0.25424920  0.99855732  1
  O  O190  1  0.57212204  0.75998434  0.56113746  1
  O  O191  1  0.63540597  0.74731856  0.98962294  1
  O  O192  1  0.49415092  0.24074181  0.12621599  1
  O  O193  1  0.49477608  0.24265471  0.64869163  1
  O  O194  1  0.52526430  0.63654194  0.05496662  1
  O  O195  1  0.47565693  0.69598199  0.64958863  1
  O  O196  1  1.01516230  0.24929815  0.13004547  1
  O  O197  1  0.99886924  0.24100904  0.63531161  1
  O  O198  1  0.98616794  0.70409434  0.16023600  1
  O  O199  1  1.00505272  0.74350703  0.61063316  1
  O  O200  1  0.00885086  0.25416777  0.37890672  1
  O  O201  1  0.01237269  0.24709352  0.86330970  1
  O  O202  1  -0.01743432  0.74482907  0.34518274  1
  O  O203  1  0.01515243  0.77293655  0.89659793  1
  O  O204  1  0.45631075  0.30891774  0.42140478  1
  O  O205  1  0.50411464  0.25631856  0.87314759  1
  O  O206  1  0.49344347  0.75480698  0.39537383  1
  O  O207  1  0.52634476  0.71506010  0.86925110  1
  O  O208  1  0.23439939  0.12838339  0.49358600  1
  O  O209  1  0.25199664  0.14524016  0.98979782  1
  O  O210  1  0.30913104  0.63123793  0.47019930  1
  O  O211  1  0.23518637  0.62051727  1.00150618  1
  O  O212  1  0.75847218  0.13761061  0.49764405  1
  O  O213  1  0.72555360  0.14439034  1.01847725  1
  O  O214  1  0.72478868  0.61863046  0.56283653  1
  O  O215  1  0.77915174  0.62839020  0.99305227  1
  O  O216  1  0.26044622  0.36829387  0.00523759  1
  O  O217  1  0.23964385  0.35309376  0.51793564  1
  O  O218  1  0.24110793  0.88882413  0.00514001  1
  O  O219  1  0.27206339  0.88758939  0.52043975  1
  O  O220  1  0.75580710  0.36956255  0.00786622  1
  O  O221  1  0.77175062  0.35044861  0.50896387  1
  O  O222  1  0.71321351  0.89220962  0.01914003  1
  O  O223  1  0.76307142  0.88770506  0.50742390  1
  O  O224  1  0.15268171  0.47353210  0.27864474  1
  O  O225  1  0.12458549  0.50789882  0.73477559  1
  O  O226  1  0.14224117  1.00976351  0.22106524  1
  O  O227  1  0.12204348  1.00768869  0.73933526  1
  O  O228  1  0.61107443  0.48524915  0.23150050  1
  O  O229  1  0.66829584  0.52537917  0.73587870  1
  O  O230  1  0.61258454  1.01982343  0.25287383  1
  O  O231  1  0.64577884  1.00686120  0.74587240  1
  O  O232  1  0.37603912  0.01124295  0.27032190  1
  O  O233  1  0.38092782  -0.01112439  0.79491352  1
  O  O234  1  0.31318723  0.49439978  0.21163579  1
  O  O235  1  0.37091234  0.48877028  0.77179092  1
  O  O236  1  0.88524426  -0.00868975  0.26639678  1
  O  O237  1  0.86778207  0.01617079  0.74702573  1
  O  O238  1  0.86217766  0.47320579  0.28015943  1
  O  O239  1  0.86176637  0.52689777  0.71724025  1
  O  O240  1  0.12156579  0.35804819  0.38086946  1
  O  O241  1  0.13235735  0.35798033  0.87207732  1
  O  O242  1  0.18334339  0.88066228  0.29249151  1
  O  O243  1  0.11502824  0.86212437  0.85939050  1
  O  O244  1  0.59182357  0.34834405  0.34366229  1
  O  O245  1  0.61304789  0.36919573  0.89221268  1
  O  O246  1  0.62927670  0.85779807  0.36027017  1
  O  O247  1  0.63894357  0.84269677  0.85403844  1
  O  O248  1  0.37883438  0.11643734  0.13411192  1
  O  O249  1  0.39713160  0.13055371  0.63453124  1
  O  O250  1  0.35984902  0.65062874  0.12945938  1
  O  O251  1  0.38699844  0.58119988  0.62269227  1
  O  O252  1  0.90050979  0.10007792  0.07472654  1
  O  O253  1  0.88635817  0.13218251  0.62647942  1
  O  O254  1  0.84088421  0.64276120  0.14327305  1
  O  O255  1  0.89119404  0.64980342  0.61016268  1
  O  O256  1  0.24043660  0.24268913  0.10935145  1
  O  O257  1  0.25207223  0.25320481  0.62882022  1
  O  O258  1  0.25769650  0.77051550  0.12659618  1
  O  O259  1  0.22555747  0.74097806  0.56393522  1
  O  O260  1  0.73260181  0.26343907  0.13027129  1
  O  O261  1  0.76189940  0.25093331  0.61728250  1
  O  O262  1  0.76773512  0.77596842  0.11114721  1
  O  O263  1  0.76602813  0.76840204  0.61804993  1
  O  O264  1  0.23767393  0.23729444  0.38901661  1
  O  O265  1  0.24130018  0.24787357  0.88456221  1
  O  O266  1  0.26905323  0.76017491  0.37862448  1
  O  O267  1  0.23284675  0.76297045  0.86810770  1
  O  O268  1  0.76586831  0.23698160  0.38872437  1
  O  O269  1  0.73461923  0.26332254  0.87867318  1
  O  O270  1  0.76113983  0.72348138  0.35296935  1
  O  O271  1  0.74058225  0.72499613  0.85494166  1
  O  O272  1  -0.07507405  0.06850166  0.00484653  1
  O  O273  1  0.00915803  0.11800399  0.50846794  1
  O  O274  1  -0.01912705  0.60045029  -0.00869654  1
  O  O275  1  0.00137451  0.61236053  0.49997766  1
  O  O276  1  0.50549002  0.13316641  0.01452307  1
  O  O277  1  0.51106081  0.14015405  0.52274280  1
  O  O278  1  0.48458470  0.57520103  0.04588880  1
  O  O279  1  0.48692793  0.60951198  0.52390733  1
  O  O280  1  0.48541832  0.32228211  0.49385702  1
  O  O281  1  0.48413245  0.37256281  0.98639795  1
  O  O282  1  0.52414558  0.89127706  0.47620738  1
  O  O283  1  0.51016498  0.87392635  0.97710752  1
  O  O284  1  0.99994490  0.37471053  0.49722030  1
  O  O285  1  0.99408281  0.39539630  1.00123136  1
  O  O286  1  0.98162029  0.88817594  0.50337554  1
  O  O287  1  1.00118375  0.88523976  1.07712205  1
  O  O288  1  0.49287210  0.46864941  0.34751695  1
  O  O289  1  0.51134729  0.49100750  0.87450746  1
  O  O290  1  0.50109043  1.02709535  0.37622611  1
  O  O291  1  0.51562477  0.98839180  0.87348446  1
  O  O292  1  1.01490143  0.48584268  0.39206555  1
  O  O293  1  1.00104957  0.49605457  0.86409228  1
  O  O294  1  0.99188077  1.00814012  0.38330394  1
  O  O295  1  1.01381064  0.97987466  0.87107637  1
  O  O296  1  0.01168357  0.00788757  0.12599310  1
  O  O297  1  0.00120685  0.01024028  0.61566167  1
  O  O298  1  -0.03386212  0.52733354  0.13227346  1
  O  O299  1  0.01000302  0.50756990  0.61585117  1
  O  O300  1  0.50357191  0.00559176  0.12886386  1
  O  O301  1  0.52145015  0.02173603  0.63875987  1
  O  O302  1  0.56887284  0.44369221  0.17890111  1
  O  O303  1  0.49605376  0.48932578  0.62391456  1
  O  O304  1  0.23648134  0.33982974  0.25446272  1
  O  O305  1  0.24736606  0.36873583  0.74154034  1
  O  O306  1  0.24662607  0.88084373  0.25494570  1
  O  O307  1  0.28507076  0.80834822  0.68822602  1
  O  O308  1  0.63560974  0.30378183  0.30272732  1
  O  O309  1  0.75418982  0.37170980  0.73027424  1
  O  O310  1  0.72605272  0.86287443  0.23505322  1
  O  O311  1  0.75171520  0.89038758  0.74127671  1
  O  O312  1  0.25830532  0.13032646  0.26146639  1
  O  O313  1  0.25704843  0.13541456  0.76262499  1
  O  O314  1  0.27072670  0.64003903  0.25897934  1
  O  O315  1  0.26664533  0.63254302  0.73115728  1
  O  O316  1  0.74829083  0.13533903  0.26549956  1
  O  O317  1  0.76553497  0.12173810  0.74919395  1
  O  O318  1  0.73366596  0.66854897  0.30009628  1
  O  O319  1  0.70767253  0.58711414  0.73554697  1
  O  O320  1  0.36470349  0.11980627  0.36496044  1
  O  O321  1  0.36069720  0.13462071  0.88111146  1
  O  O322  1  0.38505477  0.64059098  0.34458718  1
  O  O323  1  0.38663756  0.59764689  0.89463765  1
  O  O324  1  0.87066609  0.11358638  0.37520873  1
  O  O325  1  0.88090752  0.13884897  0.86192185  1
  O  O326  1  0.88068243  0.59930942  0.38105259  1
  O  O327  1  0.86303820  0.63279761  0.85906850  1
  O  O328  1  0.12275079  0.38416103  0.14638218  1
  O  O329  1  0.13175661  0.38614033  0.62910872  1
  O  O330  1  0.17326355  0.89464067  0.02946833  1
  O  O331  1  0.12212290  0.89261237  0.62333752  1
  O  O332  1  0.61077229  0.38124347  0.14444437  1
  O  O333  1  0.63937611  0.35984691  0.61737188  1
  O  O334  1  0.61678402  0.89397707  0.14824135  1
  O  O335  1  0.64110129  0.89899253  0.63552557  1
  O  O336  1  0.11068373  0.25353702  0.26383739  1
  O  O337  1  0.10889130  0.25392005  0.74739065  1
  O  O338  1  0.11220796  0.74239548  0.24274069  1
  O  O339  1  0.12643094  0.73499781  0.75470602  1
  O  O340  1  0.59558361  0.23500141  0.26729174  1
  O  O341  1  0.61709251  0.25044115  0.77140699  1
  O  O342  1  0.60563743  0.74298532  0.22453569  1
  O  O343  1  0.63716314  0.76122685  0.71741588  1
  O  O344  1  0.37334299  0.23471216  0.25624719  1
  O  O345  1  0.38726038  0.25319277  0.75268205  1
  O  O346  1  0.39293736  0.75332691  0.22914356  1
  O  O347  1  0.32122581  0.66803809  0.76838692  1
  O  O348  1  0.89982434  0.26443152  0.24036820  1
  O  O349  1  0.88697828  0.23898274  0.74068268  1
  O  O350  1  0.89037804  0.79636690  0.21520236  1
  O  O351  1  0.87488081  0.75812708  0.72838556  1
  O  O352  1  0.33976283  0.47608904  0.45923286  1
  O  O353  1  0.36029615  0.48881844  0.99239890  1
  O  O354  1  0.37766570  1.02430216  0.47684600  1
  O  O355  1  0.37832835  0.99245361  0.97664008  1
  O  O356  1  0.89758550  0.48434934  0.49447274  1
  O  O357  1  0.87753142  0.48477467  0.98710979  1
  O  O358  1  0.88370883  0.99585442  0.49018378  1
  O  O359  1  0.86948473  1.02010314  0.97380226  1
  O  O360  1  0.03867058  -0.03796845  0.07139954  1
  O  O361  1  0.11623607  0.00586341  0.51136125  1
  O  O362  1  0.10710062  0.51282345  -0.01507068  1
  O  O363  1  0.11537928  0.49544254  0.51142711  1
  O  O364  1  0.62178185  0.02216258  -0.00561135  1
  O  O365  1  0.63686495  0.00258175  0.51795339  1
  O  O366  1  0.63946406  0.51571468  0.03261364  1
  O  O367  1  0.60137628  0.47038809  0.48302677  1
  O  O368  1  0.40120442  0.39987014  0.11256507  1
  O  O369  1  0.35953051  0.36049548  0.63248107  1
  O  O370  1  0.39575017  0.86596947  0.12651447  1
  O  O371  1  0.40194246  0.89843635  0.61705300  1
  O  O372  1  0.88278527  0.38005190  0.10960008  1
  O  O373  1  0.88255499  0.36271233  0.62056451  1
  O  O374  1  0.83858622  0.92075484  0.11551839  1
  O  O375  1  0.87163317  0.87274906  0.61212531  1
  O  O376  1  0.12576107  0.12658012  0.38139626  1
  O  O377  1  0.13553659  0.14716426  0.86838101  1
  O  O378  1  0.17325288  0.62369081  0.38828082  1
  O  O379  1  0.11546577  0.64586037  0.88981891  1
  O  O380  1  0.64818830  0.12115589  0.38728316  1
  O  O381  1  0.61792801  0.14487382  0.89330830  1
  O  O382  1  0.66870837  0.63085885  0.32328164  1
  O  O383  1  0.64708464  0.62500414  0.88655651  1
