# generated using pymatgen
data_VZnO4
_symmetry_space_group_name_H-M   'P 1'
_cell_length_a   16.91041886
_cell_length_b   16.77360515
_cell_length_c   16.90055827
_cell_angle_alpha   90.46287562
_cell_angle_beta   90.00448330
_cell_angle_gamma   89.99858171
_symmetry_Int_Tables_number   1
_chemical_formula_structural   VZnO4
_chemical_formula_sum   'V64 Zn64 O256'
_cell_volume   4793.66474263
_cell_formula_units_Z   64
loop_
 _symmetry_equiv_pos_site_id
 _symmetry_equiv_pos_as_xyz
  1  'x, y, z'
loop_
 _atom_site_type_symbol
 _atom_site_label
 _atom_site_symmetry_multiplicity
 _atom_site_fract_x
 _atom_site_fract_y
 _atom_site_fract_z
 _atom_site_occupancy
  V  V0  1  0.48771297  0.00978067  -0.00277301  1
  V  V1  1  0.63979136  0.73860844  0.36866899  1
  V  V2  1  0.63692153  0.74707592  0.86837376  1
  V  V3  1  0.13134799  0.26431014  0.88453512  1
  V  V4  1  0.11293026  0.13407436  0.01244084  1
  V  V5  1  -0.00689815  0.72844676  0.26671058  1
  V  V6  1  0.24999923  0.23418335  0.47740395  1
  V  V7  1  0.37053936  0.25520790  0.62390820  1
  V  V8  1  0.63321284  0.89918064  0.24081436  1
  V  V9  1  0.37117227  0.86556633  -0.00932736  1
  V  V10  1  0.13068613  0.88132859  0.25889147  1
  V  V11  1  0.75219779  0.86310093  0.62719677  1
  V  V12  1  0.63318229  0.62999672  0.00858884  1
  V  V13  1  0.25896234  0.88565669  0.62101042  1
  V  V14  1  0.88156737  0.24601551  0.63376709  1
  V  V15  1  0.48791939  0.13067263  0.14519867  1
  V  V16  1  0.25824131  0.87312910  0.12552784  1
  V  V17  1  0.23037719  0.37240925  0.62830145  1
  V  V18  1  0.49326062  0.00060118  0.49311883  1
  V  V19  1  0.64012902  -0.00103297  0.63331029  1
  V  V20  1  0.75878509  0.13213583  0.36609498  1
  V  V21  1  0.76532140  0.48211805  0.26482271  1
  V  V22  1  0.49820897  0.12022651  0.63464365  1
  V  V23  1  0.49365583  0.87480638  0.36966730  1
  V  V24  1  0.65830116  0.62987471  0.50162639  1
  V  V25  1  0.87110000  0.53289965  0.88270162  1
  V  V26  1  0.00067012  0.87884302  0.37842769  1
  V  V27  1  0.75741276  0.53737727  0.75063340  1
  V  V28  1  0.38489733  0.62282824  0.73005074  1
  V  V29  1  0.62734425  0.12403761  0.49946945  1
  V  V30  1  0.61142281  0.38400175  0.23212144  1
  V  V31  1  0.25393398  0.12285256  0.88470800  1
  V  V32  1  0.61752820  0.50581287  0.62632271  1
  V  V33  1  0.47263720  0.63190159  0.12187134  1
  V  V34  1  0.26124744  0.74873990  0.50832774  1
  V  V35  1  0.88322649  0.76131870  0.13205810  1
  V  V36  1  0.12008242  0.88734551  0.74865519  1
  V  V37  1  -0.00235222  0.60513656  0.62686696  1
  V  V38  1  0.86825566  0.11427319  0.76251799  1
  V  V39  1  0.00994671  0.02675013  0.50296622  1
  V  V40  1  -0.00752223  0.75517538  0.73097209  1
  V  V41  1  0.11297973  0.37831292  0.24277090  1
  V  V42  1  0.00461884  0.25346485  0.76471734  1
  V  V43  1  0.62646432  0.26067774  0.87705347  1
  V  V44  1  0.13007470  0.60474565  0.50879183  1
  V  V45  1  0.13420639  0.73905591  0.38326864  1
  V  V46  1  -0.01715541  0.38171204  0.89283931  1
  V  V47  1  0.49960271  0.86726092  0.85661228  1
  V  V48  1  0.86583679  0.87471202  0.49798032  1
  V  V49  1  0.09370425  -0.03718123  0.09182328  1
  V  V50  1  0.36432336  0.60645798  0.27506763  1
  V  V51  1  0.60918422  0.26641494  0.37713581  1
  V  V52  1  0.25568690  0.63758309  0.86088939  1
  V  V53  1  0.73808568  0.10413440  0.88148861  1
  V  V54  1  0.13164505  0.51889574  0.11428227  1
  V  V55  1  0.27160325  0.00515343  0.75537618  1
  V  V56  1  0.75901907  0.26119269  0.49993866  1
  V  V57  1  0.35910700  0.37568788  -0.02030597  1
  V  V58  1  0.36225312  0.26214878  0.13286721  1
  V  V59  1  0.11528352  0.75085166  0.87846901  1
  V  V60  1  0.50034517  0.49313138  -0.01120400  1
  V  V61  1  0.74926415  0.37310091  0.65033388  1
  V  V62  1  0.87447464  0.01236886  0.36222682  1
  V  V63  1  0.50457896  0.27003167  0.75095242  1
  Zn  Zn64  1  0.14619749  0.18031230  0.22153687  1
  Zn  Zn65  1  0.18445822  0.17632513  0.69403598  1
  Zn  Zn66  1  0.19633782  0.68784506  0.18790710  1
  Zn  Zn67  1  0.18440462  0.69081804  0.68799716  1
  Zn  Zn68  1  0.66783905  0.19205711  0.19274218  1
  Zn  Zn69  1  0.68821266  0.18529203  0.69611567  1
  Zn  Zn70  1  0.70063349  0.66408040  0.18071468  1
  Zn  Zn71  1  0.56856654  0.69171326  0.68091782  1
  Zn  Zn72  1  0.27990772  0.32260542  0.30028516  1
  Zn  Zn73  1  0.31226475  0.30583768  0.80063847  1
  Zn  Zn74  1  0.31237463  0.80802348  0.30551986  1
  Zn  Zn75  1  0.30797501  0.80808883  0.80974070  1
  Zn  Zn76  1  0.90449626  0.35097747  0.27582291  1
  Zn  Zn77  1  0.81016531  0.30283619  0.82644006  1
  Zn  Zn78  1  0.81145881  0.82132215  0.30492785  1
  Zn  Zn79  1  0.80879989  0.82642087  0.80952691  1
  Zn  Zn80  1  0.13531054  0.38447611  0.48175836  1
  Zn  Zn81  1  0.18061255  0.46276310  0.93906865  1
  Zn  Zn82  1  0.18715116  0.93990023  0.44219367  1
  Zn  Zn83  1  0.18641521  0.93837680  0.93578778  1
  Zn  Zn84  1  0.69969602  0.44511604  0.43850715  1
  Zn  Zn85  1  0.68344340  0.45605067  0.92514793  1
  Zn  Zn86  1  0.68779939  0.93771539  0.42371366  1
  Zn  Zn87  1  0.66805719  0.94011658  0.94096575  1
  Zn  Zn88  1  0.30508414  0.05892989  0.07135093  1
  Zn  Zn89  1  0.31419154  0.06473377  0.56417508  1
  Zn  Zn90  1  0.30787366  0.55628465  0.04131271  1
  Zn  Zn91  1  0.30438372  0.55450441  0.56264073  1
  Zn  Zn92  1  0.62602635  0.12197918  0.01013828  1
  Zn  Zn93  1  0.82150493  0.06708938  0.55683308  1
  Zn  Zn94  1  0.80153144  0.54550325  0.07955484  1
  Zn  Zn95  1  0.81877699  0.55743779  0.56700596  1
  Zn  Zn96  1  0.43223928  0.44541923  0.17425496  1
  Zn  Zn97  1  0.42803298  0.44233293  0.69052111  1
  Zn  Zn98  1  0.47328415  0.91416950  0.15763391  1
  Zn  Zn99  1  0.43326087  0.80409403  0.67612795  1
  Zn  Zn100  1  0.97443941  0.51919771  0.24670482  1
  Zn  Zn101  1  0.93103166  0.43443994  0.70129006  1
  Zn  Zn102  1  0.90948394  0.96974862  0.14767593  1
  Zn  Zn103  1  0.94126970  0.94396273  0.67708685  1
  Zn  Zn104  1  0.01923295  0.05050250  0.26669873  1
  Zn  Zn105  1  0.05933786  0.06943681  0.82396866  1
  Zn  Zn106  1  0.17294185  0.55141717  0.30269241  1
  Zn  Zn107  1  0.04150780  0.58082469  0.82537358  1
  Zn  Zn108  1  0.56662236  0.06885709  0.31438917  1
  Zn  Zn109  1  0.55877656  0.05038739  0.81651571  1
  Zn  Zn110  1  0.57704646  0.58526941  0.28616597  1
  Zn  Zn111  1  0.56159126  0.56869948  0.81452138  1
  Zn  Zn112  1  0.42792721  0.31782370  0.44821231  1
  Zn  Zn113  1  0.43566345  0.20015607  0.93207658  1
  Zn  Zn114  1  0.42220522  0.70826373  0.39265486  1
  Zn  Zn115  1  0.43844200  0.68659997  0.93671595  1
  Zn  Zn116  1  1.07204814  0.17393167  0.40025755  1
  Zn  Zn117  1  0.92986927  0.06464318  0.94876673  1
  Zn  Zn118  1  0.96085597  0.70650755  0.47905625  1
  Zn  Zn119  1  0.90980138  0.74251929  0.92025812  1
  Zn  Zn120  1  0.19033069  0.32277318  0.06810413  1
  Zn  Zn121  1  0.07944529  0.24874942  0.56979222  1
  Zn  Zn122  1  0.03979509  0.78304896  0.06335648  1
  Zn  Zn123  1  0.07083410  0.82519511  0.56499091  1
  Zn  Zn124  1  0.55195105  0.30573021  0.05956181  1
  Zn  Zn125  1  0.57065457  0.31692641  0.56773105  1
  Zn  Zn126  1  0.55950012  0.80318324  0.06004816  1
  Zn  Zn127  1  0.57381928  0.81646892  0.54768321  1
  O  O128  1  0.12993081  0.14331364  0.11213643  1
  O  O129  1  0.11137846  0.15178518  0.61699169  1
  O  O130  1  0.12066968  0.62070360  0.13573979  1
  O  O131  1  0.12257660  0.61977323  0.61488919  1
  O  O132  1  0.59670604  0.14107970  0.12151153  1
  O  O133  1  0.62510586  0.12137634  0.61511225  1
  O  O134  1  0.60940601  0.63361494  0.11125820  1
  O  O135  1  0.62547599  0.62014164  0.60658928  1
  O  O136  1  0.36019525  0.38723749  0.37715791  1
  O  O137  1  0.36577265  0.37115468  0.87861763  1
  O  O138  1  0.39384557  0.86863725  0.36886210  1
  O  O139  1  0.38195094  0.86929920  0.88436988  1
  O  O140  1  0.91468417  0.32926049  0.39551712  1
  O  O141  1  0.88086153  0.37140416  0.88296606  1
  O  O142  1  0.87812603  0.89112259  0.37704883  1
  O  O143  1  0.87424073  0.84662216  0.89587376  1
  O  O144  1  0.24947574  0.00604245  0.36506322  1
  O  O145  1  0.24627492  0.01062832  0.86650867  1
  O  O146  1  0.33210662  0.45795587  0.41243079  1
  O  O147  1  0.18880201  0.48209875  0.79424675  1
  O  O148  1  0.76446893  0.01480835  0.37384292  1
  O  O149  1  0.73381224  0.00246907  0.87014132  1
  O  O150  1  0.75612641  0.50904885  0.36249484  1
  O  O151  1  0.75562135  0.51867643  0.85986882  1
  O  O152  1  0.23277075  0.51193211  0.11573348  1
  O  O153  1  0.24622954  0.47211884  0.61665423  1
  O  O154  1  0.21500097  0.97643217  0.11834626  1
  O  O155  1  0.25605253  0.99589483  0.63798470  1
  O  O156  1  0.79929533  0.42207169  0.09829535  1
  O  O157  1  0.75892737  0.49046045  0.64152811  1
  O  O158  1  0.75681076  0.93793055  0.03326610  1
  O  O159  1  0.74150119  1.00826459  0.61986602  1
  O  O160  1  0.01861655  0.34640864  0.25081002  1
  O  O161  1  -0.00681484  0.36017877  0.76332969  1
  O  O162  1  0.01219685  0.86137635  0.27267307  1
  O  O163  1  0.01297837  0.87121575  0.73409576  1
  O  O164  1  0.51171397  0.39055718  0.24402745  1
  O  O165  1  0.50303550  0.36943008  0.74341652  1
  O  O166  1  0.51111245  0.89217232  0.26692615  1
  O  O167  1  0.49263820  0.87246873  0.75863906  1
  O  O168  1  0.49728444  0.12653061  0.24466599  1
  O  O169  1  0.50614734  0.11642793  0.73416614  1
  O  O170  1  0.47778961  0.61153004  0.23155010  1
  O  O171  1  0.49073077  0.62874459  0.74430063  1
  O  O172  1  1.05962018  0.15255189  0.29260017  1
  O  O173  1  0.98144554  0.14318479  0.77008351  1
  O  O174  1  0.99311507  0.62961940  0.28042243  1
  O  O175  1  1.00755551  0.64026736  0.73134224  1
  O  O176  1  0.37863636  0.27212532  -0.00095366  1
  O  O177  1  0.36909027  0.24450359  0.51625914  1
  O  O178  1  0.37532539  0.76670609  0.00314370  1
  O  O179  1  0.35829714  0.74248777  0.48874378  1
  O  O180  1  0.92158386  0.25686947  0.05156600  1
  O  O181  1  0.85988356  0.24289707  0.52698538  1
  O  O182  1  0.92229467  0.75087830  0.03483575  1
  O  O183  1  0.87345066  0.77369955  0.48605055  1
  O  O184  1  0.13752620  0.24239067  0.46494095  1
  O  O185  1  0.12980601  0.24864838  0.99147066  1
  O  O186  1  0.12897744  0.74745150  0.49341315  1
  O  O187  1  0.10755558  0.75358269  0.97855793  1
  O  O188  1  0.63716817  0.24448042  0.49729323  1
  O  O189  1  0.60523259  0.23929976  0.97862400  1
  O  O190  1  0.63485832  0.73678486  0.48751693  1
  O  O191  1  0.62441447  0.74021296  0.99192237  1
  O  O192  1  0.47876592  0.23857096  0.12039895  1
  O  O193  1  0.50300864  0.23873856  0.63278472  1
  O  O194  1  0.48931680  0.73335661  0.12071010  1
  O  O195  1  0.50824803  0.75483316  0.61140191  1
  O  O196  1  0.96703460  0.25606044  0.10768560  1
  O  O197  1  0.98408147  0.25460875  0.64228648  1
  O  O198  1  0.99927903  0.74153687  0.16192577  1
  O  O199  1  1.00592980  0.74867967  0.62558246  1
  O  O200  1  -0.01133923  0.31143159  0.41651493  1
  O  O201  1  0.01024882  0.26598885  0.87463659  1
  O  O202  1  0.01154403  0.75477024  0.38165720  1
  O  O203  1  0.01146992  0.74701895  0.85127365  1
  O  O204  1  0.51096235  0.25817193  0.38645631  1
  O  O205  1  0.50663975  0.24781570  0.85527895  1
  O  O206  1  0.51875017  0.76894459  0.38206068  1
  O  O207  1  0.50044432  0.76435590  0.87855532  1
  O  O208  1  0.25234952  0.13452621  0.50235907  1
  O  O209  1  0.23891105  0.11756291  0.98889641  1
  O  O210  1  0.23908272  0.63799709  0.50928431  1
  O  O211  1  0.24532871  0.56397626  0.93737653  1
  O  O212  1  0.74308373  0.13457153  0.49519742  1
  O  O213  1  0.74036813  0.11693739  0.98217355  1
  O  O214  1  0.75747156  0.62829546  0.49923895  1
  O  O215  1  0.73217460  0.61568741  1.01540742  1
  O  O216  1  0.25451956  0.38629277  -0.00805142  1
  O  O217  1  0.24536767  0.33984757  0.51495223  1
  O  O218  1  0.26245036  0.88041653  0.00860993  1
  O  O219  1  0.24603450  0.87102958  0.51354998  1
  O  O220  1  0.73938380  0.36872222  -0.00877451  1
  O  O221  1  0.75357844  0.36373332  0.50677536  1
  O  O222  1  0.82513686  0.94966901  0.00114898  1
  O  O223  1  0.76283915  0.88800628  0.49678404  1
  O  O224  1  0.09307044  0.49603063  0.23782338  1
  O  O225  1  0.12881048  0.49620700  0.75412327  1
  O  O226  1  0.11769057  0.97932500  0.26551197  1
  O  O227  1  0.12044960  0.98959190  0.75900109  1
  O  O228  1  0.63356685  0.48910983  0.25542901  1
  O  O229  1  0.64197084  0.52297730  0.73457366  1
  O  O230  1  0.63623011  0.99993562  0.25233887  1
  O  O231  1  0.62386106  1.00032665  0.73060217  1
  O  O232  1  0.37824604  0.05048439  0.31897585  1
  O  O233  1  0.36658542  0.00361751  0.75814151  1
  O  O234  1  0.36320395  0.50784190  0.24268760  1
  O  O235  1  0.37505038  0.52121530  0.75200664  1
  O  O236  1  0.89603673  0.01015442  0.25993804  1
  O  O237  1  0.88364890  0.01661499  0.74511289  1
  O  O238  1  0.87460526  0.46083664  0.25584113  1
  O  O239  1  0.86186877  0.50553952  0.76310184  1
  O  O240  1  0.13419927  0.39894494  0.35741739  1
  O  O241  1  0.12269154  0.36869776  0.88480630  1
  O  O242  1  0.12160373  0.86510931  0.37548215  1
  O  O243  1  0.13408811  0.86448730  0.85985507  1
  O  O244  1  0.62913838  0.36585749  0.38928287  1
  O  O245  1  0.63255381  0.36123523  0.87835363  1
  O  O246  1  0.62590114  0.86317276  0.35631879  1
  O  O247  1  0.60858200  0.86211629  0.88099517  1
  O  O248  1  0.37626475  0.13755219  0.12630573  1
  O  O249  1  0.39567910  0.12975517  0.62103233  1
  O  O250  1  0.37048115  0.62633803  0.11108993  1
  O  O251  1  0.37265103  0.61782467  0.62869339  1
  O  O252  1  0.76909897  0.21903772  0.12932721  1
  O  O253  1  0.86328895  0.13971145  0.64222659  1
  O  O254  1  0.89962671  0.60831994  0.11907340  1
  O  O255  1  0.90028999  0.62602090  0.60830162  1
  O  O256  1  0.26312745  0.24720628  0.11233179  1
  O  O257  1  0.26854434  0.24000367  0.63449329  1
  O  O258  1  0.24138159  0.77210915  0.12619054  1
  O  O259  1  0.24726752  0.76220412  0.61372505  1
  O  O260  1  0.80624415  0.27661996  0.16877422  1
  O  O261  1  0.74471557  0.26232927  0.62369461  1
  O  O262  1  0.78968433  0.72375980  0.13740827  1
  O  O263  1  0.74644975  0.76754133  0.61448169  1
  O  O264  1  0.27633946  0.23944636  0.38194719  1
  O  O265  1  0.23413708  0.24112828  0.86361093  1
  O  O266  1  0.23759753  0.76098849  0.39152688  1
  O  O267  1  0.23647892  0.74284063  0.87703036  1
  O  O268  1  0.75578474  0.24304619  0.39366758  1
  O  O269  1  0.72948683  0.23631976  0.86991126  1
  O  O270  1  0.73800927  0.75432774  0.36906950  1
  O  O271  1  0.73619392  0.76018432  0.87460086  1
  O  O272  1  0.01287493  0.12994181  0.00355881  1
  O  O273  1  0.00377066  0.12735345  0.48207608  1
  O  O274  1  -0.03466906  0.57744914  0.08314522  1
  O  O275  1  0.01968571  0.61773544  0.51111757  1
  O  O276  1  0.48747885  0.11269113  -0.01350910  1
  O  O277  1  0.52052578  0.12036615  0.50254749  1
  O  O278  1  0.49757112  0.61855131  0.00594833  1
  O  O279  1  0.50237174  0.48460415  0.45493656  1
  O  O280  1  0.49412438  0.37927968  0.51524939  1
  O  O281  1  0.50116656  0.38906008  0.99788225  1
  O  O282  1  0.51279911  0.89381660  0.48573473  1
  O  O283  1  0.47978154  0.88475884  1.01629744  1
  O  O284  1  1.01271565  0.34698110  0.48588860  1
  O  O285  1  0.99591649  0.38466171  0.98779835  1
  O  O286  1  0.99258207  0.88104875  0.49116888  1
  O  O287  1  1.03788310  0.89940107  1.03719207  1
  O  O288  1  0.51020647  0.48056483  0.38290571  1
  O  O289  1  0.50016682  0.50635767  0.88709239  1
  O  O290  1  0.51069312  0.99711310  0.38613016  1
  O  O291  1  0.49827751  0.97937342  0.88627401  1
  O  O292  1  0.96795472  0.48958760  0.39525385  1
  O  O293  1  0.97944565  0.49491909  0.86754333  1
  O  O294  1  0.98988219  0.99662763  0.37990072  1
  O  O295  1  0.99451386  1.00011443  0.88351648  1
  O  O296  1  0.01962043  0.01298730  0.14697201  1
  O  O297  1  -0.00762469  0.01291757  0.60164450  1
  O  O298  1  -0.00721185  0.51357631  0.12293881  1
  O  O299  1  -0.00091718  0.50563064  0.64065908  1
  O  O300  1  0.48510506  0.02328364  0.11447608  1
  O  O301  1  0.52040154  0.01246728  0.60574768  1
  O  O302  1  0.49402645  0.51606740  0.10477346  1
  O  O303  1  0.52028371  0.49616109  0.63106902  1
  O  O304  1  0.20605726  0.42815203  0.31738008  1
  O  O305  1  0.23901703  0.35701086  0.72915436  1
  O  O306  1  0.23845817  0.87230966  0.24830307  1
  O  O307  1  0.24546746  0.88907751  0.74504834  1
  O  O308  1  0.73513663  0.38527384  0.25244460  1
  O  O309  1  0.74392195  0.37029890  0.74875791  1
  O  O310  1  0.72955839  0.86732870  0.23959199  1
  O  O311  1  0.75860813  0.87856030  0.72692074  1
  O  O312  1  0.23106960  0.09629398  0.26899227  1
  O  O313  1  0.24422328  0.11100051  0.76248788  1
  O  O314  1  0.25456885  0.62190547  0.26498647  1
  O  O315  1  0.25452407  0.62401542  0.75593965  1
  O  O316  1  0.73973167  0.13849888  0.26963584  1
  O  O317  1  0.76090638  0.12610402  0.76099169  1
  O  O318  1  0.75892468  0.55987389  0.19037814  1
  O  O319  1  0.76519227  0.63212784  0.73918287  1
  O  O320  1  0.37497975  0.11634827  0.34973026  1
  O  O321  1  0.35163254  0.13884387  0.87975849  1
  O  O322  1  0.38684798  0.59790498  0.37435146  1
  O  O323  1  0.35976325  0.64167658  0.86512913  1
  O  O324  1  0.86616452  0.12051222  0.37315802  1
  O  O325  1  0.85536008  0.11704513  0.87227590  1
  O  O326  1  0.91028299  0.52463892  0.43122196  1
  O  O327  1  0.88894842  0.63203781  0.88314609  1
  O  O328  1  0.13003258  0.39358298  0.13763918  1
  O  O329  1  0.12865915  0.35534963  0.60666786  1
  O  O330  1  0.12175017  0.86774510  0.15101162  1
  O  O331  1  0.14145939  0.87863912  0.63970688  1
  O  O332  1  0.62284392  0.36140595  0.13477725  1
  O  O333  1  0.64298825  0.39333651  0.62253030  1
  O  O334  1  0.59445367  0.87526338  0.14565850  1
  O  O335  1  0.64267126  0.89218520  0.60730351  1
  O  O336  1  0.17511561  0.29056292  0.24845682  1
  O  O337  1  0.10927130  0.24278718  0.76571698  1
  O  O338  1  0.11881570  0.74777664  0.27347557  1
  O  O339  1  0.11889736  0.76512775  0.75093472  1
  O  O340  1  0.62513945  0.27027008  0.26967874  1
  O  O341  1  0.61156217  0.24809583  0.75546094  1
  O  O342  1  0.63021590  0.69883114  0.27012030  1
  O  O343  1  0.62285284  0.73984528  0.76859609  1
  O  O344  1  0.36150840  0.27642287  0.23336189  1
  O  O345  1  0.39530788  0.24789141  0.73713150  1
  O  O346  1  0.37637330  0.71982877  0.27865439  1
  O  O347  1  0.36666913  0.73727951  0.74124641  1
  O  O348  1  0.86167687  0.25243658  0.22180416  1
  O  O349  1  0.87783626  0.24290088  0.74921359  1
  O  O350  1  0.89009301  0.74885031  0.26015528  1
  O  O351  1  0.89517430  0.76474556  0.74441452  1
  O  O352  1  0.35345524  0.46641258  0.48655788  1
  O  O353  1  0.38555188  0.48361113  0.99525539  1
  O  O354  1  0.39489566  1.00786617  0.50006476  1
  O  O355  1  0.37917793  0.99123912  1.00292644  1
  O  O356  1  0.87663671  0.48232863  0.49126165  1
  O  O357  1  0.85732281  0.51058414  0.97853616  1
  O  O358  1  0.88661762  1.00057050  0.48408765  1
  O  O359  1  0.87258402  1.01218746  1.04172627  1
  O  O360  1  0.12350700  0.01763751  0.00346779  1
  O  O361  1  0.10821565  0.00462536  0.48896420  1
  O  O362  1  0.10807613  0.50755320  0.01591165  1
  O  O363  1  0.13889297  0.50671440  0.49307620  1
  O  O364  1  0.59626133  0.00196604  0.00622205  1
  O  O365  1  0.63177790  0.01651868  0.49541802  1
  O  O366  1  0.61289206  0.51558402  -0.00615723  1
  O  O367  1  0.64448421  0.51413039  0.51540852  1
  O  O368  1  0.37468036  0.36796241  0.10848203  1
  O  O369  1  0.36815549  0.36017204  0.62903067  1
  O  O370  1  0.35987666  0.88639307  0.13261877  1
  O  O371  1  0.35760739  0.87577513  0.62886204  1
  O  O372  1  0.80419210  0.37577639  0.03455905  1
  O  O373  1  0.85891351  0.36108347  0.63909187  1
  O  O374  1  0.87602272  0.86177635  0.14482567  1
  O  O375  1  0.86542433  0.88708840  0.60531155  1
  O  O376  1  0.21305153  0.07391682  0.34166132  1
  O  O377  1  0.12846425  0.13964831  0.88940998  1
  O  O378  1  0.13191392  0.63209447  0.39033008  1
  O  O379  1  0.13161675  0.64191258  0.85986451  1
  O  O380  1  0.63452143  0.14058319  0.38493075  1
  O  O381  1  0.62968033  0.12513801  0.86879433  1
  O  O382  1  0.61891260  0.62525529  0.39849103  1
  O  O383  1  0.61935596  0.63870903  0.88921078  1
