# generated using pymatgen
data_VZnO4
_symmetry_space_group_name_H-M   'P 1'
_cell_length_a   16.95503099
_cell_length_b   16.94246805
_cell_length_c   16.94442018
_cell_angle_alpha   90.28557394
_cell_angle_beta   90.14755250
_cell_angle_gamma   89.72722545
_symmetry_Int_Tables_number   1
_chemical_formula_structural   VZnO4
_chemical_formula_sum   'V64 Zn64 O256'
_cell_volume   4867.32387452
_cell_formula_units_Z   64
loop_
 _symmetry_equiv_pos_site_id
 _symmetry_equiv_pos_as_xyz
  1  'x, y, z'
loop_
 _atom_site_type_symbol
 _atom_site_label
 _atom_site_symmetry_multiplicity
 _atom_site_fract_x
 _atom_site_fract_y
 _atom_site_fract_z
 _atom_site_occupancy
  V  V0  1  0.11174427  0.74183203  0.87389500  1
  V  V1  1  0.73805035  0.11540733  0.86982897  1
  V  V2  1  0.63620201  -0.00534714  0.13433150  1
  V  V3  1  0.24636970  0.23172168  0.51690852  1
  V  V4  1  0.63157590  0.87524649  0.76412500  1
  V  V5  1  0.48716971  0.12163494  0.63883151  1
  V  V6  1  0.26511841  -0.00384941  0.74120399  1
  V  V7  1  0.76312541  0.61175295  0.37901875  1
  V  V8  1  0.51158134  0.75601138  0.76806800  1
  V  V9  1  0.88155956  0.60990037  0.24101594  1
  V  V10  1  0.63453447  0.50186654  0.62783733  1
  V  V11  1  0.90239576  0.74149800  0.62587664  1
  V  V12  1  0.24419245  0.11623057  0.89552537  1
  V  V13  1  0.87819423  0.85862909  -0.02978042  1
  V  V14  1  -0.01798940  0.01210015  -0.00802205  1
  V  V15  1  0.49121335  -0.01049396  0.49008202  1
  V  V16  1  0.37999327  0.62401562  0.75466281  1
  V  V17  1  0.00747611  0.01033942  0.49341444  1
  V  V18  1  0.61493596  0.14448880  0.00052183  1
  V  V19  1  0.86323711  0.12752926  0.25339482  1
  V  V20  1  0.86356348  0.26268983  0.11936529  1
  V  V21  1  -0.01915433  0.25103355  0.74990421  1
  V  V22  1  0.15016267  0.62819526  0.51927047  1
  V  V23  1  0.26138271  0.37476670  0.12908759  1
  V  V24  1  0.50686803  0.62901443  0.62671445  1
  V  V25  1  0.92965644  0.60108852  0.72846295  1
  V  V26  1  0.11902787  0.00550295  0.11458635  1
  V  V27  1  0.76052487  0.74987105  0.49095766  1
  V  V28  1  0.40412390  0.64186326  0.24128018  1
  V  V29  1  0.62085370  0.51067486  0.13348875  1
  V  V30  1  0.61477267  0.12541814  0.49078794  1
  V  V31  1  0.26749607  0.64075576  0.89137027  1
  V  V32  1  0.75115952  0.47978881  0.26292491  1
  V  V33  1  0.00308740  0.14308117  0.12895636  1
  V  V34  1  0.38251995  0.14195812  0.25421501  1
  V  V35  1  0.12167791  0.73267823  0.36061263  1
  V  V36  1  0.49958232  0.49098881  0.48974134  1
  V  V37  1  0.86953417  0.36387436  0.47023952  1
  V  V38  1  0.38527999  0.48900965  0.87623491  1
  V  V39  1  0.62360786  0.37278352  0.75310357  1
  V  V40  1  0.21595889  0.26396132  0.00034657  1
  V  V41  1  0.75733746  0.37771829  0.62617025  1
  V  V42  1  0.24300027  0.52916084  0.23409974  1
  V  V43  1  0.75952884  0.86808701  0.62910203  1
  V  V44  1  0.72674888  0.24158293  0.49046079  1
  V  V45  1  0.23722902  0.01413784  0.25237346  1
  V  V46  1  0.07028885  0.61420549  0.02189030  1
  V  V47  1  0.87086858  0.23499249  0.61226373  1
  V  V48  1  0.12532460  0.36373929  0.25742572  1
  V  V49  1  0.50837095  -0.02632938  -0.00071724  1
  V  V50  1  0.11832256  0.87514462  0.25308425  1
  V  V51  1  0.37404472  0.76506401  0.61919635  1
  V  V52  1  0.74212137  0.37133910  0.11132580  1
  V  V53  1  0.36455261  0.50614223  0.37107282  1
  V  V54  1  0.60187516  0.36017141  0.26118001  1
  V  V55  1  0.35895633  -0.01237106  0.37447909  1
  V  V56  1  -0.02178558  0.87222033  0.37331150  1
  V  V57  1  0.37401114  0.26977176  0.64665079  1
  V  V58  1  0.66172490  0.62906921  -0.01245032  1
  V  V59  1  0.50441715  0.51088218  -0.00087830  1
  V  V60  1  0.62725003  -0.00457212  0.62637593  1
  V  V61  1  0.00370524  0.50237636  0.48576059  1
  V  V62  1  0.62376199  0.63153026  0.48978586  1
  V  V63  1  0.11898980  0.88193410  0.74061101  1
  Zn  Zn64  1  0.19293467  0.19369475  0.18299338  1
  Zn  Zn65  1  0.20727588  0.17924605  0.70499281  1
  Zn  Zn66  1  0.15771573  0.70213243  0.16005046  1
  Zn  Zn67  1  0.18644585  0.69320773  0.69584828  1
  Zn  Zn68  1  0.67390400  0.17997311  0.18211583  1
  Zn  Zn69  1  0.67794551  0.18608258  0.68027805  1
  Zn  Zn70  1  0.73256552  0.67176194  0.17056025  1
  Zn  Zn71  1  0.68528350  0.69546105  0.67764308  1
  Zn  Zn72  1  0.29570039  0.32089980  0.32775729  1
  Zn  Zn73  1  0.36291664  0.26762613  0.86062765  1
  Zn  Zn74  1  0.30025767  0.81129683  0.30265488  1
  Zn  Zn75  1  0.29659558  0.79593481  0.77198289  1
  Zn  Zn76  1  0.77551599  0.27052382  0.29419800  1
  Zn  Zn77  1  0.77396804  0.27071033  0.78476291  1
  Zn  Zn78  1  0.81077087  0.79336218  0.28749719  1
  Zn  Zn79  1  0.82397863  0.95168456  0.80213771  1
  Zn  Zn80  1  0.18591792  0.45689180  0.42696100  1
  Zn  Zn81  1  0.20038653  0.45963195  0.94943717  1
  Zn  Zn82  1  0.17706569  0.93601367  0.43796812  1
  Zn  Zn83  1  0.22422912  0.90348305  0.90442593  1
  Zn  Zn84  1  0.67549585  0.42772730  0.43957292  1
  Zn  Zn85  1  0.64695792  0.41711220  0.95202789  1
  Zn  Zn86  1  0.68919208  0.93744883  0.45339759  1
  Zn  Zn87  1  0.70161084  0.94356802  0.95241814  1
  Zn  Zn88  1  0.30788813  0.07367683  0.06121938  1
  Zn  Zn89  1  0.30821628  0.05555975  0.56161664  1
  Zn  Zn90  1  0.32336906  0.56734737  0.06780850  1
  Zn  Zn91  1  0.32173042  0.56023550  0.56788578  1
  Zn  Zn92  1  0.80450662  0.07925004  0.06055961  1
  Zn  Zn93  1  0.85176452  0.03062179  0.62645737  1
  Zn  Zn94  1  0.82609296  0.54473111  0.06148217  1
  Zn  Zn95  1  0.83027845  0.55278603  0.56036162  1
  Zn  Zn96  1  0.43179445  0.44705822  0.18811301  1
  Zn  Zn97  1  0.45057812  0.43986167  0.69077839  1
  Zn  Zn98  1  0.41886539  0.99811911  0.15436732  1
  Zn  Zn99  1  0.44519063  0.93997383  0.69684379  1
  Zn  Zn100  1  0.91638811  0.37011376  0.27118188  1
  Zn  Zn101  1  0.95898951  0.41778157  0.65727583  1
  Zn  Zn102  1  0.93908608  0.95765291  0.19339063  1
  Zn  Zn103  1  0.95980139  0.92578544  0.68150214  1
  Zn  Zn104  1  0.03744857  0.05737997  0.31004665  1
  Zn  Zn105  1  0.08004628  0.06612459  0.81896214  1
  Zn  Zn106  1  0.05455320  0.53716589  0.29972937  1
  Zn  Zn107  1  0.08903306  0.55274751  0.82393216  1
  Zn  Zn108  1  0.55106976  0.06464552  0.30789975  1
  Zn  Zn109  1  0.56487585  0.05682136  0.81906156  1
  Zn  Zn110  1  0.56258050  0.56280551  0.31061819  1
  Zn  Zn111  1  0.57426017  0.56700527  0.81825914  1
  Zn  Zn112  1  0.38096053  0.19938428  0.42301086  1
  Zn  Zn113  1  0.42244046  0.07944760  0.92005606  1
  Zn  Zn114  1  0.41769377  0.67755252  0.44322811  1
  Zn  Zn115  1  0.45740146  0.68934297  0.95007709  1
  Zn  Zn116  1  0.93757745  0.19888907  0.43891930  1
  Zn  Zn117  1  0.94431803  0.20178298  0.94546374  1
  Zn  Zn118  1  0.94560037  0.68771847  0.43311201  1
  Zn  Zn119  1  0.92300773  0.67182996  0.91227489  1
  Zn  Zn120  1  0.06578022  0.32767224  0.08507718  1
  Zn  Zn121  1  0.05125681  0.31478877  0.54197413  1
  Zn  Zn122  1  0.08267927  0.83795629  0.02647430  1
  Zn  Zn123  1  0.08121139  0.82012466  0.53869490  1
  Zn  Zn124  1  0.55367511  0.32000898  0.06595989  1
  Zn  Zn125  1  0.50495480  0.27879607  0.51461606  1
  Zn  Zn126  1  0.71498071  0.81631387  0.08696509  1
  Zn  Zn127  1  0.56524023  0.81208764  0.56323439  1
  O  O128  1  0.10883441  0.12284249  0.13272094  1
  O  O129  1  0.09758817  0.16439262  0.67230188  1
  O  O130  1  0.08439116  0.62319459  0.12105099  1
  O  O131  1  0.13235681  0.63624171  0.61739252  1
  O  O132  1  0.62180405  0.11990308  0.10438194  1
  O  O133  1  0.61883452  0.10828022  0.62237511  1
  O  O134  1  0.64144187  0.60879547  0.14050150  1
  O  O135  1  0.62559282  0.62122306  0.61363585  1
  O  O136  1  0.36878172  0.40626864  0.36723190  1
  O  O137  1  0.37994347  0.39209150  0.86693903  1
  O  O138  1  0.36497389  0.88796081  0.36629389  1
  O  O139  1  0.36217436  0.82402870  0.96495000  1
  O  O140  1  0.84834703  0.36290225  0.37157161  1
  O  O141  1  0.84552603  0.39941965  0.86782379  1
  O  O142  1  0.87912038  0.85977821  0.35394309  1
  O  O143  1  0.87158131  0.87684602  0.87332209  1
  O  O144  1  0.25040439  -0.00338002  0.37063434  1
  O  O145  1  0.24744944  0.01635779  0.90998086  1
  O  O146  1  0.26151337  0.52122953  0.35951752  1
  O  O147  1  0.28169006  0.51853189  0.88443365  1
  O  O148  1  0.76301106  0.00464442  0.38378674  1
  O  O149  1  0.75316249  0.01093580  0.86980041  1
  O  O150  1  0.73721073  0.50148007  0.37108212  1
  O  O151  1  0.82274170  0.46741712  0.85970536  1
  O  O152  1  0.25569475  0.49631722  0.13196746  1
  O  O153  1  0.25193316  0.49566326  0.63907708  1
  O  O154  1  0.22681997  1.01094950  0.13717731  1
  O  O155  1  0.25891259  0.99091161  0.64204439  1
  O  O156  1  0.73927387  0.48444354  0.14257857  1
  O  O157  1  0.74657926  0.48656424  0.60606600  1
  O  O158  1  0.73674829  1.01475322  0.12238762  1
  O  O159  1  0.74745771  0.97445256  0.60945166  1
  O  O160  1  0.02497085  0.38732980  0.25592912  1
  O  O161  1  0.01490299  0.34196335  0.72551191  1
  O  O162  1  0.00593413  0.89672188  0.26383662  1
  O  O163  1  0.02174009  0.88245826  0.76544831  1
  O  O164  1  0.50467076  0.37771853  0.23931242  1
  O  O165  1  0.52423362  0.37778362  0.75320365  1
  O  O166  1  0.50745923  0.84287024  0.19370142  1
  O  O167  1  0.51711211  0.86414271  0.75280810  1
  O  O168  1  0.48306800  0.13853461  0.25515028  1
  O  O169  1  0.50826999  0.11503285  0.73696541  1
  O  O170  1  0.50540073  0.63725763  0.24791635  1
  O  O171  1  0.50815934  0.63861319  0.74487707  1
  O  O172  1  0.98524035  0.12569324  0.23306811  1
  O  O173  1  1.04395469  0.15799337  0.73520656  1
  O  O174  1  0.97406306  0.57536252  0.23197965  1
  O  O175  1  1.03089311  0.59540445  0.73671391  1
  O  O176  1  0.41170122  0.24741910  0.03027250  1
  O  O177  1  0.35957063  0.24428934  0.53335086  1
  O  O178  1  0.38370272  0.76137998  0.00914749  1
  O  O179  1  0.37406143  0.74321423  0.52042359  1
  O  O180  1  0.88323778  0.26373660  0.02110723  1
  O  O181  1  0.84317727  0.24792891  0.49935812  1
  O  O182  1  0.88814985  0.75974423  -0.02343740  1
  O  O183  1  0.86154921  0.73561174  0.50358272  1
  O  O184  1  0.15508814  0.27757120  0.52858863  1
  O  O185  1  0.11643272  0.26516717  0.99759767  1
  O  O186  1  0.11198727  0.71633429  0.47451035  1
  O  O187  1  0.10635938  0.70532626  0.97959680  1
  O  O188  1  0.61792364  0.23548214  0.51302552  1
  O  O189  1  0.61848026  0.24571813  1.00608376  1
  O  O190  1  0.63709767  0.73611841  0.50208108  1
  O  O191  1  0.66855733  0.72250143  1.02848888  1
  O  O192  1  0.45608582  0.26045642  0.09460120  1
  O  O193  1  0.48209189  0.22990540  0.62213066  1
  O  O194  1  0.44989692  0.82503473  0.14961785  1
  O  O195  1  0.49853052  0.73996279  0.62681750  1
  O  O196  1  0.99241433  0.24701700  0.12691594  1
  O  O197  1  0.97230289  0.24384666  0.60712117  1
  O  O198  1  0.95181678  0.78849418  0.13854119  1
  O  O199  1  0.99289037  0.75811420  0.58906760  1
  O  O200  1  0.07769909  0.20886987  0.39219442  1
  O  O201  1  -0.01868683  0.24704639  0.84956207  1
  O  O202  1  0.00577602  0.76409407  0.37424554  1
  O  O203  1  0.01627731  0.73067581  0.85829196  1
  O  O204  1  0.48035128  0.24414600  0.41194575  1
  O  O205  1  0.44007317  0.27687243  0.96321171  1
  O  O206  1  0.48927979  0.77868702  0.38562344  1
  O  O207  1  0.50831883  0.74968989  0.86568327  1
  O  O208  1  0.23570264  0.13117897  0.51817750  1
  O  O209  1  0.24209609  0.14955995  1.00265856  1
  O  O210  1  0.24916929  0.62526114  0.50697579  1
  O  O211  1  0.26932894  0.63428410  0.99083944  1
  O  O212  1  0.72400505  0.13573635  0.50373874  1
  O  O213  1  0.72865637  0.12054208  0.98458452  1
  O  O214  1  0.74289643  0.62232961  0.49272974  1
  O  O215  1  0.75879294  0.59741623  0.98684106  1
  O  O216  1  0.23511367  0.37525011  0.01698236  1
  O  O217  1  0.25550893  0.43008278  0.52206269  1
  O  O218  1  0.29900482  0.86133330  -0.00792079  1
  O  O219  1  0.18829508  0.85191581  0.50901130  1
  O  O220  1  0.73848026  0.38269924  0.01313695  1
  O  O221  1  0.74857249  0.36269905  0.50136763  1
  O  O222  1  0.77926734  0.87705237  0.00831962  1
  O  O223  1  0.74956371  0.85465246  0.50107030  1
  O  O224  1  0.14896957  0.49421119  0.25307171  1
  O  O225  1  0.13571371  0.44317417  0.84711104  1
  O  O226  1  0.12787647  1.00302868  0.25785443  1
  O  O227  1  0.13902063  0.98834966  0.75987852  1
  O  O228  1  0.62663717  0.48936697  0.24431573  1
  O  O229  1  0.62632059  0.50955613  0.73067668  1
  O  O230  1  0.61874386  1.01584455  0.23363233  1
  O  O231  1  0.62187617  0.98252475  0.73916593  1
  O  O232  1  0.35041553  -0.00111418  0.25844804  1
  O  O233  1  0.36397520  -0.01850353  0.76334985  1
  O  O234  1  0.36583548  0.52069876  0.25383294  1
  O  O235  1  0.39863387  0.51700572  0.76500930  1
  O  O236  1  0.86285602  0.02632057  0.24206825  1
  O  O237  1  0.88725675  0.00081953  0.72920138  1
  O  O238  1  0.85242104  0.48356401  0.25769052  1
  O  O239  1  0.90431612  0.50548772  0.69948881  1
  O  O240  1  0.15802763  0.37424662  0.35761529  1
  O  O241  1  0.06001805  0.40982619  0.86795150  1
  O  O242  1  0.11019819  0.86905217  0.36129623  1
  O  O243  1  0.12866359  0.84083859  0.91343419  1
  O  O244  1  0.61314629  0.37476253  0.36098123  1
  O  O245  1  0.65758972  0.40680854  0.84342062  1
  O  O246  1  0.63449332  0.89403689  0.35355734  1
  O  O247  1  0.64595851  0.88130108  0.86042166  1
  O  O248  1  0.36668166  0.10840226  0.15415162  1
  O  O249  1  0.38918518  0.10338621  0.63159763  1
  O  O250  1  0.38550388  0.62400482  0.14214640  1
  O  O251  1  0.39099910  0.62658111  0.64007835  1
  O  O252  1  0.87498768  0.14739553  0.13290948  1
  O  O253  1  0.84894558  0.13911036  0.60913964  1
  O  O254  1  0.84232325  0.61917843  0.14422878  1
  O  O255  1  0.87607486  0.63352296  0.62593353  1
  O  O256  1  0.24990884  0.26343629  0.10951130  1
  O  O257  1  0.26684722  0.24398068  0.63504047  1
  O  O258  1  0.16425114  0.78495814  0.08504610  1
  O  O259  1  0.27657080  0.75794521  0.65613819  1
  O  O260  1  0.75297928  0.26163937  0.12258315  1
  O  O261  1  0.74764664  0.26239471  0.61567277  1
  O  O262  1  0.75484374  0.77811739  0.18961281  1
  O  O263  1  0.75457301  0.75454919  0.61083042  1
  O  O264  1  0.27167562  0.25124424  0.41545092  1
  O  O265  1  0.25303389  0.26985166  0.90583068  1
  O  O266  1  0.22106112  0.74780403  0.36025557  1
  O  O267  1  0.26901342  0.74136202  0.87285601  1
  O  O268  1  0.72527787  0.24938284  0.39266343  1
  O  O269  1  0.78558281  0.22539829  0.89030840  1
  O  O270  1  0.75576855  0.72741072  0.38455151  1
  O  O271  1  0.76964846  0.71166668  0.82152126  1
  O  O272  1  -0.00923533  0.12456157  0.01808685  1
  O  O273  1  -0.01493074  0.10897669  0.48700805  1
  O  O274  1  -0.02836078  0.60884106  -0.00391593  1
  O  O275  1  -0.02099439  0.59952252  0.50026288  1
  O  O276  1  0.51665367  0.12553398  -0.01719993  1
  O  O277  1  0.50755507  0.10506844  0.51763840  1
  O  O278  1  0.52488319  0.61632829  0.00397152  1
  O  O279  1  0.51428867  0.62610738  0.50527234  1
  O  O280  1  0.50143341  0.39490120  0.51018225  1
  O  O281  1  0.53663223  0.40805757  0.99203647  1
  O  O282  1  0.50885204  0.89104421  0.50240510  1
  O  O283  1  0.50722587  0.87782669  0.99776927  1
  O  O284  1  0.96439882  0.31682689  0.46045175  1
  O  O285  1  0.99793170  0.39076239  1.01168189  1
  O  O286  1  0.99773562  0.88342110  0.47667660  1
  O  O287  1  0.98135583  0.89598523  1.00211935  1
  O  O288  1  0.50150361  0.50071665  0.38711181  1
  O  O289  1  0.49772625  0.51184999  0.88650624  1
  O  O290  1  0.48844500  0.99723827  0.38557500  1
  O  O291  1  0.49865565  0.99808614  0.88974548  1
  O  O292  1  1.00801426  0.47938946  0.38874474  1
  O  O293  1  1.00501537  0.46315340  0.85988240  1
  O  O294  1  0.98569217  0.99012911  0.38403834  1
  O  O295  1  1.00375589  1.02838946  0.89490037  1
  O  O296  1  0.00049901  0.01986621  0.11637819  1
  O  O297  1  -0.04457958  -0.01357712  0.58285430  1
  O  O298  1  -0.04415300  0.44744863  0.04656092  1
  O  O299  1  0.02702663  0.42990234  0.56335274  1
  O  O300  1  0.52038374  -0.00281773  0.10910026  1
  O  O301  1  0.51071474  -0.00067963  0.62016678  1
  O  O302  1  0.51485064  0.50133892  0.11797439  1
  O  O303  1  0.50911654  0.51518629  0.61648503  1
  O  O304  1  0.25371703  0.37973227  0.23626630  1
  O  O305  1  0.19202169  0.35765803  0.72844160  1
  O  O306  1  0.22471245  0.88870277  0.25048561  1
  O  O307  1  0.23969657  0.89219413  0.78580991  1
  O  O308  1  0.73158813  0.37681361  0.25311853  1
  O  O309  1  0.76842880  0.37505662  0.72623795  1
  O  O310  1  0.67834256  0.86754905  0.29910980  1
  O  O311  1  0.74212443  0.87012119  0.73442058  1
  O  O312  1  0.24025099  0.11506322  0.25529555  1
  O  O313  1  0.25393212  0.09836763  0.76912200  1
  O  O314  1  0.23161593  0.62671180  0.21900943  1
  O  O315  1  0.27940449  0.62705424  0.75328498  1
  O  O316  1  0.76204746  0.15603128  0.25169247  1
  O  O317  1  0.74043445  0.13791570  0.76740800  1
  O  O318  1  0.75382977  0.60291493  0.26954919  1
  O  O319  1  0.75075127  0.65783825  0.77430315  1
  O  O320  1  0.36859497  0.10425931  0.35858584  1
  O  O321  1  0.34697701  0.14957402  0.88036698  1
  O  O322  1  0.39025722  0.61737062  0.35592025  1
  O  O323  1  0.38222057  0.63138521  0.86805576  1
  O  O324  1  0.88765998  0.15090707  0.34906129  1
  O  O325  1  0.84346058  0.16151717  0.88600783  1
  O  O326  1  0.86348200  0.60537310  0.37966915  1
  O  O327  1  0.89487699  0.60664302  0.82372001  1
  O  O328  1  0.14169907  0.38218892  0.14568107  1
  O  O329  1  0.21904057  0.43950531  0.59400504  1
  O  O330  1  0.10186763  0.90477205  0.14317170  1
  O  O331  1  0.11658599  0.87280360  0.64246761  1
  O  O332  1  0.63077461  0.38131049  0.13448007  1
  O  O333  1  0.64248302  0.38690322  0.63818820  1
  O  O334  1  0.63975776  0.89330948  0.12543129  1
  O  O335  1  0.63779343  0.87788319  0.62613476  1
  O  O336  1  0.13128157  0.26293777  0.24861283  1
  O  O337  1  0.17733044  0.29936207  0.76933049  1
  O  O338  1  0.11229417  0.76972426  0.24764786  1
  O  O339  1  0.14355670  0.77150562  0.76972843  1
  O  O340  1  0.62034562  0.26178556  0.24254313  1
  O  O341  1  0.65081193  0.27277798  0.75549339  1
  O  O342  1  0.53599083  0.77272099  0.32967533  1
  O  O343  1  0.61951448  0.76166536  0.74588426  1
  O  O344  1  0.35294311  0.23747814  0.26291589  1
  O  O345  1  0.37729946  0.25534744  0.74657213  1
  O  O346  1  0.37251677  0.73759263  0.25611772  1
  O  O347  1  0.40011080  0.74267616  0.74535838  1
  O  O348  1  0.87755098  0.26442406  0.23540628  1
  O  O349  1  0.87595025  0.24722980  0.72619189  1
  O  O350  1  0.88881027  0.70518567  0.26935516  1
  O  O351  1  0.91978138  0.72628108  0.72329078  1
  O  O352  1  0.39221118  0.52122041  0.48489919  1
  O  O353  1  0.39770267  0.50611060  0.99370562  1
  O  O354  1  0.38002236  0.99994104  0.48709011  1
  O  O355  1  0.39779139  1.01008570  1.01650694  1
  O  O356  1  0.88796054  0.46827101  0.49357211  1
  O  O357  1  0.88964361  0.46469462  1.00636879  1
  O  O358  1  0.82599085  1.01807395  0.42061831  1
  O  O359  1  0.88119320  1.01099252  0.99965629  1
  O  O360  1  0.11104668  -0.00500750  0.01598384  1
  O  O361  1  0.10745651  0.00703563  0.49937388  1
  O  O362  1  0.11965526  0.53297028  -0.01607868  1
  O  O363  1  0.11717196  0.53238939  0.48303539  1
  O  O364  1  0.61768898  -0.00082379  0.00453007  1
  O  O365  1  0.61632066  0.00499665  0.50687972  1
  O  O366  1  0.63117685  0.51804391  0.01921587  1
  O  O367  1  0.61545887  0.50919549  0.50696634  1
  O  O368  1  0.36130401  0.38475873  0.12167898  1
  O  O369  1  0.38183789  0.36960145  0.63579790  1
  O  O370  1  0.38887593  0.87618061  0.14629818  1
  O  O371  1  0.39283690  0.86212384  0.62776348  1
  O  O372  1  0.84948895  0.37129184  0.13317105  1
  O  O373  1  0.86392328  0.36034178  0.60066920  1
  O  O374  1  0.90378848  0.84514157  0.13533302  1
  O  O375  1  0.86430427  0.85163868  0.63346266  1
  O  O376  1  0.11169784  0.14701520  0.37021318  1
  O  O377  1  0.15039339  0.14458419  0.86748417  1
  O  O378  1  0.10374118  0.63725291  0.33880670  1
  O  O379  1  0.16104530  0.63677354  0.85489976  1
  O  O380  1  0.61135838  0.11600068  0.39293419  1
  O  O381  1  0.63266682  0.12851431  0.87982576  1
  O  O382  1  0.63165327  0.62025632  0.38793826  1
  O  O383  1  0.63719151  0.63019132  0.88897195  1
