# generated using pymatgen
data_VZnO4
_symmetry_space_group_name_H-M   'P 1'
_cell_length_a   16.92175256
_cell_length_b   16.91699552
_cell_length_c   16.92796639
_cell_angle_alpha   89.72137057
_cell_angle_beta   90.04748853
_cell_angle_gamma   89.65768957
_symmetry_Int_Tables_number   1
_chemical_formula_structural   VZnO4
_chemical_formula_sum   'V64 Zn64 O256'
_cell_volume   4845.74232677
_cell_formula_units_Z   64
loop_
 _symmetry_equiv_pos_site_id
 _symmetry_equiv_pos_as_xyz
  1  'x, y, z'
loop_
 _atom_site_type_symbol
 _atom_site_label
 _atom_site_symmetry_multiplicity
 _atom_site_fract_x
 _atom_site_fract_y
 _atom_site_fract_z
 _atom_site_occupancy
  V  V0  1  0.13208852  0.49832261  0.62834441  1
  V  V1  1  0.51257457  0.64093193  0.60581687  1
  V  V2  1  0.73554725  -0.00745915  0.24976038  1
  V  V3  1  0.50432114  -0.00074727  0.00445658  1
  V  V4  1  0.85874844  0.38118851  0.49362355  1
  V  V5  1  0.23240918  0.11113084  0.36850855  1
  V  V6  1  0.87691941  0.11210527  0.23690899  1
  V  V7  1  0.22601370  0.86062119  0.11773250  1
  V  V8  1  0.00721990  0.75312480  0.75344881  1
  V  V9  1  0.13091089  0.38178573  0.74722078  1
  V  V10  1  0.23956967  0.25752221  0.50801423  1
  V  V11  1  0.49915318  0.24644798  0.24849231  1
  V  V12  1  0.24993230  0.38030050  0.15713516  1
  V  V13  1  0.75475097  0.11479261  0.39078798  1
  V  V14  1  0.30206638  0.04998817  0.71477977  1
  V  V15  1  0.86109806  0.47142077  0.87699995  1
  V  V16  1  0.11544440  0.26693332  0.88413157  1
  V  V17  1  0.11874101  0.26656284  0.36903268  1
  V  V18  1  0.75690949  0.62795724  0.37929550  1
  V  V19  1  0.62125819  0.52214177  0.13435249  1
  V  V20  1  0.27351208  0.62277322  0.34617749  1
  V  V21  1  -0.01219543  0.62242366  0.62834117  1
  V  V22  1  0.26129688  0.26786422  -0.00666736  1
  V  V23  1  0.76725574  0.49115291  0.24986228  1
  V  V24  1  0.37072581  0.11123520  0.24855357  1
  V  V25  1  -0.01440156  0.62900544  0.10105944  1
  V  V26  1  0.63133403  0.88050547  0.71898581  1
  V  V27  1  -0.00970819  0.25418150  0.24555014  1
  V  V28  1  0.01608645  0.74490293  0.25365968  1
  V  V29  1  0.86088172  0.62596885  0.75890985  1
  V  V30  1  0.50978568  0.49841349  -0.01212773  1
  V  V31  1  0.76176965  0.76942392  0.50373135  1
  V  V32  1  0.60878214  0.12397080  0.50898732  1
  V  V33  1  0.63934567  0.62619394  -0.02794617  1
  V  V34  1  0.21166493  0.62071802  0.93262233  1
  V  V35  1  0.35935618  0.88159058  0.47464779  1
  V  V36  1  -0.01019855  0.25511529  0.73477281  1
  V  V37  1  0.64192820  0.76141874  0.86808291  1
  V  V38  1  0.12258760  0.11766493  0.00657203  1
  V  V39  1  0.87557556  0.64082097  0.24345664  1
  V  V40  1  0.08476833  0.49067746  0.12591109  1
  V  V41  1  0.73884347  0.47555167  0.73071606  1
  V  V42  1  0.85000336  0.25566972  0.61591109  1
  V  V43  1  0.62986892  0.36662548  0.23597580  1
  V  V44  1  -0.00005824  0.49028478  0.49004802  1
  V  V45  1  0.48994860  0.87740577  0.87524998  1
  V  V46  1  0.50857734  0.88424382  0.36013977  1
  V  V47  1  0.49692198  -0.00605298  0.51033777  1
  V  V48  1  0.37902352  0.85738564  0.01723285  1
  V  V49  1  0.62142489  0.75083306  0.36519430  1
  V  V50  1  0.49495778  0.74989957  0.75292452  1
  V  V51  1  0.62682027  0.24791456  0.37490347  1
  V  V52  1  0.51261527  0.12246797  0.11757611  1
  V  V53  1  0.37744412  0.60876339  0.75484486  1
  V  V54  1  0.48336067  0.27228509  0.74075159  1
  V  V55  1  0.36308212  0.75970933  0.62700576  1
  V  V56  1  -0.01696972  0.87692788  0.88372724  1
  V  V57  1  0.23638682  0.86927492  0.68008502  1
  V  V58  1  0.13146709  0.63670556  0.49644854  1
  V  V59  1  0.26330138  0.11900496  0.88069144  1
  V  V60  1  0.37012485  0.24828128  0.12262903  1
  V  V61  1  0.76197885  0.08215009  0.77997768  1
  V  V62  1  0.22784524  -0.00460387  0.22757195  1
  V  V63  1  0.80091691  0.83203856  0.05911228  1
  Zn  Zn64  1  0.18216547  0.19231691  0.18836840  1
  Zn  Zn65  1  0.18139464  0.19614887  0.69992474  1
  Zn  Zn66  1  0.19981671  0.65823080  0.14538699  1
  Zn  Zn67  1  0.18653933  0.67292105  0.70173523  1
  Zn  Zn68  1  0.69129815  0.17018163  0.19582902  1
  Zn  Zn69  1  0.67053109  0.20620416  0.68773357  1
  Zn  Zn70  1  0.69887048  0.70193353  0.19228298  1
  Zn  Zn71  1  0.69177918  0.70228631  0.67869805  1
  Zn  Zn72  1  0.31840496  0.29798829  0.32588921  1
  Zn  Zn73  1  0.30778612  0.33431971  0.81949672  1
  Zn  Zn74  1  0.27561728  0.81484447  0.31434549  1
  Zn  Zn75  1  0.31090905  0.78317594  0.83526942  1
  Zn  Zn76  1  0.81506779  0.30558469  0.31441311  1
  Zn  Zn77  1  0.78980244  0.29377977  0.80681496  1
  Zn  Zn78  1  0.80665271  0.84155970  0.36377513  1
  Zn  Zn79  1  0.81700725  0.81835959  0.78553582  1
  Zn  Zn80  1  0.19510541  0.44614553  0.43481773  1
  Zn  Zn81  1  0.17770380  0.44608572  0.94315990  1
  Zn  Zn82  1  0.18316681  0.96815565  0.44477690  1
  Zn  Zn83  1  0.20157067  0.94220257  0.94712179  1
  Zn  Zn84  1  0.69078294  0.43101680  0.42139417  1
  Zn  Zn85  1  0.64867448  0.43716401  0.85623167  1
  Zn  Zn86  1  0.67956455  0.94018404  0.44615063  1
  Zn  Zn87  1  0.70829342  0.95624171  0.94996291  1
  Zn  Zn88  1  0.31790658  0.05671145  0.05364311  1
  Zn  Zn89  1  0.32423164  0.08477182  0.52840581  1
  Zn  Zn90  1  0.30468953  0.52764905  0.03296571  1
  Zn  Zn91  1  0.30806374  0.57367244  0.57988181  1
  Zn  Zn92  1  0.84115016  0.00093610  0.08631463  1
  Zn  Zn93  1  0.78557912  0.09326239  0.59310541  1
  Zn  Zn94  1  0.80932522  0.55123344  0.06064035  1
  Zn  Zn95  1  0.81096936  0.55655351  0.56167935  1
  Zn  Zn96  1  0.47321027  0.39991919  0.12895574  1
  Zn  Zn97  1  0.48148319  0.45623653  0.65635460  1
  Zn  Zn98  1  0.43564732  0.93917894  0.18029398  1
  Zn  Zn99  1  0.43705095  0.93670263  0.69448891  1
  Zn  Zn100  1  0.98717080  0.46381293  0.28213033  1
  Zn  Zn101  1  0.93351192  0.43608399  0.68666734  1
  Zn  Zn102  1  0.89610072  0.89156550  0.23529587  1
  Zn  Zn103  1  0.92843280  0.97211763  0.76263046  1
  Zn  Zn104  1  0.05533654  0.05387086  0.29761284  1
  Zn  Zn105  1  0.06770246  0.07540401  0.82822890  1
  Zn  Zn106  1  0.11661868  0.59691692  0.28417144  1
  Zn  Zn107  1  0.04469424  0.55616111  0.82558419  1
  Zn  Zn108  1  0.55811438  0.06346138  0.31940305  1
  Zn  Zn109  1  0.59340078  0.03610409  0.82804835  1
  Zn  Zn110  1  0.58097479  0.55401954  0.32234243  1
  Zn  Zn111  1  0.56595105  0.57179842  0.79805514  1
  Zn  Zn112  1  0.42742234  0.18414819  0.43198794  1
  Zn  Zn113  1  0.46863785  0.16456488  0.90649865  1
  Zn  Zn114  1  0.42902478  0.70486934  0.42875806  1
  Zn  Zn115  1  0.44821003  0.67764273  0.94095443  1
  Zn  Zn116  1  0.93250542  0.20182033  0.43570749  1
  Zn  Zn117  1  0.95232587  0.17573845  0.90712241  1
  Zn  Zn118  1  0.94385441  0.68449736  0.43413183  1
  Zn  Zn119  1  0.91157018  0.70056314  0.93140084  1
  Zn  Zn120  1  0.08202296  0.29854459  0.08409862  1
  Zn  Zn121  1  0.06841518  0.30880583  0.56030898  1
  Zn  Zn122  1  0.00382371  0.84910174  0.09844210  1
  Zn  Zn123  1  0.06150651  0.81443598  0.57660101  1
  Zn  Zn124  1  0.63521533  0.37008315  0.01388810  1
  Zn  Zn125  1  0.53014073  0.31527833  0.53373924  1
  Zn  Zn126  1  0.59566251  0.82521633  0.04660236  1
  Zn  Zn127  1  0.55703363  0.79695292  0.54139353  1
  O  O128  1  0.13158071  0.13559411  0.10597593  1
  O  O129  1  0.11051426  0.10062542  0.65645787  1
  O  O130  1  0.09440215  0.60025766  0.11812641  1
  O  O131  1  0.11556783  0.61018494  0.62638600  1
  O  O132  1  0.61061466  0.13369254  0.12139926  1
  O  O133  1  0.61455296  0.14439246  0.60592972  1
  O  O134  1  0.62769688  0.61985223  0.14925185  1
  O  O135  1  0.61122340  0.64853968  0.62238112  1
  O  O136  1  0.40278854  0.35213574  0.40059543  1
  O  O137  1  0.38320491  0.39207123  0.86871688  1
  O  O138  1  0.37678625  0.86026645  0.37474071  1
  O  O139  1  0.38806044  0.86081617  0.88718832  1
  O  O140  1  0.87101914  0.36916459  0.39264466  1
  O  O141  1  0.85574622  0.37141293  0.86160811  1
  O  O142  1  0.90887182  0.87699283  0.34580170  1
  O  O143  1  0.88614886  0.89093001  0.84451821  1
  O  O144  1  0.24013890  0.00378225  0.34004335  1
  O  O145  1  0.24754158  0.01889500  0.87625924  1
  O  O146  1  0.25415692  0.52933875  0.38773874  1
  O  O147  1  0.25671159  0.52582751  0.91745326  1
  O  O148  1  0.74267443  0.01303388  0.37734930  1
  O  O149  1  0.71034957  0.02750788  0.85507576  1
  O  O150  1  0.73488239  0.51728780  0.35636686  1
  O  O151  1  0.75354741  0.49567986  0.84296465  1
  O  O152  1  0.26477046  0.47659246  0.12779280  1
  O  O153  1  0.23115187  0.49958539  0.62619770  1
  O  O154  1  0.25385231  0.98679015  0.12519838  1
  O  O155  1  0.24000050  0.97799189  0.67192776  1
  O  O156  1  0.74122461  0.50241690  0.14630757  1
  O  O157  1  0.74330095  0.50492583  0.63288057  1
  O  O158  1  0.74550217  1.00542494  0.14977068  1
  O  O159  1  0.73394773  1.05523217  0.68576406  1
  O  O160  1  -0.02102149  0.35302853  0.25631612  1
  O  O161  1  0.00675580  0.35987836  0.74778855  1
  O  O162  1  0.00995612  0.84449997  0.21978782  1
  O  O163  1  0.00643789  0.85182335  0.73981956  1
  O  O164  1  0.51206755  0.35260545  0.23279214  1
  O  O165  1  0.48729185  0.37861828  0.74301570  1
  O  O166  1  0.49606849  0.88870844  0.26180690  1
  O  O167  1  0.49787966  0.86686736  0.76470641  1
  O  O168  1  0.48738726  0.12018644  0.23584585  1
  O  O169  1  0.48475906  0.16823595  0.73614851  1
  O  O170  1  0.46166642  0.54803939  0.27785830  1
  O  O171  1  0.49955052  0.63831261  0.73028043  1
  O  O172  1  0.98115550  0.12583952  0.25968430  1
  O  O173  1  0.99149668  0.16531597  0.79666861  1
  O  O174  1  0.98171099  0.62594055  0.24383153  1
  O  O175  1  0.98544032  0.61999624  0.74172748  1
  O  O176  1  0.36305677  0.24341011  0.01233782  1
  O  O177  1  0.32980968  0.19937189  0.49778013  1
  O  O178  1  0.39243055  0.75799090  0.00243116  1
  O  O179  1  0.36976887  0.77902371  0.52021567  1
  O  O180  1  0.86108583  0.23903105  -0.04384319  1
  O  O181  1  0.87676467  0.26929512  0.50757872  1
  O  O182  1  0.84773258  0.77067050  -0.00506866  1
  O  O183  1  0.85921440  0.74258716  0.48621430  1
  O  O184  1  0.13004141  0.24549846  0.48109720  1
  O  O185  1  0.14380833  0.25652358  0.99498175  1
  O  O186  1  0.10841454  0.73364751  0.50882675  1
  O  O187  1  0.12576868  0.78815027  0.94270351  1
  O  O188  1  0.59913197  0.24014964  0.48091516  1
  O  O189  1  0.73990097  0.25604004  1.06705728  1
  O  O190  1  0.64964276  0.76137556  0.47703226  1
  O  O191  1  0.62345350  0.73392231  0.97517127  1
  O  O192  1  0.48645993  0.23060448  0.12988874  1
  O  O193  1  0.47601442  0.27468459  0.63492862  1
  O  O194  1  0.54195617  0.74560295  0.11179007  1
  O  O195  1  0.47993071  0.76541529  0.64090193  1
  O  O196  1  1.00391651  0.24559776  0.14568020  1
  O  O197  1  1.01811181  0.23795177  0.63933113  1
  O  O198  1  0.99713509  0.72820820  0.12147563  1
  O  O199  1  1.00396802  0.72885467  0.63727802  1
  O  O200  1  0.01432522  0.24485151  0.37281781  1
  O  O201  1  0.01926961  0.27692286  0.90215919  1
  O  O202  1  0.00058070  0.74464436  0.35363981  1
  O  O203  1  -0.01375008  0.76656493  0.86587868  1
  O  O204  1  0.50923383  0.22537278  0.35290369  1
  O  O205  1  0.48063364  0.27024266  0.84650885  1
  O  O206  1  0.51357853  0.76614806  0.37236724  1
  O  O207  1  0.50719990  0.75425830  0.86467519  1
  O  O208  1  0.22619096  0.07731451  0.46947180  1
  O  O209  1  0.24577416  0.13432192  0.99200845  1
  O  O210  1  0.23208760  0.62956944  0.51520190  1
  O  O211  1  0.23311823  0.62504663  1.03675772  1
  O  O212  1  0.72394903  0.11435913  0.49807054  1
  O  O213  1  0.82687321  0.09263249  0.99173579  1
  O  O214  1  0.75608709  0.61865391  0.47989679  1
  O  O215  1  0.73274776  0.62483075  1.00836749  1
  O  O216  1  0.25833494  0.36772202  -0.00242383  1
  O  O217  1  0.25151733  0.35560712  0.48936311  1
  O  O218  1  0.26793701  0.87237514  0.01089944  1
  O  O219  1  0.25976951  0.89025493  0.48026579  1
  O  O220  1  0.75002880  0.32809303  0.03979300  1
  O  O221  1  0.75876447  0.39219147  0.50176505  1
  O  O222  1  0.81085635  0.93515510  -0.00338959  1
  O  O223  1  0.76646200  0.87165506  0.47509655  1
  O  O224  1  0.09201418  0.49551273  0.23732457  1
  O  O225  1  0.11509911  0.48862504  0.74496950  1
  O  O226  1  0.12927459  1.00487266  0.22422249  1
  O  O227  1  0.08692058  1.04731170  0.70518683  1
  O  O228  1  0.62676680  0.48546909  0.24394811  1
  O  O229  1  0.63206228  0.49041992  0.75119958  1
  O  O230  1  0.63522897  1.00814968  0.25792542  1
  O  O231  1  0.59889279  0.97545894  0.73459961  1
  O  O232  1  0.36691840  0.01025262  0.24084209  1
  O  O233  1  0.37629015  0.00382862  0.76382805  1
  O  O234  1  0.42474819  0.48635260  0.29468319  1
  O  O235  1  0.40459640  0.51568958  0.72235685  1
  O  O236  1  0.86688919  0.01089687  0.25972513  1
  O  O237  1  0.86087330  0.06510193  0.78535933  1
  O  O238  1  0.86723407  0.49530542  0.25530595  1
  O  O239  1  0.85813466  0.50709264  0.74551930  1
  O  O240  1  0.13171167  0.36501054  0.37246645  1
  O  O241  1  0.13490209  0.37279803  0.86595163  1
  O  O242  1  0.08742379  0.90146838  0.48941003  1
  O  O243  1  0.11937493  0.85294333  0.90460514  1
  O  O244  1  0.62463840  0.35409258  0.36209060  1
  O  O245  1  0.65573550  0.34128595  0.90846836  1
  O  O246  1  0.61277902  0.87464849  0.37515025  1
  O  O247  1  0.61064875  0.86322310  0.87497007  1
  O  O248  1  0.36945144  0.13067052  0.13375474  1
  O  O249  1  0.34363604  0.09617268  0.63681072  1
  O  O250  1  0.44484138  0.70282802  0.19073439  1
  O  O251  1  0.38230549  0.64895353  0.62646202  1
  O  O252  1  0.87022392  0.11091210  0.13848699  1
  O  O253  1  0.87698326  0.15512442  0.60817430  1
  O  O254  1  0.87829474  0.61420734  0.13387883  1
  O  O255  1  0.88560277  0.61929186  0.62681571  1
  O  O256  1  0.25282849  0.26406987  0.12094012  1
  O  O257  1  0.21945782  0.24394907  0.60651148  1
  O  O258  1  0.24337246  0.76397088  0.13426830  1
  O  O259  1  0.25921400  0.75562650  0.64791732  1
  O  O260  1  0.76543452  0.24547930  0.14327868  1
  O  O261  1  0.75016017  0.25341762  0.61880460  1
  O  O262  1  0.75794088  0.77046756  0.12762340  1
  O  O263  1  0.75267810  0.76136525  0.60288570  1
  O  O264  1  0.23433638  0.23076786  0.37567290  1
  O  O265  1  0.25277151  0.25279288  0.88608114  1
  O  O266  1  0.24512268  0.72305453  0.36502689  1
  O  O267  1  0.25603388  0.70104081  0.88940814  1
  O  O268  1  0.73245884  0.23511582  0.37452682  1
  O  O269  1  0.79587915  0.23008606  0.92005908  1
  O  O270  1  0.74661011  0.73848775  0.37401441  1
  O  O271  1  0.73959758  0.76791947  0.86064141  1
  O  O272  1  0.02374278  0.13809645  -0.01203136  1
  O  O273  1  0.01444420  0.10105367  0.50075178  1
  O  O274  1  -0.02827215  0.62910589  0.00317512  1
  O  O275  1  0.00319277  0.61423669  0.51276204  1
  O  O276  1  0.48817555  0.11274966  0.01069471  1
  O  O277  1  0.49772227  0.10908173  0.49212394  1
  O  O278  1  0.53052180  0.61352416  -0.00564534  1
  O  O279  1  0.50382233  0.68727406  0.51234283  1
  O  O280  1  0.43436028  0.30870138  0.45922594  1
  O  O281  1  0.51977621  0.39625878  1.01902612  1
  O  O282  1  0.48893783  0.88305804  0.48695082  1
  O  O283  1  0.49868137  0.87855006  0.99646170  1
  O  O284  1  1.00571169  0.38868502  0.50330573  1
  O  O285  1  0.96636049  0.36207458  1.02888458  1
  O  O286  1  0.90082261  0.89248463  0.61377288  1
  O  O287  1  0.98455370  0.87662803  0.98275286  1
  O  O288  1  0.53739869  0.50243272  0.42420354  1
  O  O289  1  0.54152302  0.49490804  0.88883750  1
  O  O290  1  0.49864887  0.98842864  0.38401335  1
  O  O291  1  0.49748825  0.98135415  0.88336466  1
  O  O292  1  1.00146908  0.50244201  0.39103565  1
  O  O293  1  0.96260748  0.49031141  0.86459242  1
  O  O294  1  1.03367946  0.92560852  0.43397615  1
  O  O295  1  1.01878612  0.97314502  0.84366123  1
  O  O296  1  0.01186506  -0.00971383  0.11416761  1
  O  O297  1  -0.04210744  -0.11009319  0.56198071  1
  O  O298  1  -0.01474776  0.49746049  0.12007547  1
  O  O299  1  0.00534672  0.50857037  0.62144333  1
  O  O300  1  0.50308295  0.00981788  0.11637240  1
  O  O301  1  0.48905578  -0.01028058  0.60863499  1
  O  O302  1  0.51878109  0.50725983  0.12722334  1
  O  O303  1  0.49595810  0.54497318  0.58762254  1
  O  O304  1  0.26466437  0.37300492  0.25621960  1
  O  O305  1  0.23045502  0.36870003  0.74448170  1
  O  O306  1  0.24272659  0.88531029  0.23244383  1
  O  O307  1  0.23622026  0.85312594  0.77902616  1
  O  O308  1  0.74601803  0.38548732  0.26241257  1
  O  O309  1  0.74334581  0.37474076  0.73459307  1
  O  O310  1  0.75754123  0.89373219  0.26901154  1
  O  O311  1  0.73157756  0.87639598  0.73387474  1
  O  O312  1  0.25363622  0.11493075  0.24373587  1
  O  O313  1  0.24975340  0.13072871  0.76637901  1
  O  O314  1  0.23974781  0.61072773  0.24755184  1
  O  O315  1  0.27565165  0.61408832  0.74364591  1
  O  O316  1  0.76118097  0.11694481  0.27070269  1
  O  O317  1  0.73873528  0.18708725  0.78062858  1
  O  O318  1  0.76376731  0.61817934  0.25168560  1
  O  O319  1  0.76200111  0.63523687  0.73755149  1
  O  O320  1  0.35707079  0.12560302  0.35335450  1
  O  O321  1  0.36246980  0.13171190  0.88398836  1
  O  O322  1  0.37462985  0.63490679  0.36335973  1
  O  O323  1  0.40114410  0.61606865  0.85367501  1
  O  O324  1  0.85453743  0.12633960  0.40342309  1
  O  O325  1  0.87540492  0.07956051  0.93642717  1
  O  O326  1  0.86391084  0.62688296  0.35929244  1
  O  O327  1  0.86620085  0.62089918  0.86016264  1
  O  O328  1  0.14271135  0.37697821  0.14400194  1
  O  O329  1  0.11673669  0.38641359  0.63672957  1
  O  O330  1  0.12959186  0.86800854  0.09813698  1
  O  O331  1  0.14491258  0.86044919  0.64088632  1
  O  O332  1  0.63351079  0.37651751  0.13433662  1
  O  O333  1  0.56037102  0.39802821  0.59705381  1
  O  O334  1  0.69741892  0.86634246  0.02826143  1
  O  O335  1  0.61292419  0.86194697  0.62224815  1
  O  O336  1  0.10975811  0.24621845  0.26107382  1
  O  O337  1  0.11490728  0.26241856  0.76865191  1
  O  O338  1  0.11145466  0.71251488  0.23999642  1
  O  O339  1  0.10480667  0.72519237  0.76109953  1
  O  O340  1  0.62110670  0.24675050  0.25504317  1
  O  O341  1  0.58783300  0.27359780  0.73752893  1
  O  O342  1  0.63591134  0.76356763  0.26652690  1
  O  O343  1  0.61659576  0.76321035  0.75418898  1
  O  O344  1  0.38085888  0.23622114  0.24367556  1
  O  O345  1  0.37741758  0.27418619  0.74224663  1
  O  O346  1  0.49217561  0.75846657  0.17563163  1
  O  O347  1  0.38160441  0.73956850  0.74950561  1
  O  O348  1  0.88126475  0.22896945  0.26120421  1
  O  O349  1  0.88388526  0.26211270  0.72561298  1
  O  O350  1  0.88105896  0.73910249  0.24093922  1
  O  O351  1  0.88693381  0.73319322  0.74880668  1
  O  O352  1  0.36559528  0.47330832  0.52591007  1
  O  O353  1  0.41093687  0.51452277  0.99927403  1
  O  O354  1  0.38201740  0.98691704  0.49478842  1
  O  O355  1  0.39160907  0.97861631  1.00602756  1
  O  O356  1  0.88941972  0.48918470  0.50566708  1
  O  O357  1  0.84392351  0.48583184  0.97719645  1
  O  O358  1  0.98890590  1.04348217  0.53805961  1
  O  O359  1  0.96674323  1.01701866  1.06175077  1
  O  O360  1  0.12947844  0.01763528  -0.00728690  1
  O  O361  1  0.07522052  -0.01951167  0.38740736  1
  O  O362  1  0.10949175  0.46807972  0.02877476  1
  O  O363  1  0.11650198  0.50296384  0.51374966  1
  O  O364  1  0.60370255  -0.00000656  -0.00943025  1
  O  O365  1  0.60743264  0.01016186  0.50403532  1
  O  O366  1  0.63081210  0.51258393  0.02251010  1
  O  O367  1  0.59407067  0.48717691  0.47410107  1
  O  O368  1  0.36757913  0.35573840  0.13233079  1
  O  O369  1  0.38516985  0.41695282  0.57191449  1
  O  O370  1  0.37952844  0.86301382  0.11922642  1
  O  O371  1  0.35102098  0.86834246  0.64696760  1
  O  O372  1  0.90276999  0.34764904  0.06093074  1
  O  O373  1  0.88011326  0.36533671  0.61014957  1
  O  O374  1  0.88013322  0.88219620  0.12182823  1
  O  O375  1  0.89211357  0.96542168  0.65020392  1
  O  O376  1  0.13319043  0.12397487  0.35434180  1
  O  O377  1  0.13965687  0.14916985  0.88387575  1
  O  O378  1  0.12192873  0.61989538  0.39666717  1
  O  O379  1  0.11656137  0.60740902  0.89841333  1
  O  O380  1  0.62972551  0.13061927  0.38472156  1
  O  O381  1  0.56648776  0.13736599  0.86018623  1
  O  O382  1  0.63468197  0.64168621  0.36595383  1
  O  O383  1  0.63742284  0.63829224  0.86697591  1
