# generated using pymatgen
data_VZnO4
_symmetry_space_group_name_H-M   'P 1'
_cell_length_a   16.89296310
_cell_length_b   16.94438151
_cell_length_c   17.05876707
_cell_angle_alpha   90.39574855
_cell_angle_beta   90.44515394
_cell_angle_gamma   90.27267039
_symmetry_Int_Tables_number   1
_chemical_formula_structural   VZnO4
_chemical_formula_sum   'V64 Zn64 O256'
_cell_volume   4882.59493312
_cell_formula_units_Z   64
loop_
 _symmetry_equiv_pos_site_id
 _symmetry_equiv_pos_as_xyz
  1  'x, y, z'
loop_
 _atom_site_type_symbol
 _atom_site_label
 _atom_site_symmetry_multiplicity
 _atom_site_fract_x
 _atom_site_fract_y
 _atom_site_fract_z
 _atom_site_occupancy
  V  V0  1  0.64510479  0.61920035  0.01503658  1
  V  V1  1  -0.01871923  0.36112698  0.86491555  1
  V  V2  1  -0.01053824  0.63062049  0.63000509  1
  V  V3  1  0.63910641  0.23938082  0.38002671  1
  V  V4  1  0.38352484  0.38359590  0.50764306  1
  V  V5  1  -0.01432015  0.23916960  0.24871681  1
  V  V6  1  0.87963654  0.00513825  0.88990583  1
  V  V7  1  0.63315796  -0.00222342  0.12626734  1
  V  V8  1  0.47761667  0.00440500  -0.00785883  1
  V  V9  1  0.12606161  0.36490684  0.75544327  1
  V  V10  1  0.62494144  0.90431615  0.76272313  1
  V  V11  1  0.10873130  0.13776274  -0.00019253  1
  V  V12  1  0.37835224  0.49531509  0.36046283  1
  V  V13  1  0.75620954  0.48132906  0.75124862  1
  V  V14  1  0.25811430  0.61877365  0.37086891  1
  V  V15  1  0.24431571  0.00404001  0.77566068  1
  V  V16  1  0.86885590  0.11186420  0.73006420  1
  V  V17  1  0.71751563  0.85491615  0.61199065  1
  V  V18  1  0.61352401  0.12413465  0.50787098  1
  V  V19  1  0.74951481  0.11859631  0.87074774  1
  V  V20  1  0.86318106  0.50806855  0.38064264  1
  V  V21  1  -0.00912223  0.23666943  0.72919006  1
  V  V22  1  0.87718044  0.77936022  0.12461663  1
  V  V23  1  0.38315764  0.23915896  0.61521456  1
  V  V24  1  0.48138403  0.86814428  0.40461954  1
  V  V25  1  0.88274260  0.52159626  0.87199589  1
  V  V26  1  0.86460460  0.36318355  0.50505348  1
  V  V27  1  0.35234005  0.60999427  0.76619533  1
  V  V28  1  0.62570562  0.12567405  -0.00246602  1
  V  V29  1  0.62592481  0.26250481  0.87223169  1
  V  V30  1  0.36934896  0.73805713  0.64283243  1
  V  V31  1  0.89158885  0.62082587  0.23402136  1
  V  V32  1  0.64495378  0.74609832  0.33635030  1
  V  V33  1  0.12864539  0.61254315  0.49978051  1
  V  V34  1  0.11979448  0.49741077  0.63049328  1
  V  V35  1  0.11791340  0.25410358  0.36271078  1
  V  V36  1  0.50324917  0.73582437  0.76454148  1
  V  V37  1  0.90011269  0.00099623  0.38849463  1
  V  V38  1  0.25681593  0.74414595  0.50543957  1
  V  V39  1  0.23421145  0.25123003  0.49925901  1
  V  V40  1  0.11022527  0.00319594  0.13614955  1
  V  V41  1  0.25685384  0.13641754  0.34776227  1
  V  V42  1  0.24550106  0.76304482  0.00872056  1
  V  V43  1  0.37057334  0.12235455  0.76735677  1
  V  V44  1  0.48653620  0.12923571  0.12455793  1
  V  V45  1  0.25549327  0.88087923  0.62311744  1
  V  V46  1  0.10701736  0.88383156  0.74282236  1
  V  V47  1  0.11661881  0.74901219  0.87491975  1
  V  V48  1  0.50218913  0.24549047  0.24623763  1
  V  V49  1  0.25199555  0.37913219  0.62565160  1
  V  V50  1  0.77504243  0.25395297  0.01384158  1
  V  V51  1  0.75337967  0.50257552  0.23018742  1
  V  V52  1  0.75555636  0.76534227  -0.00030896  1
  V  V53  1  0.00522389  0.77281483  0.25834230  1
  V  V54  1  0.62361464  0.50354107  0.60252077  1
  V  V55  1  0.84889169  0.11761558  0.25395659  1
  V  V56  1  0.00202084  0.38698640  0.38242188  1
  V  V57  1  0.50408393  0.25156434  0.74947003  1
  V  V58  1  -0.00804660  0.88113083  0.89724463  1
  V  V59  1  0.50993666  0.37821544  0.38121866  1
  V  V60  1  0.25800321  0.88568372  0.14973687  1
  V  V61  1  0.63483057  0.37909167  0.23646964  1
  V  V62  1  0.10206108  0.62783553  0.02525492  1
  V  V63  1  0.48085111  0.88168198  0.87617336  1
  Zn  Zn64  1  0.21774349  0.16366928  0.14467296  1
  Zn  Zn65  1  0.18665946  0.18936061  0.69293823  1
  Zn  Zn66  1  0.18235279  0.69553196  0.19218201  1
  Zn  Zn67  1  0.18178445  0.68716250  0.70016630  1
  Zn  Zn68  1  0.68418434  0.18535884  0.18473554  1
  Zn  Zn69  1  0.67705829  0.16770624  0.69173087  1
  Zn  Zn70  1  0.69732957  0.68509975  0.17662701  1
  Zn  Zn71  1  0.67926101  0.67503089  0.69218539  1
  Zn  Zn72  1  0.33142453  0.28707166  0.32848651  1
  Zn  Zn73  1  0.32631741  0.32001800  0.79511754  1
  Zn  Zn74  1  0.33330848  0.80909644  0.33375433  1
  Zn  Zn75  1  0.29890398  0.81449966  0.81606341  1
  Zn  Zn76  1  0.81400691  0.31895473  0.31569718  1
  Zn  Zn77  1  0.80842465  0.29783899  0.79981674  1
  Zn  Zn78  1  0.85085595  0.79628772  0.34566371  1
  Zn  Zn79  1  0.79308107  0.82295950  0.83307223  1
  Zn  Zn80  1  0.19348735  0.43561719  0.43727644  1
  Zn  Zn81  1  -0.00055637  0.47893085  1.01682026  1
  Zn  Zn82  1  0.33355961  0.97189016  0.30207518  1
  Zn  Zn83  1  0.16821014  0.93808963  0.94324684  1
  Zn  Zn84  1  0.69207123  0.43916054  0.43348723  1
  Zn  Zn85  1  0.71111002  0.43683272  0.94341625  1
  Zn  Zn86  1  0.64084790  0.93403720  0.43956027  1
  Zn  Zn87  1  0.68209865  0.94224333  0.94158452  1
  Zn  Zn88  1  0.27143860  0.04615243  0.03777696  1
  Zn  Zn89  1  0.26297476  0.08364052  0.57190689  1
  Zn  Zn90  1  0.27685930  0.59502520  -0.06590883  1
  Zn  Zn91  1  0.31476548  0.55978438  0.57107367  1
  Zn  Zn92  1  0.81809386  0.07130016  0.06772464  1
  Zn  Zn93  1  0.78442266  0.02242346  0.54920363  1
  Zn  Zn94  1  0.82311629  0.55654883  0.05498214  1
  Zn  Zn95  1  0.83005323  0.51619731  0.58897353  1
  Zn  Zn96  1  0.41618447  0.39320862  0.20703208  1
  Zn  Zn97  1  0.48200817  0.46966082  0.73488542  1
  Zn  Zn98  1  0.43575364  0.93111109  0.15860290  1
  Zn  Zn99  1  0.42368172  0.93112853  0.70506874  1
  Zn  Zn100  1  0.93969203  0.42781778  0.19997034  1
  Zn  Zn101  1  0.94286533  0.43847119  0.69092942  1
  Zn  Zn102  1  0.93626064  0.95013822  0.20000213  1
  Zn  Zn103  1  0.88512892  0.91940425  0.69967057  1
  Zn  Zn104  1  0.07146243  0.06390077  0.31786542  1
  Zn  Zn105  1  0.06206254  0.07054235  0.82097998  1
  Zn  Zn106  1  0.06856661  0.56141344  0.31278736  1
  Zn  Zn107  1  0.05881914  0.55799592  0.80807693  1
  Zn  Zn108  1  0.52562488  0.02377660  0.29480131  1
  Zn  Zn109  1  0.55290236  0.06971578  0.81492111  1
  Zn  Zn110  1  0.56576228  0.56314894  0.30779499  1
  Zn  Zn111  1  0.57943936  0.53180793  0.87654286  1
  Zn  Zn112  1  0.44459957  0.18479206  0.43499509  1
  Zn  Zn113  1  0.43992711  0.19415503  0.93603743  1
  Zn  Zn114  1  0.43267948  0.69043444  0.43656283  1
  Zn  Zn115  1  0.43176389  0.69330424  0.93978591  1
  Zn  Zn116  1  0.91107606  0.19684608  0.41962739  1
  Zn  Zn117  1  0.94667816  0.18444373  0.93139654  1
  Zn  Zn118  1  0.95442582  0.66925146  0.42680110  1
  Zn  Zn119  1  0.93012279  0.70115180  0.93658081  1
  Zn  Zn120  1  0.01618629  0.30792308  0.06051041  1
  Zn  Zn121  1  0.05168255  0.31831986  0.55916222  1
  Zn  Zn122  1  0.06682582  0.82151182  0.07543437  1
  Zn  Zn123  1  0.08446056  0.78992843  0.58244591  1
  Zn  Zn124  1  0.57086016  0.30800429  0.06075823  1
  Zn  Zn125  1  0.57078399  0.31448362  0.56448348  1
  Zn  Zn126  1  0.57031511  0.81399041  0.05406625  1
  Zn  Zn127  1  0.54840305  0.81027276  0.58383936  1
  O  O128  1  0.11389328  0.11089216  0.12095395  1
  O  O129  1  0.15488300  0.10202014  0.62173994  1
  O  O130  1  0.11318757  0.63191931  0.12501451  1
  O  O131  1  0.13024320  0.61096664  0.62006771  1
  O  O132  1  0.61564546  0.12534546  0.10897011  1
  O  O133  1  0.61298045  0.13142064  0.60798819  1
  O  O134  1  0.62868209  0.61325894  0.11290044  1
  O  O135  1  0.62059134  0.60111563  0.63043143  1
  O  O136  1  0.38352313  0.38232206  0.38597519  1
  O  O137  1  0.35943885  0.39146013  0.87780193  1
  O  O138  1  0.38479988  0.90690288  0.38664097  1
  O  O139  1  0.38180918  0.88377451  0.86284560  1
  O  O140  1  0.87904220  0.38710675  0.38975736  1
  O  O141  1  0.88071676  0.36558287  0.86275712  1
  O  O142  1  0.86878139  0.90380387  0.37389799  1
  O  O143  1  0.88227393  0.89247759  0.87060249  1
  O  O144  1  0.26150652  0.03787287  0.35555068  1
  O  O145  1  0.24894300  -0.00358178  0.87182936  1
  O  O146  1  0.26647368  0.50554789  0.38018434  1
  O  O147  1  0.29551494  0.44028640  0.88706967  1
  O  O148  1  0.71901233  -0.03799694  0.33884351  1
  O  O149  1  0.75926259  0.01151990  0.88191744  1
  O  O150  1  0.76178634  0.49613970  0.35830831  1
  O  O151  1  0.77920187  0.49154701  0.86844049  1
  O  O152  1  0.30938186  0.45866216  0.10233882  1
  O  O153  1  0.24406787  0.48430429  0.62581360  1
  O  O154  1  0.25686085  0.98984817  0.14277868  1
  O  O155  1  0.26529371  0.97918285  0.61040417  1
  O  O156  1  0.76364425  0.48893799  0.13280251  1
  O  O157  1  0.73387067  0.49733722  0.64539883  1
  O  O158  1  0.73245045  1.01116425  0.11272065  1
  O  O159  1  0.79752240  0.92621886  0.62106934  1
  O  O160  1  -0.02154274  0.35473180  0.27990469  1
  O  O161  1  0.00559908  0.35925171  0.74617167  1
  O  O162  1  0.00099861  0.87161480  0.25955116  1
  O  O163  1  0.00902500  0.89471409  0.72739559  1
  O  O164  1  0.52028683  0.37249137  0.25867778  1
  O  O165  1  0.48434421  0.34693090  0.74738764  1
  O  O166  1  0.48810984  0.82716031  0.19515385  1
  O  O167  1  0.50622813  0.87759002  0.76361840  1
  O  O168  1  0.50152587  0.14063714  0.24049780  1
  O  O169  1  0.47776703  0.13018715  0.75067860  1
  O  O170  1  0.48667834  0.60616785  0.22837357  1
  O  O171  1  0.47820613  0.63942334  0.76921886  1
  O  O172  1  1.00009881  0.14054612  0.26511065  1
  O  O173  1  0.98839439  0.12926385  0.74580696  1
  O  O174  1  0.99260807  0.62073827  0.25299006  1
  O  O175  1  1.01018646  0.62548362  0.72744323  1
  O  O176  1  0.41496317  0.29101663  0.00114306  1
  O  O177  1  0.37637087  0.25747281  0.50890790  1
  O  O178  1  0.34235175  0.73802956  -0.00666454  1
  O  O179  1  0.36530498  0.73095440  0.52992693  1
  O  O180  1  0.87524665  0.24179837  0.00295548  1
  O  O181  1  0.88058759  0.26351958  0.50312580  1
  O  O182  1  0.87444554  0.76309245  0.01825133  1
  O  O183  1  0.84545493  0.71956965  0.49703867  1
  O  O184  1  0.13306268  0.25789516  0.49864925  1
  O  O185  1  0.09843842  0.23865909  1.02118658  1
  O  O186  1  0.14643271  0.72727391  0.50973157  1
  O  O187  1  0.11834233  0.75817543  0.98673434  1
  O  O188  1  0.61697855  0.23901004  0.48902885  1
  O  O189  1  0.62081171  0.24178545  0.98240579  1
  O  O190  1  0.57976290  0.70604812  0.51988760  1
  O  O191  1  0.64994455  0.74061178  1.01541254  1
  O  O192  1  0.51296353  0.24069498  0.13626186  1
  O  O193  1  0.48802330  0.24512817  0.63068296  1
  O  O194  1  0.48791382  0.73882194  0.09541405  1
  O  O195  1  0.47721118  0.75462197  0.65545575  1
  O  O196  1  0.98250745  0.24992137  0.15212800  1
  O  O197  1  0.99823585  0.24738988  0.63061777  1
  O  O198  1  0.98768226  0.76746188  0.14208200  1
  O  O199  1  0.99590900  0.73144676  0.60709026  1
  O  O200  1  0.01199379  0.25376322  0.38530974  1
  O  O201  1  -0.00720419  0.25528924  0.85047708  1
  O  O202  1  -0.03567235  0.75684983  0.35879693  1
  O  O203  1  -0.00068998  0.77559616  0.87407781  1
  O  O204  1  0.51052584  0.25778010  0.36104003  1
  O  O205  1  0.51349890  0.24330527  0.86063565  1
  O  O206  1  0.44320370  0.77200294  0.36079680  1
  O  O207  1  0.48753983  0.77129798  0.87024551  1
  O  O208  1  0.25393058  0.15099327  0.48055303  1
  O  O209  1  0.23570768  0.15359661  1.03596901  1
  O  O210  1  0.24890659  0.62450349  0.49872339  1
  O  O211  1  0.21147463  0.64946926  1.00073042  1
  O  O212  1  0.75265826  0.17893531  0.54218978  1
  O  O213  1  0.74358415  0.13871060  0.98908254  1
  O  O214  1  0.78198241  0.68224201  0.49798130  1
  O  O215  1  0.74944728  0.62992858  1.00738213  1
  O  O216  1  0.23698471  0.29669472  -0.04473323  1
  O  O217  1  0.26159044  0.36638348  0.50653619  1
  O  O218  1  0.24057374  0.86395185  -0.00625111  1
  O  O219  1  0.25154869  0.84876162  0.51874858  1
  O  O220  1  0.75619205  0.35120662  -0.00344168  1
  O  O221  1  0.76502033  0.37598130  0.49512722  1
  O  O222  1  0.74603080  0.86537471  -0.00582423  1
  O  O223  1  0.69128289  0.85994948  0.51532141  1
  O  O224  1  0.15172155  0.50583543  0.25523295  1
  O  O225  1  0.12258787  0.48263782  0.73691291  1
  O  O226  1  0.12486878  1.00851754  0.23619888  1
  O  O227  1  0.13434000  0.99440944  0.75878635  1
  O  O228  1  0.64123204  0.48929548  0.25105142  1
  O  O229  1  0.65706298  0.53267674  0.77975382  1
  O  O230  1  0.61284937  1.01498546  0.22322210  1
  O  O231  1  0.62122803  1.00367097  0.75030835  1
  O  O232  1  0.42551600  -0.00202494  0.24654907  1
  O  O233  1  0.35961574  0.01403820  0.75151395  1
  O  O234  1  0.37083343  0.48328544  0.26260280  1
  O  O235  1  0.37122697  0.51434710  0.74513876  1
  O  O236  1  0.87432442  0.01313959  0.26930221  1
  O  O237  1  0.87535135  0.01171603  0.76437395  1
  O  O238  1  0.86942235  0.49922096  0.25409358  1
  O  O239  1  0.86269927  0.49894131  0.75025159  1
  O  O240  1  0.10916443  0.37416392  0.38416351  1
  O  O241  1  0.12022028  0.37568166  0.85082632  1
  O  O242  1  0.13752083  0.88257770  0.37975853  1
  O  O243  1  0.10202098  0.88005718  0.86339908  1
  O  O244  1  0.62032450  0.36940299  0.37139056  1
  O  O245  1  0.63248378  0.35971107  0.87779637  1
  O  O246  1  0.58974557  0.82339816  0.38320434  1
  O  O247  1  0.60821637  0.89086305  0.86639071  1
  O  O248  1  0.39090155  0.13531930  0.11817945  1
  O  O249  1  0.35820929  0.13978807  0.62078488  1
  O  O250  1  0.43175614  0.57474137  0.11154187  1
  O  O251  1  0.36391918  0.63216477  0.64813351  1
  O  O252  1  0.87188179  0.11784117  0.15514161  1
  O  O253  1  0.85300290  0.09397196  0.63577784  1
  O  O254  1  0.89020527  0.60594879  0.13544380  1
  O  O255  1  0.89186283  0.60876610  0.61782753  1
  O  O256  1  0.23917164  0.30765680  0.15038181  1
  O  O257  1  0.25089947  0.25585384  0.60982839  1
  O  O258  1  0.23372830  0.76697614  0.11626856  1
  O  O259  1  0.25382511  0.75081164  0.62903842  1
  O  O260  1  0.75084751  0.24205984  0.11012196  1
  O  O261  1  0.75008176  0.22360215  0.60208805  1
  O  O262  1  0.77383831  0.74630732  0.11756676  1
  O  O263  1  0.73488680  0.75887631  0.63661693  1
  O  O264  1  0.23125636  0.27199046  0.38483481  1
  O  O265  1  0.25824785  0.25770234  0.89761233  1
  O  O266  1  0.27160773  0.73271226  0.39909164  1
  O  O267  1  0.22302995  0.76049686  0.88130564  1
  O  O268  1  0.73717234  0.25816258  0.37678073  1
  O  O269  1  0.73804144  0.23885528  0.87383436  1
  O  O270  1  0.74532035  0.75852496  0.35575581  1
  O  O271  1  0.77101263  0.73933120  0.90196387  1
  O  O272  1  0.00775487  0.11484390  -0.00329950  1
  O  O273  1  0.08476087  0.11109844  0.56239810  1
  O  O274  1  0.00441179  0.65207281  0.00661740  1
  O  O275  1  0.02370226  0.62104355  0.50212551  1
  O  O276  1  0.50189568  0.12276352  0.00354895  1
  O  O277  1  0.51544351  0.11136970  0.48258967  1
  O  O278  1  0.53030591  0.64091409  -0.02204461  1
  O  O279  1  0.52318734  0.65631751  0.50743643  1
  O  O280  1  0.49551788  0.36464047  0.48797112  1
  O  O281  1  0.47154530  0.34452275  1.00160672  1
  O  O282  1  0.48564307  0.85583802  0.50341851  1
  O  O283  1  0.49707381  0.89301964  0.98563324  1
  O  O284  1  0.98730869  0.37910378  0.48706078  1
  O  O285  1  1.00933387  0.36962758  0.96110139  1
  O  O286  1  1.11312756  0.90340491  0.44809518  1
  O  O287  1  1.00137835  0.88240751  0.99348574  1
  O  O288  1  0.49066946  0.48973784  0.36917132  1
  O  O289  1  0.49798813  0.47125918  0.84268749  1
  O  O290  1  0.53747702  0.96112473  0.38844137  1
  O  O291  1  0.49114500  1.00133180  0.88556317  1
  O  O292  1  0.99119676  0.48975079  0.36692884  1
  O  O293  1  0.98379576  0.48123390  0.84973491  1
  O  O294  1  1.00142611  1.00734247  0.38530505  1
  O  O295  1  0.98837953  0.99386485  0.87418382  1
  O  O296  1  0.01187552  -0.01620573  0.12303317  1
  O  O297  1  0.02841131  0.06537109  0.57429795  1
  O  O298  1  0.11946909  0.45826598  0.19399561  1
  O  O299  1  0.01681019  0.50615663  0.62275420  1
  O  O300  1  0.50433800  0.01516177  0.10392179  1
  O  O301  1  0.47822995  -0.00792612  0.61150808  1
  O  O302  1  0.48641010  0.56078940  0.16068495  1
  O  O303  1  0.52206571  0.47869604  0.63181695  1
  O  O304  1  0.25219705  0.34294227  0.21356904  1
  O  O305  1  0.23467108  0.35621173  0.73651049  1
  O  O306  1  0.27814796  0.86965085  0.25240531  1
  O  O307  1  0.24336818  0.89433127  0.74408032  1
  O  O308  1  0.74184386  0.38019010  0.24882044  1
  O  O309  1  0.74464211  0.38176075  0.75458143  1
  O  O310  1  0.72543545  0.91832691  0.28096697  1
  O  O311  1  0.72589225  0.87760824  0.76021455  1
  O  O312  1  0.24927954  0.16027115  0.25051918  1
  O  O313  1  0.25444424  0.11289871  0.74951121  1
  O  O314  1  0.24837579  0.64119283  0.27562301  1
  O  O315  1  0.25035554  0.61920409  0.76157235  1
  O  O316  1  0.74889867  0.12477648  0.25479799  1
  O  O317  1  0.76011769  0.12893121  0.75827279  1
  O  O318  1  0.76538620  0.60706232  0.23764686  1
  O  O319  1  0.71696080  0.59513393  0.77306151  1
  O  O320  1  0.35636634  0.17400068  0.36370564  1
  O  O321  1  0.36744585  0.13833318  0.86519681  1
  O  O322  1  0.37259645  0.60445447  0.38236690  1
  O  O323  1  0.36618781  0.62098494  0.87305373  1
  O  O324  1  0.86720077  0.10997351  0.36955629  1
  O  O325  1  0.86863920  0.11654811  0.86887579  1
  O  O326  1  0.87986569  0.60995886  0.35714452  1
  O  O327  1  0.89115530  0.62006474  0.86322937  1
  O  O328  1  0.15892800  0.45737614  0.13173262  1
  O  O329  1  0.12930700  0.38402376  0.62295457  1
  O  O330  1  0.14475718  0.89183090  0.12397078  1
  O  O331  1  0.13959513  0.87192025  0.63732823  1
  O  O332  1  0.62139224  0.37354993  0.13843435  1
  O  O333  1  0.61930884  0.39236136  0.62920529  1
  O  O334  1  0.61689729  0.89919975  0.11036048  1
  O  O335  1  0.61777960  0.87529224  0.65067916  1
  O  O336  1  0.10532951  0.26428549  0.26494559  1
  O  O337  1  0.10934346  0.25539496  0.74100363  1
  O  O338  1  0.10180268  0.74610035  0.25979163  1
  O  O339  1  0.12391144  0.77429585  0.76072171  1
  O  O340  1  0.62226776  0.26051133  0.25836759  1
  O  O341  1  0.61329093  0.24130360  0.75588212  1
  O  O342  1  0.63288419  0.75423001  0.23668665  1
  O  O343  1  0.60322834  0.73989044  0.75622826  1
  O  O344  1  0.40168845  0.28060304  0.23867851  1
  O  O345  1  0.37573277  0.23601079  0.73759254  1
  O  O346  1  0.45524076  0.76181499  0.16340384  1
  O  O347  1  0.36361967  0.73957320  0.75281661  1
  O  O348  1  0.87830428  0.23190754  0.27629507  1
  O  O349  1  0.88063388  0.23098241  0.73734220  1
  O  O350  1  0.88130303  0.73234434  0.23316027  1
  O  O351  1  0.86402444  0.75637417  0.75491568  1
  O  O352  1  0.37724216  0.48562246  0.50689443  1
  O  O353  1  0.29929084  0.48100401  0.95413557  1
  O  O354  1  0.43207645  1.00258635  0.55441654  1
  O  O355  1  0.37964264  1.01163292  1.00176606  1
  O  O356  1  0.86435181  0.51304670  0.47999787  1
  O  O357  1  0.89205337  0.50933431  0.97683507  1
  O  O358  1  0.87540779  1.01458690  0.48601221  1
  O  O359  1  0.87423209  1.01053284  0.98777526  1
  O  O360  1  0.15088825  0.01785297  0.01849853  1
  O  O361  1  0.13271812  -0.02747646  0.47478291  1
  O  O362  1  0.09964230  0.52960891  -0.00310221  1
  O  O363  1  0.13768794  0.50599490  0.51436167  1
  O  O364  1  0.61435140  0.01633595  -0.00048812  1
  O  O365  1  0.67640529  0.03524076  0.49805185  1
  O  O366  1  0.63900003  0.51669948  -0.02174621  1
  O  O367  1  0.63277419  0.50469730  0.50296634  1
  O  O368  1  0.36827950  0.41341048  0.09845180  1
  O  O369  1  0.36453219  0.35674731  0.62080989  1
  O  O370  1  0.35017242  0.87318949  0.10912640  1
  O  O371  1  0.35877097  0.85647532  0.64387736  1
  O  O372  1  0.98234339  0.41089789  0.10403141  1
  O  O373  1  0.88003046  0.40396899  0.60089019  1
  O  O374  1  0.86600121  0.87591352  0.14008645  1
  O  O375  1  0.88580726  0.79660699  0.69497060  1
  O  O376  1  0.14171117  0.14911711  0.36827056  1
  O  O377  1  0.12588844  0.12598982  0.89745291  1
  O  O378  1  0.14419812  0.60858932  0.39172833  1
  O  O379  1  0.10512285  0.64916690  0.86492111  1
  O  O380  1  0.63133753  0.14006405  0.38027494  1
  O  O381  1  0.63208105  0.12734512  0.87974376  1
  O  O382  1  0.61089487  0.65164323  0.35962015  1
  O  O383  1  0.58565578  0.64421257  0.91304883  1
