# generated using pymatgen
data_VZnO4
_symmetry_space_group_name_H-M   'P 1'
_cell_length_a   16.95787945
_cell_length_b   16.90562070
_cell_length_c   16.88020837
_cell_angle_alpha   89.97589367
_cell_angle_beta   89.90378714
_cell_angle_gamma   89.95824291
_symmetry_Int_Tables_number   1
_chemical_formula_structural   VZnO4
_chemical_formula_sum   'V64 Zn64 O256'
_cell_volume   4839.26831005
_cell_formula_units_Z   64
loop_
 _symmetry_equiv_pos_site_id
 _symmetry_equiv_pos_as_xyz
  1  'x, y, z'
loop_
 _atom_site_type_symbol
 _atom_site_label
 _atom_site_symmetry_multiplicity
 _atom_site_fract_x
 _atom_site_fract_y
 _atom_site_fract_z
 _atom_site_occupancy
  V  V0  1  0.72979342  0.61509905  0.36927592  1
  V  V1  1  0.86811211  0.37110300  0.48786783  1
  V  V2  1  0.73593959  0.62574248  0.87690811  1
  V  V3  1  -0.00260318  0.86985833  0.85313454  1
  V  V4  1  0.39143525  0.88317006  0.49913084  1
  V  V5  1  0.74151799  0.49628934  0.24379157  1
  V  V6  1  0.24393513  0.40213285  0.13191033  1
  V  V7  1  0.37629763  0.24008565  0.11696889  1
  V  V8  1  0.24107828  0.52168412  0.73249025  1
  V  V9  1  0.25296914  0.75211182  0.00515109  1
  V  V10  1  0.47689231  0.61390895  0.13502310  1
  V  V11  1  0.25824101  0.89855065  0.12246361  1
  V  V12  1  0.63523627  0.24927969  0.36837550  1
  V  V13  1  0.50296465  0.50546167  0.50304153  1
  V  V14  1  0.64424416  0.12445600  0.49905725  1
  V  V15  1  0.35506660  0.00097000  0.86669595  1
  V  V16  1  0.00950738  0.00422031  0.00879158  1
  V  V17  1  0.25491939  0.25822253  0.50441187  1
  V  V18  1  0.26067618  0.62606030  0.38710303  1
  V  V19  1  0.75264754  0.48218242  0.75486891  1
  V  V20  1  0.74561724  0.37218302  0.12082852  1
  V  V21  1  0.61724409  0.47762691  0.63146499  1
  V  V22  1  0.75284999  0.74779578  0.00858443  1
  V  V23  1  0.00138829  0.50725262  0.51217508  1
  V  V24  1  0.87918446  0.00204904  0.86638202  1
  V  V25  1  0.11216599  0.25613168  0.36904940  1
  V  V26  1  0.24827757  0.12970401  0.36745270  1
  V  V27  1  0.62997772  0.51119819  0.09895884  1
  V  V28  1  0.74650057  0.24131662  0.00222977  1
  V  V29  1  0.02024282  0.51114089  0.00347179  1
  V  V30  1  0.02552163  0.87030778  0.35736119  1
  V  V31  1  0.73785049  0.91679334  0.67955253  1
  V  V32  1  0.50101732  0.25007275  0.23319195  1
  V  V33  1  0.86345960  0.25405006  0.62036614  1
  V  V34  1  0.86540120  0.87698500  0.49154822  1
  V  V35  1  0.10909776  0.39427109  0.25085308  1
  V  V36  1  0.87552220  0.11754359  0.25436859  1
  V  V37  1  0.62428702  0.77276198  0.37203564  1
  V  V38  1  0.00070961  0.11724663  0.60761746  1
  V  V39  1  0.37208372  0.00878779  0.36911312  1
  V  V40  1  0.37788219  0.39218230  -0.00058057  1
  V  V41  1  0.49518682  0.02324564  0.51876013  1
  V  V42  1  0.74829468  0.73525189  0.50177546  1
  V  V43  1  0.88075416  0.51055797  0.87964203  1
  V  V44  1  0.89091342  0.63269483  0.24112775  1
  V  V45  1  0.00754756  0.24877785  0.74582250  1
  V  V46  1  0.87290696  0.12293157  0.75021329  1
  V  V47  1  0.12584883  -0.00051840  0.60853733  1
  V  V48  1  0.24989822  0.87396978  0.60987496  1
  V  V49  1  0.50136327  0.75501606  0.24469949  1
  V  V50  1  0.01017887  0.36806112  0.87268430  1
  V  V51  1  0.88824578  0.49981864  0.36922592  1
  V  V52  1  0.88869481  0.36187001  0.00500620  1
  V  V53  1  0.48350636  0.36573753  0.38302299  1
  V  V54  1  0.74503725  0.12625281  0.87749220  1
  V  V55  1  0.39123943  0.76013839  0.63510725  1
  V  V56  1  0.38079835  0.13436634  0.74016464  1
  V  V57  1  0.14509102  0.88230380  0.74720642  1
  V  V58  1  0.40089934  0.63684760  0.75643845  1
  V  V59  1  0.23546970  0.25327557  -0.00895934  1
  V  V60  1  0.12725710  0.37795516  0.72690854  1
  V  V61  1  0.13507165  0.74446321  0.86472185  1
  V  V62  1  0.37590424  0.50359951  0.86784357  1
  V  V63  1  0.87884468  0.86727163  0.00875633  1
  Zn  Zn64  1  0.20177621  0.21085056  0.19698294  1
  Zn  Zn65  1  0.19369846  0.18171859  0.67839469  1
  Zn  Zn66  1  0.14832209  0.81940310  0.23945526  1
  Zn  Zn67  1  0.17177580  0.70901067  0.66463553  1
  Zn  Zn68  1  0.69724535  0.19322049  0.19426887  1
  Zn  Zn69  1  0.67079070  0.19165379  0.68489117  1
  Zn  Zn70  1  0.69131581  0.69009074  0.19357948  1
  Zn  Zn71  1  0.69041065  0.64963020  0.67774234  1
  Zn  Zn72  1  0.30962419  0.31222683  0.30614154  1
  Zn  Zn73  1  0.30789050  0.32451023  0.80515879  1
  Zn  Zn74  1  0.32062687  0.81782823  0.30797484  1
  Zn  Zn75  1  0.34024341  0.80783007  0.84617225  1
  Zn  Zn76  1  0.81838383  0.31393314  0.30136497  1
  Zn  Zn77  1  0.81880663  0.30754207  0.81677748  1
  Zn  Zn78  1  0.83320237  0.79129706  0.34303035  1
  Zn  Zn79  1  0.80842612  0.81072450  0.81005277  1
  Zn  Zn80  1  0.17979470  0.43187368  0.44127556  1
  Zn  Zn81  1  0.19778455  0.43335794  0.92424132  1
  Zn  Zn82  1  0.18724833  0.93642113  0.42654630  1
  Zn  Zn83  1  0.19339591  0.94083052  0.93383021  1
  Zn  Zn84  1  0.68225700  0.42967560  0.42912176  1
  Zn  Zn85  1  0.69410128  0.42115443  0.92097392  1
  Zn  Zn86  1  0.65037543  0.90701580  0.50465755  1
  Zn  Zn87  1  0.70678062  0.91864753  0.89646244  1
  Zn  Zn88  1  0.31020092  0.06601258  0.04129058  1
  Zn  Zn89  1  0.30156520  0.07747967  0.56343863  1
  Zn  Zn90  1  0.29518949  0.57020471  0.05851818  1
  Zn  Zn91  1  0.33366655  0.56960556  0.57592534  1
  Zn  Zn92  1  0.83148665  0.06053800  0.05583285  1
  Zn  Zn93  1  0.80637231  0.06010078  0.57273919  1
  Zn  Zn94  1  0.82212120  0.56278766  0.05745594  1
  Zn  Zn95  1  0.77459307  0.52186123  0.54568445  1
  Zn  Zn96  1  0.44474052  0.42978693  0.18701405  1
  Zn  Zn97  1  0.33396726  0.39914129  0.57078754  1
  Zn  Zn98  1  0.43326648  0.92675636  0.19142842  1
  Zn  Zn99  1  0.43401532  0.94490510  0.70359517  1
  Zn  Zn100  1  0.93836452  0.45003495  0.17937930  1
  Zn  Zn101  1  0.93279833  0.43803165  0.68769699  1
  Zn  Zn102  1  0.94274616  0.92721396  0.18886123  1
  Zn  Zn103  1  0.93923261  0.91643153  0.65416307  1
  Zn  Zn104  1  0.05825366  0.06439354  0.33847115  1
  Zn  Zn105  1  0.05098211  0.05124855  0.79750289  1
  Zn  Zn106  1  0.10072366  0.60510719  0.26359206  1
  Zn  Zn107  1  0.06677519  0.55393961  0.81453208  1
  Zn  Zn108  1  0.53862526  0.08208776  0.32717709  1
  Zn  Zn109  1  0.58102878  0.26575945  0.84797424  1
  Zn  Zn110  1  0.54053459  0.54168703  0.30282795  1
  Zn  Zn111  1  0.56693813  0.55272426  0.81306564  1
  Zn  Zn112  1  0.43017719  0.19717809  0.44032029  1
  Zn  Zn113  1  0.40239929  0.20284977  0.90712685  1
  Zn  Zn114  1  0.45428013  0.69891603  0.44805735  1
  Zn  Zn115  1  0.40566232  0.67355874  0.96428783  1
  Zn  Zn116  1  0.93341726  0.19279593  0.43625190  1
  Zn  Zn117  1  0.94951810  0.18614082  0.93777688  1
  Zn  Zn118  1  0.94035971  0.68369621  0.42920504  1
  Zn  Zn119  1  0.94802313  0.69158049  0.93789280  1
  Zn  Zn120  1  0.06477339  0.30979839  0.07762958  1
  Zn  Zn121  1  0.05433826  0.31298368  0.54923913  1
  Zn  Zn122  1  0.09315435  0.84863377  0.03986051  1
  Zn  Zn123  1  0.03849543  0.78081860  0.53500971  1
  Zn  Zn124  1  0.54972214  0.30187658  0.00912966  1
  Zn  Zn125  1  0.58843220  0.32363469  0.54087500  1
  Zn  Zn126  1  0.58069632  0.69823850  0.04200453  1
  Zn  Zn127  1  0.59211721  0.80781890  0.69143677  1
  O  O128  1  0.11719804  0.09254466  0.17355353  1
  O  O129  1  0.11171072  0.11051111  0.62453161  1
  O  O130  1  0.11383186  0.63123582  0.11317109  1
  O  O131  1  0.01985611  0.65365427  0.68904436  1
  O  O132  1  0.67732523  0.09078400  0.12648782  1
  O  O133  1  0.62894273  0.13649076  0.59903364  1
  O  O134  1  0.63715705  0.61670782  0.11417979  1
  O  O135  1  0.68040343  0.56332964  0.60475248  1
  O  O136  1  0.38476458  0.36951027  0.37126987  1
  O  O137  1  0.36705533  0.39123234  0.88620113  1
  O  O138  1  0.36216551  0.89002979  0.39517605  1
  O  O139  1  0.39219161  0.90673302  0.83365948  1
  O  O140  1  0.86627853  0.38107402  0.38064158  1
  O  O141  1  0.88832533  0.37574974  0.89071671  1
  O  O142  1  0.88824317  0.88131927  0.38988667  1
  O  O143  1  0.88703328  0.88099820  0.86758133  1
  O  O144  1  0.25607121  0.01806618  0.38400965  1
  O  O145  1  0.25297836  0.00200336  0.86300518  1
  O  O146  1  0.25785805  0.52033278  0.39361025  1
  O  O147  1  0.25923200  0.49402360  0.84149140  1
  O  O148  1  0.71693287  -0.07009469  0.25858571  1
  O  O149  1  0.76963772  0.01658442  0.88624071  1
  O  O150  1  0.75077464  0.50151007  0.36323468  1
  O  O151  1  0.76819802  0.51150872  0.89267040  1
  O  O152  1  0.23795182  0.50140488  0.12590854  1
  O  O153  1  0.26870240  0.49146573  0.63562701  1
  O  O154  1  0.25056771  0.99948258  0.11338655  1
  O  O155  1  0.23215061  0.99381435  0.61489004  1
  O  O156  1  0.74647666  0.49479016  0.12243908  1
  O  O157  1  0.77902210  0.46721629  0.66041800  1
  O  O158  1  0.72625219  1.03365525  0.11715501  1
  O  O159  1  0.74155364  1.01489064  0.65864248  1
  O  O160  1  0.01003674  0.38401286  0.24129788  1
  O  O161  1  0.00479850  0.36744801  0.75241860  1
  O  O162  1  -0.00082479  0.85931928  0.25906206  1
  O  O163  1  -0.00446702  0.87621514  0.75203117  1
  O  O164  1  0.49986140  0.35834070  0.26213524  1
  O  O165  1  0.48334968  0.34587518  0.74333898  1
  O  O166  1  0.51138845  0.85570511  0.23183855  1
  O  O167  1  0.53530380  0.89769811  0.75387866  1
  O  O168  1  0.48689644  0.15114350  0.25123233  1
  O  O169  1  0.46449807  0.15164393  0.69629960  1
  O  O170  1  0.51581563  0.63338899  0.23658462  1
  O  O171  1  0.49891848  0.63009596  0.75476168  1
  O  O172  1  0.98065691  0.11322715  0.25846965  1
  O  O173  1  0.99192974  0.13309381  0.74055624  1
  O  O174  1  0.98947072  0.61839437  0.25623026  1
  O  O175  1  0.98562716  0.59937239  0.73776672  1
  O  O176  1  0.36693340  0.27598827  0.00575819  1
  O  O177  1  0.35748081  0.25213669  0.50913052  1
  O  O178  1  0.35276238  0.77271693  -0.03998042  1
  O  O179  1  0.39438306  0.77158370  0.51922972  1
  O  O180  1  0.88295635  0.25909875  0.00287164  1
  O  O181  1  0.87031989  0.26118555  0.50377594  1
  O  O182  1  0.87587130  0.76129631  -0.00498095  1
  O  O183  1  0.85357788  0.74953395  0.46980719  1
  O  O184  1  0.13174406  0.26927957  0.47539740  1
  O  O185  1  0.13704069  0.25023982  1.01350985  1
  O  O186  1  0.12326112  0.72069742  0.56557277  1
  O  O187  1  0.13777492  0.76060127  0.97489061  1
  O  O188  1  0.63326840  0.23767644  0.48167552  1
  O  O189  1  0.64969293  0.23316919  1.01542305  1
  O  O190  1  0.64276884  0.74327696  0.47842191  1
  O  O191  1  0.65393004  0.75923220  0.98618308  1
  O  O192  1  0.49066554  0.26254974  0.12357975  1
  O  O193  1  0.45222110  0.33540499  0.67574273  1
  O  O194  1  0.50317483  0.72761857  0.13599102  1
  O  O195  1  0.48685367  0.78276433  0.64914091  1
  O  O196  1  0.99541823  0.24597787  0.13512578  1
  O  O197  1  0.99248665  0.23545644  0.62460669  1
  O  O198  1  1.07382403  0.69198976  0.11440082  1
  O  O199  1  0.97919295  0.67487626  0.62864419  1
  O  O200  1  0.01213621  0.24841033  0.37592084  1
  O  O201  1  -0.00367642  0.25643393  0.85877410  1
  O  O202  1  0.01262746  0.78023863  0.41668286  1
  O  O203  1  0.00995266  0.76701806  0.87192191  1
  O  O204  1  0.50044222  0.25419577  0.36461458  1
  O  O205  1  0.50839276  0.23269851  0.92422410  1
  O  O206  1  0.52086446  0.74535143  0.36834018  1
  O  O207  1  0.51903018  0.76417201  0.86740558  1
  O  O208  1  0.24602772  0.14415730  0.48622603  1
  O  O209  1  0.26600426  0.15530909  0.98225792  1
  O  O210  1  0.26308614  0.62335640  0.49466988  1
  O  O211  1  0.25823321  0.64861922  0.98939702  1
  O  O212  1  0.74241242  0.10928191  0.49163849  1
  O  O213  1  0.77381186  0.13657475  0.99271318  1
  O  O214  1  0.75629643  0.62169391  0.47321731  1
  O  O215  1  0.76559550  0.63814119  0.98822817  1
  O  O216  1  0.25173489  0.37935976  0.01694973  1
  O  O217  1  0.25822873  0.36958236  0.49141895  1
  O  O218  1  0.23827840  0.87148185  0.01259690  1
  O  O219  1  0.25466539  0.87720200  0.50793971  1
  O  O220  1  0.76645783  0.35903250  0.00321689  1
  O  O221  1  0.76759210  0.40020064  0.50645487  1
  O  O222  1  0.76964671  0.86259257  -0.02132514  1
  O  O223  1  0.75746211  0.85173749  0.49634244  1
  O  O224  1  0.12252899  0.49462505  0.25633781  1
  O  O225  1  0.13340817  0.48949031  0.74280744  1
  O  O226  1  0.11391732  1.03671008  0.22148192  1
  O  O227  1  0.11527637  0.98538226  0.73103709  1
  O  O228  1  0.64029954  0.49827675  0.23920192  1
  O  O229  1  0.63829933  0.49473474  0.74147366  1
  O  O230  1  0.57454479  1.01190946  0.22690031  1
  O  O231  1  0.57059975  0.95456677  0.80428421  1
  O  O232  1  0.37987226  -0.00745475  0.27136031  1
  O  O233  1  0.36645322  0.02464481  0.74463072  1
  O  O234  1  0.43525617  0.51491254  0.25977682  1
  O  O235  1  0.36031813  0.53480600  0.75006219  1
  O  O236  1  0.87297448  0.01196070  0.25396076  1
  O  O237  1  0.88400864  0.01153543  0.75785932  1
  O  O238  1  0.86613483  0.49947107  0.25735145  1
  O  O239  1  0.86993124  0.48237081  0.77661082  1
  O  O240  1  0.13028180  0.37030552  0.35710377  1
  O  O241  1  0.11150095  0.37984157  0.85728365  1
  O  O242  1  0.13143113  0.86814432  0.35130939  1
  O  O243  1  0.11478960  0.87897482  0.85677923  1
  O  O244  1  0.61339822  0.35424387  0.37736610  1
  O  O245  1  0.60502304  0.35647444  0.91699265  1
  O  O246  1  0.62998901  0.87060419  0.38894414  1
  O  O247  1  0.59030697  0.92491951  0.87527361  1
  O  O248  1  0.37916722  0.14232303  0.10478332  1
  O  O249  1  0.30199358  0.13872675  0.66497761  1
  O  O250  1  0.37887017  0.60626929  0.13378653  1
  O  O251  1  0.38386744  0.65232922  0.63659052  1
  O  O252  1  0.87543779  0.11577868  0.14974720  1
  O  O253  1  0.88433508  0.12932064  0.62954881  1
  O  O254  1  0.87620814  0.61553777  0.14174333  1
  O  O255  1  0.85510900  0.69301625  0.70316516  1
  O  O256  1  0.26472955  0.25901774  0.11502389  1
  O  O257  1  0.22492100  0.25931028  0.60050900  1
  O  O258  1  0.26142504  0.75456051  0.10282706  1
  O  O259  1  0.26831020  0.77240146  0.63024904  1
  O  O260  1  0.75564893  0.26306119  0.12003818  1
  O  O261  1  0.76725634  0.23745188  0.62778836  1
  O  O262  1  0.75082183  0.74570099  0.10855344  1
  O  O263  1  0.75036297  0.72031618  0.59890312  1
  O  O264  1  0.24718932  0.24452165  0.37781407  1
  O  O265  1  0.23777297  0.28855920  0.89583842  1
  O  O266  1  0.25935510  0.73120544  0.38284513  1
  O  O267  1  0.23469390  0.76062161  0.85919858  1
  O  O268  1  0.73401879  0.25545603  0.35419054  1
  O  O269  1  0.76068600  0.23922956  0.89222359  1
  O  O270  1  0.73465475  0.72953161  0.36478191  1
  O  O271  1  0.76220950  0.72669034  0.87043019  1
  O  O272  1  0.00334973  0.10466361  -0.00767371  1
  O  O273  1  -0.00870405  0.12476025  0.50881974  1
  O  O274  1  0.00608922  0.61074900  -0.01030291  1
  O  O275  1  -0.00463875  0.60710830  0.48908725  1
  O  O276  1  0.54980721  0.08031163  0.02679613  1
  O  O277  1  0.49094707  0.12447623  0.50812364  1
  O  O278  1  0.49049093  0.63045840  0.02283777  1
  O  O279  1  0.50396292  0.60466998  0.49293276  1
  O  O280  1  0.49172876  0.35654699  0.48852755  1
  O  O281  1  0.47511228  0.39328146  1.01185055  1
  O  O282  1  0.48975258  0.89691527  0.49858127  1
  O  O283  1  0.51309217  0.80395264  0.92826267  1
  O  O284  1  0.97342079  0.38582053  0.50189804  1
  O  O285  1  0.99869665  0.37364483  0.99434711  1
  O  O286  1  0.95092375  0.85131100  0.55412647  1
  O  O287  1  0.98881268  0.87714270  0.98695343  1
  O  O288  1  0.51001454  0.47639205  0.39552051  1
  O  O289  1  0.47514018  0.49724438  0.85549772  1
  O  O290  1  0.47610053  1.01282920  0.39317884  1
  O  O291  1  0.52676341  1.03649618  0.97427098  1
  O  O292  1  0.98424737  0.49272515  0.37498605  1
  O  O293  1  0.99429765  0.48827749  0.87985662  1
  O  O294  1  1.01773391  0.97026429  0.38263897  1
  O  O295  1  0.99572314  0.98687372  0.87730135  1
  O  O296  1  -0.00729221  -0.00848478  0.10832612  1
  O  O297  1  0.00247581  0.01134580  0.62377655  1
  O  O298  1  0.00819910  0.49704085  0.10315948  1
  O  O299  1  -0.01730064  0.50349655  0.61235646  1
  O  O300  1  0.52422652  0.01460056  0.17086781  1
  O  O301  1  0.49272796  0.00259973  0.61609475  1
  O  O302  1  0.52324394  0.50990592  0.12396078  1
  O  O303  1  0.51957055  0.50091394  0.62316864  1
  O  O304  1  0.25319670  0.38173637  0.23417977  1
  O  O305  1  0.22738374  0.36772397  0.73734005  1
  O  O306  1  0.25617700  0.86863224  0.23193862  1
  O  O307  1  0.24345568  0.88534144  0.73911064  1
  O  O308  1  0.76260113  0.38175756  0.22764117  1
  O  O309  1  0.74114290  0.39072263  0.80349661  1
  O  O310  1  0.76496147  0.87578800  0.24797147  1
  O  O311  1  0.72793313  0.88904303  0.78250839  1
  O  O312  1  0.25242531  0.13413107  0.26590237  1
  O  O313  1  0.19555479  0.14412845  0.81360443  1
  O  O314  1  0.27231959  0.61430996  0.28530213  1
  O  O315  1  0.22199730  0.61933252  0.71951606  1
  O  O316  1  0.77043359  0.11965753  0.25543369  1
  O  O317  1  0.76690724  0.13598050  0.76736881  1
  O  O318  1  0.75718479  0.61340758  0.25700122  1
  O  O319  1  0.75246702  0.59486961  0.77158984  1
  O  O320  1  0.36246728  0.11894572  0.37875971  1
  O  O321  1  0.40268880  0.09897456  0.85521717  1
  O  O322  1  0.36582129  0.63336454  0.39655612  1
  O  O323  1  0.37823951  0.62180279  0.86368885  1
  O  O324  1  0.87473233  0.11932869  0.36076215  1
  O  O325  1  0.88404940  0.11801981  0.86555971  1
  O  O326  1  0.87002145  0.60851170  0.36185569  1
  O  O327  1  0.88768411  0.61064241  0.87437694  1
  O  O328  1  0.13720296  0.37583909  0.14024077  1
  O  O329  1  0.10821525  0.37738595  0.62978086  1
  O  O330  1  0.14047482  0.86999629  0.13792257  1
  O  O331  1  0.13729966  0.88075503  0.62992075  1
  O  O332  1  0.64581435  0.38872291  0.11174115  1
  O  O333  1  0.63022053  0.37518084  0.63079431  1
  O  O334  1  0.56198498  0.88696890  0.06810108  1
  O  O335  1  0.65655165  0.87937382  0.62207998  1
  O  O336  1  0.12638634  0.26598594  0.25914951  1
  O  O337  1  0.11185440  0.25672859  0.73485082  1
  O  O338  1  0.14556481  0.70772983  0.25379550  1
  O  O339  1  0.12362722  0.77392592  0.75042577  1
  O  O340  1  0.61246728  0.24106903  0.25206197  1
  O  O341  1  0.64750384  0.25887724  0.76486112  1
  O  O342  1  0.62472783  0.75380952  0.26301833  1
  O  O343  1  0.64472266  0.72593148  0.74054169  1
  O  O344  1  0.38026149  0.25994825  0.22310695  1
  O  O345  1  0.35885935  0.22535010  0.79750330  1
  O  O346  1  0.40255742  0.75128929  0.26709971  1
  O  O347  1  0.37276487  0.74311058  0.75063226  1
  O  O348  1  0.87722521  0.22266474  0.25494286  1
  O  O349  1  0.88412532  0.24551998  0.73816204  1
  O  O350  1  0.87518293  0.73220676  0.25700074  1
  O  O351  1  0.88801612  0.74498462  0.74466253  1
  O  O352  1  0.39958229  0.48721478  0.52706998  1
  O  O353  1  0.35864454  0.50453513  0.97825116  1
  O  O354  1  0.37715726  0.99936296  0.50623907  1
  O  O355  1  0.37086476  0.99975540  0.96862583  1
  O  O356  1  0.87700915  0.49575745  0.48345306  1
  O  O357  1  0.89094707  0.49092444  0.99031723  1
  O  O358  1  0.85657728  0.97415043  0.51674691  1
  O  O359  1  0.88662289  0.98720385  0.98704029  1
  O  O360  1  0.10765240  -0.02065090  -0.00230608  1
  O  O361  1  0.11695242  -0.01621623  0.51033863  1
  O  O362  1  0.11770419  0.49503801  -0.01808021  1
  O  O363  1  0.09931160  0.48443944  0.49863579  1
  O  O364  1  0.62532225  -0.07769965  0.07194402  1
  O  O365  1  0.60459047  0.01545761  0.49507921  1
  O  O366  1  0.63647926  0.50071701  0.00184414  1
  O  O367  1  0.60924126  0.47108717  0.51157160  1
  O  O368  1  0.36159488  0.39464536  0.11356244  1
  O  O369  1  0.37154439  0.35394603  0.67317511  1
  O  O370  1  0.36071194  0.88786172  0.11742268  1
  O  O371  1  0.36571710  0.88119181  0.61932639  1
  O  O372  1  0.86805852  0.38697741  0.10674642  1
  O  O373  1  0.87672400  0.35588108  0.62097756  1
  O  O374  1  0.87330918  0.87918306  0.10735183  1
  O  O375  1  0.82843953  0.87773468  0.65614104  1
  O  O376  1  0.13375789  0.14158682  0.36934339  1
  O  O377  1  0.13691561  0.12544334  0.85557250  1
  O  O378  1  0.15664199  0.62874158  0.38644548  1
  O  O379  1  0.11876313  0.64662732  0.85464883  1
  O  O380  1  0.61987085  0.13692786  0.38235666  1
  O  O381  1  0.65017919  0.11765685  0.88003443  1
  O  O382  1  0.63206978  0.60574454  0.36613487  1
  O  O383  1  0.63713722  0.61413451  0.88283852  1
