# generated using pymatgen
data_VZnO4
_symmetry_space_group_name_H-M   'P 1'
_cell_length_a   17.02616216
_cell_length_b   16.90044605
_cell_length_c   16.92561423
_cell_angle_alpha   89.51444863
_cell_angle_beta   89.94351899
_cell_angle_gamma   90.19220885
_symmetry_Int_Tables_number   1
_chemical_formula_structural   VZnO4
_chemical_formula_sum   'V64 Zn64 O256'
_cell_volume   4870.13621719
_cell_formula_units_Z   64
loop_
 _symmetry_equiv_pos_site_id
 _symmetry_equiv_pos_as_xyz
  1  'x, y, z'
loop_
 _atom_site_type_symbol
 _atom_site_label
 _atom_site_symmetry_multiplicity
 _atom_site_fract_x
 _atom_site_fract_y
 _atom_site_fract_z
 _atom_site_occupancy
  V  V0  1  0.86238709  0.77221317  0.61969426  1
  V  V1  1  0.35468906  -0.00689152  0.38467850  1
  V  V2  1  0.63271345  0.75173823  0.88425343  1
  V  V3  1  0.24412377  0.27041644  0.00157476  1
  V  V4  1  0.76394460  0.86256962  0.12605428  1
  V  V5  1  0.25228980  0.61435841  0.35173183  1
  V  V6  1  0.61218862  0.52360337  0.15316798  1
  V  V7  1  0.01352219  0.73941411  0.25471831  1
  V  V8  1  0.62609271  0.11990989  0.00771819  1
  V  V9  1  0.12157376  0.13444926  0.49247088  1
  V  V10  1  -0.00699611  0.49102936  0.01381755  1
  V  V11  1  0.40228277  0.37545813  0.01299320  1
  V  V12  1  0.37868787  0.86766512  0.51128842  1
  V  V13  1  0.35837250  0.11714368  0.24094538  1
  V  V14  1  0.75522996  0.63592389  0.89479077  1
  V  V15  1  0.13533500  0.12176898  -0.00313143  1
  V  V16  1  0.63605094  0.45489485  0.63629153  1
  V  V17  1  0.86935080  0.59205910  0.74511634  1
  V  V18  1  0.00888890  -0.01426682  0.49539232  1
  V  V19  1  0.25117459  0.87135240  0.64136569  1
  V  V20  1  0.86809880  0.49975781  0.37504173  1
  V  V21  1  0.01284410  0.37700182  0.87365513  1
  V  V22  1  0.13188152  0.00989396  0.62881780  1
  V  V23  1  0.12624483  0.74766510  0.87597589  1
  V  V24  1  0.25693145  0.38009932  0.59961500  1
  V  V25  1  0.11344132  0.87023390  0.74752960  1
  V  V26  1  0.49735923  -0.02010046  0.01143800  1
  V  V27  1  0.42321608  0.47992650  0.87267938  1
  V  V28  1  0.50221816  0.47427067  0.50685584  1
  V  V29  1  0.74878647  0.25985685  0.01760388  1
  V  V30  1  0.87581212  0.35819858  0.49806137  1
  V  V31  1  0.01831282  0.37379216  0.36949507  1
  V  V32  1  0.36050664  0.24085394  0.58314065  1
  V  V33  1  0.47599894  0.24039006  0.74865568  1
  V  V34  1  -0.01438555  0.00663664  0.00471510  1
  V  V35  1  0.49527757  0.87255474  0.86119629  1
  V  V36  1  0.49923821  0.74085073  0.26577982  1
  V  V37  1  0.24398991  0.49115642  0.76306421  1
  V  V38  1  0.38942069  0.62121349  0.75155028  1
  V  V39  1  0.85422559  0.48131803  0.89186497  1
  V  V40  1  0.12847793  0.62964894  0.01548225  1
  V  V41  1  0.64755957  0.36671985  0.26527532  1
  V  V42  1  0.50921718  0.88240677  0.37504274  1
  V  V43  1  0.63220771  -0.00661992  0.14619320  1
  V  V44  1  0.87123685  -0.00563765  0.36969252  1
  V  V45  1  0.22651869  0.74326994  0.50887783  1
  V  V46  1  0.13506287  -0.01694564  0.12613143  1
  V  V47  1  0.01170649  0.24074876  0.24694227  1
  V  V48  1  0.86575749  0.62843490  0.25861031  1
  V  V49  1  0.66458837  0.73572519  0.39246348  1
  V  V50  1  0.86198729  0.11655758  0.24724593  1
  V  V51  1  0.75609808  0.11585638  0.87649935  1
  V  V52  1  0.01736124  0.87102401  0.36225880  1
  V  V53  1  0.51406249  0.64256568  0.62473759  1
  V  V54  1  0.62199159  0.26984187  0.87809793  1
  V  V55  1  0.87126239  0.26258037  0.13387486  1
  V  V56  1  0.14000308  0.38447031  0.22998127  1
  V  V57  1  0.49492597  0.13278997  0.13711707  1
  V  V58  1  -0.06137628  0.68054712  0.07554263  1
  V  V59  1  -0.01179585  0.22854438  0.71981190  1
  V  V60  1  0.23574485  0.13537781  0.37170880  1
  V  V61  1  -0.01731339  0.88099369  0.87755072  1
  V  V62  1  0.02241003  0.50115757  0.50531249  1
  V  V63  1  0.65256087  0.88117355  0.74522055  1
  Zn  Zn64  1  0.18551677  0.17494377  0.16999223  1
  Zn  Zn65  1  0.13055667  0.35361128  0.74342725  1
  Zn  Zn66  1  0.19712261  0.70477592  0.18504806  1
  Zn  Zn67  1  0.21437487  0.65741283  0.66231774  1
  Zn  Zn68  1  0.68350192  0.18412447  0.20040528  1
  Zn  Zn69  1  0.64783324  0.17437034  0.72245292  1
  Zn  Zn70  1  0.68198231  0.70843868  0.21323678  1
  Zn  Zn71  1  0.69539046  0.68984794  0.69142910  1
  Zn  Zn72  1  0.31945654  0.30188508  0.18483071  1
  Zn  Zn73  1  0.31496011  0.31335636  0.82771905  1
  Zn  Zn74  1  0.35571871  0.75828016  0.37064434  1
  Zn  Zn75  1  0.28671874  0.86415455  0.85686990  1
  Zn  Zn76  1  0.81879097  0.31261835  0.31794565  1
  Zn  Zn77  1  0.84176782  0.26927096  0.84416834  1
  Zn  Zn78  1  0.82615615  0.81644138  0.30285562  1
  Zn  Zn79  1  0.81440099  0.80576359  0.80005468  1
  Zn  Zn80  1  0.19903712  0.44408668  0.41463086  1
  Zn  Zn81  1  0.17783943  0.44848385  0.94233579  1
  Zn  Zn82  1  0.18920411  0.92655317  0.44276937  1
  Zn  Zn83  1  0.15460343  0.98106266  0.90255662  1
  Zn  Zn84  1  0.68395683  0.43005238  0.45080724  1
  Zn  Zn85  1  0.68181983  0.44425372  0.95052716  1
  Zn  Zn86  1  0.68999693  0.93432568  0.31083561  1
  Zn  Zn87  1  0.69105882  0.93337562  0.94267817  1
  Zn  Zn88  1  0.28678688  0.00155730  0.01374609  1
  Zn  Zn89  1  0.35366618  0.03221277  0.60088713  1
  Zn  Zn90  1  0.31225571  0.57199620  -0.05051982  1
  Zn  Zn91  1  0.32673145  0.55996982  0.56869367  1
  Zn  Zn92  1  0.81050132  0.06409813  0.07314139  1
  Zn  Zn93  1  0.81767152  -0.03514730  0.54952643  1
  Zn  Zn94  1  0.80248526  0.56128767  0.06986446  1
  Zn  Zn95  1  0.83616835  0.49814107  0.58381357  1
  Zn  Zn96  1  0.47516385  0.42231194  0.17579320  1
  Zn  Zn97  1  0.43606814  0.42391714  0.68557981  1
  Zn  Zn98  1  0.43526372  0.93856939  0.19540317  1
  Zn  Zn99  1  0.52930116  0.95946735  0.67068337  1
  Zn  Zn100  1  0.93794000  0.43805783  0.19826176  1
  Zn  Zn101  1  0.91071570  0.39281509  0.70970999  1
  Zn  Zn102  1  0.94132544  0.93259378  0.18468952  1
  Zn  Zn103  1  0.94438060  0.93054188  0.67437801  1
  Zn  Zn104  1  0.06273355  0.05681093  0.30280033  1
  Zn  Zn105  1  0.04416357  0.07419756  0.81162521  1
  Zn  Zn106  1  0.07451840  0.56076162  0.31356676  1
  Zn  Zn107  1  0.07225062  0.59301986  0.75528008  1
  Zn  Zn108  1  0.53692731  0.05090141  0.31370218  1
  Zn  Zn109  1  0.56111335  0.05889762  0.82355016  1
  Zn  Zn110  1  0.59551784  0.56324817  0.33387671  1
  Zn  Zn111  1  0.58470828  0.56322368  0.79774626  1
  Zn  Zn112  1  0.36974871  0.23592111  0.37770311  1
  Zn  Zn113  1  0.44883954  0.20401713  0.95904084  1
  Zn  Zn114  1  0.45449646  0.61074568  0.41420692  1
  Zn  Zn115  1  0.41861035  0.71492234  0.89030957  1
  Zn  Zn116  1  0.94460167  0.17905929  0.42818644  1
  Zn  Zn117  1  0.93737973  0.18812096  0.95378561  1
  Zn  Zn118  1  0.94415323  0.68471887  0.44093054  1
  Zn  Zn119  1  0.96416106  0.66695349  0.88971590  1
  Zn  Zn120  1  0.06227130  0.30407629  0.06447036  1
  Zn  Zn121  1  0.07240928  0.31801197  0.56265950  1
  Zn  Zn122  1  0.05550892  0.81847172  0.05489675  1
  Zn  Zn123  1  0.04337582  0.68185236  0.57614336  1
  Zn  Zn124  1  0.57852076  0.31095375  0.08512080  1
  Zn  Zn125  1  0.53135351  0.31398674  0.58712252  1
  Zn  Zn126  1  0.57799325  0.80001317  0.07966172  1
  Zn  Zn127  1  0.56872350  0.81474205  0.56085960  1
  O  O128  1  0.12063031  0.10847227  0.10583925  1
  O  O129  1  0.12822213  0.11078177  0.60077379  1
  O  O130  1  0.13189689  0.63825552  0.11406886  1
  O  O131  1  0.10433412  0.64134604  0.65966865  1
  O  O132  1  0.61421307  0.11808166  0.12754359  1
  O  O133  1  0.63718775  0.12619770  0.61125950  1
  O  O134  1  0.63294220  0.62109185  0.15837661  1
  O  O135  1  0.61488930  0.62445274  0.64506368  1
  O  O136  1  0.39037013  0.44483886  0.33313415  1
  O  O137  1  0.39713718  0.37698492  0.88446060  1
  O  O138  1  0.36860646  0.88011811  0.39354092  1
  O  O139  1  0.39859814  0.84959669  0.88409197  1
  O  O140  1  0.88985028  0.38336274  0.37550353  1
  O  O141  1  0.83728173  0.38384024  0.88607663  1
  O  O142  1  0.89276076  0.89015318  0.36480649  1
  O  O143  1  0.88592501  0.87200361  0.86087142  1
  O  O144  1  0.25386365  -0.00902457  0.36874935  1
  O  O145  1  0.27277896  0.09096449  0.75835543  1
  O  O146  1  0.26229351  0.51225862  0.35112122  1
  O  O147  1  0.25542245  0.49836574  0.87044894  1
  O  O148  1  0.77246754  -0.01239566  0.37721461  1
  O  O149  1  0.75287571  0.01692920  0.89333727  1
  O  O150  1  0.77147033  0.49514749  0.38622491  1
  O  O151  1  0.74989841  0.51573968  0.89254611  1
  O  O152  1  0.29178501  0.52103121  0.15715192  1
  O  O153  1  0.27253893  0.47967808  0.64628829  1
  O  O154  1  0.23622838  0.99227989  0.11409498  1
  O  O155  1  0.23537906  0.99154516  0.62037164  1
  O  O156  1  0.71662549  0.49014449  0.10256622  1
  O  O157  1  0.73537492  0.47444228  0.62639635  1
  O  O158  1  0.73326123  1.00205849  0.13304938  1
  O  O159  1  0.70604632  1.00924921  0.54736529  1
  O  O160  1  0.01024771  0.36687779  0.25497976  1
  O  O161  1  0.00876353  0.39525548  0.77073558  1
  O  O162  1  -0.00104107  0.85972914  0.25623045  1
  O  O163  1  0.00761903  0.88835085  0.75622961  1
  O  O164  1  0.47877933  0.36148926  0.27666277  1
  O  O165  1  0.49723097  0.33889358  0.74598079  1
  O  O166  1  0.49857779  0.87637966  0.27018094  1
  O  O167  1  0.49255417  0.88413313  0.76414403  1
  O  O168  1  0.48972024  0.12429791  0.24177404  1
  O  O169  1  0.53808465  0.14889499  0.75269716  1
  O  O170  1  0.50846741  0.64275483  0.30242249  1
  O  O171  1  0.49658238  0.61692923  0.74619587  1
  O  O172  1  0.99657588  0.13991889  0.25217115  1
  O  O173  1  0.97712083  0.12814570  0.73999329  1
  O  O174  1  1.00095952  0.63544381  0.25874018  1
  O  O175  1  0.96527592  0.62313191  0.77787680  1
  O  O176  1  0.36725227  0.27328973  -0.00009523  1
  O  O177  1  0.39021199  0.24755612  0.48568811  1
  O  O178  1  0.39150339  0.74913025  0.00143476  1
  O  O179  1  0.36374150  0.76944437  0.50915497  1
  O  O180  1  0.85963147  0.24529436  0.02314729  1
  O  O181  1  0.88910432  0.25893181  0.48800339  1
  O  O182  1  0.88588787  0.73414665  0.01640626  1
  O  O183  1  0.78463959  0.64933119  0.48651909  1
  O  O184  1  0.11407160  0.23262084  0.49368566  1
  O  O185  1  0.13442514  0.23523419  1.00520701  1
  O  O186  1  0.12827709  0.74657658  0.52121400  1
  O  O187  1  0.11182793  0.73732197  0.98845922  1
  O  O188  1  0.58275995  0.14343503  0.56453282  1
  O  O189  1  0.63253098  0.23767615  1.01302013  1
  O  O190  1  0.63057856  0.76672194  0.48283333  1
  O  O191  1  0.62769331  0.75520802  0.98396006  1
  O  O192  1  0.49820737  0.23093437  0.12210765  1
  O  O193  1  0.46461203  0.23634369  0.63693498  1
  O  O194  1  0.52752062  0.74694956  0.16685989  1
  O  O195  1  0.50738978  0.74196235  0.62695962  1
  O  O196  1  0.98209264  0.25530400  0.13623564  1
  O  O197  1  0.99955171  0.25069543  0.62162461  1
  O  O198  1  0.99747615  0.74592735  0.13340159  1
  O  O199  1  0.93340069  0.72863402  0.55399259  1
  O  O200  1  -0.00327432  0.26170788  0.35548099  1
  O  O201  1  -0.03151429  0.28509393  0.89317087  1
  O  O202  1  -0.00211137  0.75984384  0.36682841  1
  O  O203  1  0.01048079  0.77308692  0.87768926  1
  O  O204  1  0.42555175  0.37903134  0.33853356  1
  O  O205  1  0.51926350  0.24215254  0.87616999  1
  O  O206  1  0.49235521  0.77828333  0.38314654  1
  O  O207  1  0.52413931  0.76267271  0.87089463  1
  O  O208  1  0.22920037  0.11673864  0.47576352  1
  O  O209  1  0.23548686  0.11407216  0.99770325  1
  O  O210  1  0.25232720  0.64529127  0.54633658  1
  O  O211  1  0.22506429  0.62267392  0.99261726  1
  O  O212  1  0.71655783  0.16105673  0.47571236  1
  O  O213  1  0.73538884  0.12795893  1.00809476  1
  O  O214  1  0.75071728  0.59774939  0.52451296  1
  O  O215  1  0.75033016  0.63441303  0.99354304  1
  O  O216  1  0.24025746  0.37165464  0.00504847  1
  O  O217  1  0.26103680  0.40306699  0.50283400  1
  O  O218  1  0.26232070  0.95763494  -0.08665398  1
  O  O219  1  0.24583849  0.86084769  0.51792263  1
  O  O220  1  0.73945459  0.35754910  0.01365636  1
  O  O221  1  0.77688668  0.36847374  0.48488642  1
  O  O222  1  0.74337581  0.88517385  0.02759151  1
  O  O223  1  0.65815784  1.01483144  0.49096916  1
  O  O224  1  0.12715695  0.48371710  0.24486698  1
  O  O225  1  0.14515761  0.50169428  0.75567404  1
  O  O226  1  0.11790335  1.00086661  0.22495387  1
  O  O227  1  0.11439913  1.00860544  0.73078264  1
  O  O228  1  0.63172453  0.49204908  0.25430229  1
  O  O229  1  0.62250100  0.47830063  0.73549024  1
  O  O230  1  0.62336149  1.01149655  0.25098682  1
  O  O231  1  0.61689225  0.98322732  0.75736363  1
  O  O232  1  0.37520814  0.01060203  0.26391365  1
  O  O233  1  0.39220025  0.07438030  0.84836939  1
  O  O234  1  0.35293729  0.53043888  0.19332019  1
  O  O235  1  0.38689191  0.49072703  0.76972709  1
  O  O236  1  0.88601183  0.00961948  0.25485747  1
  O  O237  1  0.86128349  0.01752851  0.71325905  1
  O  O238  1  0.88205228  0.51261731  0.26431127  1
  O  O239  1  0.86423199  0.48875758  0.77391254  1
  O  O240  1  0.12006971  0.37050674  0.36059854  1
  O  O241  1  0.11322771  0.37440099  0.88057251  1
  O  O242  1  0.11573144  0.87539661  0.36890373  1
  O  O243  1  0.11379170  0.87993704  0.85866290  1
  O  O244  1  0.63077282  0.37763274  0.36555362  1
  O  O245  1  0.62033784  0.36603929  0.90263935  1
  O  O246  1  0.60765537  0.89991823  0.38494534  1
  O  O247  1  0.62940709  0.86870655  0.86694213  1
  O  O248  1  0.38500313  0.11587696  0.13869896  1
  O  O249  1  0.34005071  0.14566726  0.60724536  1
  O  O250  1  0.38715273  0.69704074  0.06269465  1
  O  O251  1  0.39665028  0.61798676  0.64514748  1
  O  O252  1  0.87540933  0.13056799  0.14271295  1
  O  O253  1  0.81464632  0.03749923  0.65782398  1
  O  O254  1  0.87635249  0.61921844  0.13851397  1
  O  O255  1  0.87803800  0.58652138  0.64582672  1
  O  O256  1  0.25690241  0.24139483  0.10778006  1
  O  O257  1  0.25916985  0.26933363  0.58868430  1
  O  O258  1  0.26119021  0.78761957  0.12282829  1
  O  O259  1  0.24810341  0.76922040  0.63563782  1
  O  O260  1  0.75674958  0.24223847  0.12549517  1
  O  O261  1  0.80936692  0.19010725  0.62039895  1
  O  O262  1  0.73635160  0.76369360  0.13024068  1
  O  O263  1  0.76804995  0.74045966  0.61059312  1
  O  O264  1  0.24829294  0.23344476  0.36997679  1
  O  O265  1  0.25363892  0.24977016  0.90233662  1
  O  O266  1  0.24036772  0.74298963  0.40740677  1
  O  O267  1  0.22489875  0.76572880  0.87664294  1
  O  O268  1  0.75960679  0.22154005  0.36786132  1
  O  O269  1  0.73723983  0.24098394  0.90356614  1
  O  O270  1  0.76063362  0.76786750  0.38348873  1
  O  O271  1  0.75047423  0.74497344  0.87727287  1
  O  O272  1  0.00930712  0.11312648  -0.00764031  1
  O  O273  1  0.01785512  0.10547970  0.47867112  1
  O  O274  1  -0.00347772  0.62238250  0.00354665  1
  O  O275  1  0.01404728  0.60638335  0.48997551  1
  O  O276  1  0.51111050  0.11846885  0.01406881  1
  O  O277  1  0.56283864  0.21173570  0.40231461  1
  O  O278  1  0.39151922  0.62260200  0.04558067  1
  O  O279  1  0.50309715  0.62111508  0.52525829  1
  O  O280  1  0.50211454  0.37316499  0.49491086  1
  O  O281  1  0.49979677  0.36617500  1.01397753  1
  O  O282  1  0.48193301  0.87819088  0.50535770  1
  O  O283  1  0.51178013  0.88016234  1.01779445  1
  O  O284  1  1.00265648  0.37362037  0.48052170  1
  O  O285  1  1.00996387  0.38903889  1.00100141  1
  O  O286  1  1.00302596  0.88527710  0.47942519  1
  O  O287  1  0.99373720  0.88790056  0.98506317  1
  O  O288  1  0.52033570  0.51432001  0.40797574  1
  O  O289  1  0.52053986  0.49110285  0.87375725  1
  O  O290  1  0.47413368  0.98895116  0.38337875  1
  O  O291  1  0.51181565  0.97867553  0.89784299  1
  O  O292  1  1.00280387  0.48280226  0.37093653  1
  O  O293  1  0.96964173  0.47864134  0.89286567  1
  O  O294  1  1.00325810  0.98613180  0.37252401  1
  O  O295  1  0.99767531  0.99054260  0.88384397  1
  O  O296  1  0.00483751  -0.01053921  0.10728899  1
  O  O297  1  0.01195763  -0.00899095  0.60264054  1
  O  O298  1  -0.01252779  0.49699800  0.11255087  1
  O  O299  1  0.01188932  0.48625012  0.60149845  1
  O  O300  1  0.51124843  0.00473086  0.12573668  1
  O  O301  1  0.45439000  0.03100327  0.64840734  1
  O  O302  1  0.51155561  0.52340211  0.13797227  1
  O  O303  1  0.51516783  0.47982261  0.62113425  1
  O  O304  1  0.23813794  0.36274844  0.24131601  1
  O  O305  1  0.24629333  0.38003282  0.76318224  1
  O  O306  1  0.30632621  0.83229206  0.16886157  1
  O  O307  1  0.23685645  0.88353125  0.74665607  1
  O  O308  1  0.74689957  0.37258946  0.25260721  1
  O  O309  1  0.75582695  0.23682504  0.63365009  1
  O  O310  1  0.75312326  0.87722118  0.23912569  1
  O  O311  1  0.75142045  0.88865318  0.74337000  1
  O  O312  1  0.25301142  0.12065890  0.25076807  1
  O  O313  1  0.22553727  0.14291834  0.77255267  1
  O  O314  1  0.26105487  0.64696360  0.25548701  1
  O  O315  1  0.27558881  0.59689211  0.74286305  1
  O  O316  1  0.76290696  0.11913329  0.25269788  1
  O  O317  1  0.73393286  0.12648694  0.77821764  1
  O  O318  1  0.76878690  0.63302356  0.25584392  1
  O  O319  1  0.77453159  0.63452163  0.76165786  1
  O  O320  1  0.35160093  0.10927384  0.36729344  1
  O  O321  1  0.36746676  0.12073858  0.89934850  1
  O  O322  1  0.34917884  0.64148713  0.39609720  1
  O  O323  1  0.39620907  0.59679709  0.87270960  1
  O  O324  1  0.88504542  0.10940475  0.35879279  1
  O  O325  1  0.85485062  0.14984419  0.88065235  1
  O  O326  1  0.88273429  0.61304925  0.36970256  1
  O  O327  1  0.86015627  0.61045430  0.88141288  1
  O  O328  1  0.12175198  0.37394432  0.13161134  1
  O  O329  1  0.15198007  0.36865030  0.62698337  1
  O  O330  1  0.12349500  0.88104308  0.11589521  1
  O  O331  1  0.13236838  0.88687561  0.64055386  1
  O  O332  1  0.59267872  0.38852677  0.16348669  1
  O  O333  1  0.62883476  0.35161327  0.62635778  1
  O  O334  1  0.62573369  0.89265762  0.13796979  1
  O  O335  1  0.61239626  0.88257704  0.64403903  1
  O  O336  1  0.11206218  0.24984747  0.23391947  1
  O  O337  1  0.07621705  0.25252317  0.76330242  1
  O  O338  1  0.11095494  0.74903543  0.24579121  1
  O  O339  1  0.11689814  0.77032454  0.75805943  1
  O  O340  1  0.62864087  0.26465395  0.25344221  1
  O  O341  1  0.64706374  0.27299233  0.78109023  1
  O  O342  1  0.62061160  0.75931345  0.29638729  1
  O  O343  1  0.64408724  0.77241558  0.76002895  1
  O  O344  1  0.37249326  0.22511806  0.26236320  1
  O  O345  1  0.38145671  0.23072692  0.77846479  1
  O  O346  1  0.39893721  0.75132292  0.26200477  1
  O  O347  1  0.37401149  0.71591821  0.77827268  1
  O  O348  1  0.87753338  0.23798547  0.24531191  1
  O  O349  1  0.89478323  0.28024323  0.74465406  1
  O  O350  1  0.88990975  0.73217915  0.25419135  1
  O  O351  1  0.88441568  0.75940745  0.71792947  1
  O  O352  1  0.40239184  0.49903870  0.51206071  1
  O  O353  1  0.38569051  0.48092248  0.98207836  1
  O  O354  1  0.35748805  0.99045931  0.48956839  1
  O  O355  1  0.40047630  0.99524157  1.01502169  1
  O  O356  1  0.89734379  0.48963679  0.48267961  1
  O  O357  1  0.87723188  0.50042519  0.99992196  1
  O  O358  1  0.89587868  1.00701218  0.47977288  1
  O  O359  1  0.88630761  1.01370966  1.00628974  1
  O  O360  1  0.11170865  0.00490039  0.00912588  1
  O  O361  1  0.11857211  -0.00224018  0.50210007  1
  O  O362  1  0.10060514  0.52223310  -0.00862785  1
  O  O363  1  0.11969967  0.48513394  0.48626891  1
  O  O364  1  0.61909897  0.01060184  0.01817761  1
  O  O365  1  0.72833279  0.22708717  0.44203293  1
  O  O366  1  0.65281334  0.50512225  0.04573225  1
  O  O367  1  0.61888719  0.48518753  0.52517608  1
  O  O368  1  0.38287139  0.37871695  0.11871771  1
  O  O369  1  0.36279640  0.35252587  0.62881784  1
  O  O370  1  0.35917425  0.87465386  0.12702443  1
  O  O371  1  0.35413268  0.89191365  0.61765397  1
  O  O372  1  0.86861813  0.36145296  0.14167904  1
  O  O373  1  0.88276755  0.38602376  0.59984634  1
  O  O374  1  0.86460773  0.87009260  0.12966871  1
  O  O375  1  0.86562074  0.87919439  0.60666732  1
  O  O376  1  0.13074640  0.12031369  0.37073292  1
  O  O377  1  0.12567368  0.09784256  0.88835530  1
  O  O378  1  0.15178735  0.61865610  0.37411459  1
  O  O379  1  0.11006600  0.64734729  0.86160380  1
  O  O380  1  0.58090126  0.14043950  0.40172256  1
  O  O381  1  0.63002081  0.12688674  0.90046949  1
  O  O382  1  0.66260645  0.63393397  0.39177160  1
  O  O383  1  0.64381496  0.64105367  0.86422570  1
