# generated using pymatgen
data_VZnO4
_symmetry_space_group_name_H-M   'P 1'
_cell_length_a   16.86235227
_cell_length_b   16.85537973
_cell_length_c   16.83657750
_cell_angle_alpha   90.02965632
_cell_angle_beta   89.94059681
_cell_angle_gamma   90.09364782
_symmetry_Int_Tables_number   1
_chemical_formula_structural   VZnO4
_chemical_formula_sum   'V64 Zn64 O256'
_cell_volume   4785.30519592
_cell_formula_units_Z   64
loop_
 _symmetry_equiv_pos_site_id
 _symmetry_equiv_pos_as_xyz
  1  'x, y, z'
loop_
 _atom_site_type_symbol
 _atom_site_label
 _atom_site_symmetry_multiplicity
 _atom_site_fract_x
 _atom_site_fract_y
 _atom_site_fract_z
 _atom_site_occupancy
  V  V0  1  0.24434168  0.75708232  0.49910929  1
  V  V1  1  0.02810351  0.50942783  -0.00154810  1
  V  V2  1  0.38311452  0.74949387  0.11522464  1
  V  V3  1  0.61988428  0.50183848  0.13032299  1
  V  V4  1  0.38049068  0.11335041  0.25125016  1
  V  V5  1  0.51322635  0.74489567  0.75404205  1
  V  V6  1  0.48902103  0.88952291  0.39107041  1
  V  V7  1  0.24663591  0.88069165  0.11161052  1
  V  V8  1  0.86022778  0.62556349  0.72648845  1
  V  V9  1  0.63416081  0.76644745  0.37765308  1
  V  V10  1  0.01636990  0.13190421  0.13523270  1
  V  V11  1  0.37610974  0.49794121  0.88713042  1
  V  V12  1  0.37187890  0.75282134  0.61602524  1
  V  V13  1  -0.00391802  0.86521418  0.87760187  1
  V  V14  1  0.12611366  0.00109354  0.63442451  1
  V  V15  1  0.24109792  0.13362442  0.38089414  1
  V  V16  1  0.38444021  0.49095618  0.38387225  1
  V  V17  1  0.75611013  0.01244507  0.75790600  1
  V  V18  1  0.61594475  0.37695639  0.74459083  1
  V  V19  1  0.89263707  0.87987884  0.49329306  1
  V  V20  1  0.00947589  0.52348096  0.51239406  1
  V  V21  1  0.36709921  0.61854950  0.74288992  1
  V  V22  1  0.25012701  0.47701775  0.74362926  1
  V  V23  1  0.23669036  0.12232395  0.87249505  1
  V  V24  1  0.37847308  0.62670498  0.25373065  1
  V  V25  1  0.86057702  0.38869679  0.00055364  1
  V  V26  1  0.75735198  0.75184992  0.49985194  1
  V  V27  1  0.74288699  0.49898427  0.77029677  1
  V  V28  1  0.74772386  0.23897129  0.50124143  1
  V  V29  1  0.63345147  0.87920273  0.75636729  1
  V  V30  1  0.74701478  0.23864625  -0.00723446  1
  V  V31  1  -0.00465864  0.00706404  -0.00063342  1
  V  V32  1  0.23979032  0.62672640  0.38302292  1
  V  V33  1  0.88778532  0.36890381  0.50732617  1
  V  V34  1  0.90209206  0.48636583  0.36558572  1
  V  V35  1  0.23024731  0.73991246  -0.00758964  1
  V  V36  1  0.50499660  0.11146454  0.11405299  1
  V  V37  1  0.72489751  0.59191539  0.38508037  1
  V  V38  1  0.36375077  0.23752431  0.62426719  1
  V  V39  1  0.51730393  0.61365403  0.60804565  1
  V  V40  1  0.37333810  0.36739801  0.51020864  1
  V  V41  1  0.00696386  0.37930087  0.86839551  1
  V  V42  1  0.49887131  0.75918165  0.25309504  1
  V  V43  1  0.12738141  0.87676078  0.26263537  1
  V  V44  1  0.86097570  0.15052623  0.72670588  1
  V  V45  1  0.36911024  0.25917728  0.11330500  1
  V  V46  1  0.75021362  0.89511748  0.61489850  1
  V  V47  1  0.73521059  0.39190466  0.60390523  1
  V  V48  1  0.49802917  0.25785398  0.25295954  1
  V  V49  1  0.23831650  0.49045907  0.24299864  1
  V  V50  1  0.13254909  0.49454252  0.62696335  1
  V  V51  1  0.50051009  0.23717071  0.73901652  1
  V  V52  1  0.02347090  0.62836408  0.12651822  1
  V  V53  1  0.87783821  0.25055155  0.13672448  1
  V  V54  1  0.88997199  0.02315037  0.37690668  1
  V  V55  1  0.86234718  0.86351203  0.03646592  1
  V  V56  1  0.47049439  -0.01370034  -0.01011246  1
  V  V57  1  0.49613943  0.36782770  0.88520280  1
  V  V58  1  0.63652595  0.88920526  0.23016016  1
  V  V59  1  0.60134639  0.11172405  0.50534518  1
  V  V60  1  0.87570296  0.64692204  0.26057560  1
  V  V61  1  0.62922445  0.24702626  0.36622197  1
  V  V62  1  0.24609238  -0.00059850  0.25490239  1
  V  V63  1  0.01734618  0.75517049  0.25949958  1
  Zn  Zn64  1  0.18938300  0.18592629  0.18093793  1
  Zn  Zn65  1  0.19258832  0.18753341  0.68026786  1
  Zn  Zn66  1  0.19938370  0.69185785  0.18802088  1
  Zn  Zn67  1  0.17174037  0.67682841  0.69490186  1
  Zn  Zn68  1  0.67654759  0.19957239  0.16192355  1
  Zn  Zn69  1  0.67884062  0.19319379  0.67641141  1
  Zn  Zn70  1  0.68191741  0.68169770  0.21713610  1
  Zn  Zn71  1  0.69350129  0.68876932  0.68831951  1
  Zn  Zn72  1  0.31127891  0.30992113  0.30923249  1
  Zn  Zn73  1  0.32251118  0.30887054  0.81232631  1
  Zn  Zn74  1  0.31311027  0.81424846  0.31836110  1
  Zn  Zn75  1  0.26769410  0.78825397  0.78803254  1
  Zn  Zn76  1  0.81733704  0.31366694  0.31380007  1
  Zn  Zn77  1  0.80940330  0.32117999  0.81864072  1
  Zn  Zn78  1  0.81908854  0.83653709  0.30751385  1
  Zn  Zn79  1  0.85571102  0.81560039  0.79966263  1
  Zn  Zn80  1  0.19381576  0.43681648  0.43938699  1
  Zn  Zn81  1  0.18579945  0.44590921  0.92064353  1
  Zn  Zn82  1  0.19500356  0.93909351  0.43842037  1
  Zn  Zn83  1  0.16899424  0.92891145  0.93929099  1
  Zn  Zn84  1  0.69607395  0.41585763  0.39295625  1
  Zn  Zn85  1  0.67914889  0.42308685  0.93762890  1
  Zn  Zn86  1  0.69620566  0.95071335  0.42371442  1
  Zn  Zn87  1  0.75070592  0.90557076  0.91766597  1
  Zn  Zn88  1  0.31295467  0.06466041  0.06511733  1
  Zn  Zn89  1  0.31841034  0.06182081  0.55919866  1
  Zn  Zn90  1  0.30347219  0.56912185  0.06522530  1
  Zn  Zn91  1  0.31605186  0.56183131  0.56336067  1
  Zn  Zn92  1  0.83486645  0.07127075  0.05883880  1
  Zn  Zn93  1  0.82654601  0.06498719  0.55424095  1
  Zn  Zn94  1  0.81901277  0.55532754  0.09257284  1
  Zn  Zn95  1  0.81562454  0.55995313  0.55064806  1
  Zn  Zn96  1  0.42523048  0.43448608  0.19289002  1
  Zn  Zn97  1  0.44097348  0.43775750  0.67591943  1
  Zn  Zn98  1  0.43685064  0.93185261  0.18401320  1
  Zn  Zn99  1  0.44051347  0.91788399  0.69098353  1
  Zn  Zn100  1  0.96365092  0.42624424  0.16986356  1
  Zn  Zn101  1  0.92863278  0.44226099  0.68590606  1
  Zn  Zn102  1  0.94346296  0.95354641  0.19242131  1
  Zn  Zn103  1  0.92597478  0.93855507  0.68508555  1
  Zn  Zn104  1  0.05528325  0.06486506  0.32030241  1
  Zn  Zn105  1  0.03930208  0.05983547  0.82717151  1
  Zn  Zn106  1  0.06386253  0.56172671  0.31533730  1
  Zn  Zn107  1  0.05251464  0.57529406  0.80949266  1
  Zn  Zn108  1  0.56748733  0.06179965  0.31974350  1
  Zn  Zn109  1  0.55832933  0.04902094  0.80986219  1
  Zn  Zn110  1  0.55969712  0.57025437  0.32882564  1
  Zn  Zn111  1  0.55315700  0.55862379  0.81199834  1
  Zn  Zn112  1  0.43106087  0.18587776  0.43608632  1
  Zn  Zn113  1  0.43833026  0.18450300  0.93298879  1
  Zn  Zn114  1  0.43980329  0.69139662  0.43461899  1
  Zn  Zn115  1  0.38796361  0.71507465  0.90312201  1
  Zn  Zn116  1  0.96444779  0.19040685  0.47081626  1
  Zn  Zn117  1  0.92474489  0.19675247  0.93552678  1
  Zn  Zn118  1  0.94543241  0.69307411  0.43662770  1
  Zn  Zn119  1  0.93911105  0.69936075  0.96038634  1
  Zn  Zn120  1  0.03970570  0.29421450  0.01809592  1
  Zn  Zn121  1  0.07166824  0.30455118  0.58012862  1
  Zn  Zn122  1  0.05832535  0.81744674  0.06544910  1
  Zn  Zn123  1  0.07625597  0.81010143  0.56716085  1
  Zn  Zn124  1  0.55799406  0.30286774  0.06720659  1
  Zn  Zn125  1  0.55653411  0.31007331  0.55170802  1
  Zn  Zn126  1  0.56114717  0.81273859  0.05263334  1
  Zn  Zn127  1  0.56650089  0.80927195  0.56717385  1
  O  O128  1  0.11506160  0.14109774  0.10792126  1
  O  O129  1  0.12623868  0.10643030  0.62699830  1
  O  O130  1  0.12250281  0.62656167  0.12969830  1
  O  O131  1  0.12774886  0.59927294  0.62638203  1
  O  O132  1  0.60406368  0.11718968  0.12709320  1
  O  O133  1  0.62200961  0.12585522  0.60499894  1
  O  O134  1  0.61878026  0.60648287  0.13558223  1
  O  O135  1  0.61540305  0.63524897  0.62132601  1
  O  O136  1  0.37531125  0.38932156  0.36954234  1
  O  O137  1  0.38331310  0.38398518  0.87628508  1
  O  O138  1  0.38927244  0.87154226  0.37919797  1
  O  O139  1  0.32763466  0.89858453  0.81895359  1
  O  O140  1  0.88139004  0.38302119  0.39327272  1
  O  O141  1  0.88173618  0.37797571  0.89516128  1
  O  O142  1  0.88490400  0.88217937  0.38855151  1
  O  O143  1  0.85950085  0.86292765  0.90258552  1
  O  O144  1  0.25179951  0.00290427  0.35890624  1
  O  O145  1  0.23016171  0.01790136  0.87479803  1
  O  O146  1  0.25920582  0.51222678  0.36660104  1
  O  O147  1  0.26681404  0.49386127  0.85782389  1
  O  O148  1  0.78596151  0.00681518  0.38787103  1
  O  O149  1  0.75786345  0.00798797  0.85686936  1
  O  O150  1  0.79416807  0.51300509  0.37854955  1
  O  O151  1  0.74320200  0.49258087  0.86980773  1
  O  O152  1  0.25482616  0.50687547  0.14378091  1
  O  O153  1  0.24615107  0.49440694  0.63183115  1
  O  O154  1  0.25543551  0.98526986  0.13117148  1
  O  O155  1  0.23083053  1.00122158  0.64244516  1
  O  O156  1  0.72392879  0.50284965  0.14628220  1
  O  O157  1  0.73720402  0.49294800  0.60632072  1
  O  O158  1  0.76134691  1.03489299  0.16856831  1
  O  O159  1  0.74584320  0.99537904  0.61287129  1
  O  O160  1  0.04108500  0.36274872  0.23406321  1
  O  O161  1  -0.02072311  0.38443197  0.77061432  1
  O  O162  1  0.01933109  0.86597413  0.24017468  1
  O  O163  1  -0.04395376  0.87622671  0.77485979  1
  O  O164  1  0.49525782  0.35690703  0.24671046  1
  O  O165  1  0.50813500  0.37110950  0.74733742  1
  O  O166  1  0.50264016  0.87049911  0.25903092  1
  O  O167  1  0.52462317  0.86653936  0.74427401  1
  O  O168  1  0.48691104  0.11450541  0.23990504  1
  O  O169  1  0.51413260  0.13878893  0.75630377  1
  O  O170  1  0.48699947  0.64076503  0.25996463  1
  O  O171  1  0.50055831  0.63446380  0.73962980  1
  O  O172  1  1.02155790  0.13374116  0.23545433  1
  O  O173  1  0.96260386  0.13681433  0.78344179  1
  O  O174  1  1.00757735  0.63890525  0.24385058  1
  O  O175  1  0.95080489  0.61532958  0.76890667  1
  O  O176  1  0.38037612  0.24191818  0.01287445  1
  O  O177  1  0.37523655  0.25278819  0.51327788  1
  O  O178  1  0.39224858  0.73577970  0.01647155  1
  O  O179  1  0.37433553  0.74947916  0.51082887  1
  O  O180  1  0.86167061  0.26307246  0.00693242  1
  O  O181  1  0.85985142  0.26574691  0.49404780  1
  O  O182  1  0.87465460  0.76080613  0.02803209  1
  O  O183  1  0.86204210  0.75824827  0.48449105  1
  O  O184  1  0.09633695  0.29837301  0.41191452  1
  O  O185  1  0.16499508  0.29662239  1.01878374  1
  O  O186  1  0.14411258  0.74451498  0.51054195  1
  O  O187  1  0.13188563  0.75508795  0.99215782  1
  O  O188  1  0.63108969  0.23714533  0.49177530  1
  O  O189  1  0.64957203  0.24743612  1.03118061  1
  O  O190  1  0.63726507  0.75504967  0.48312017  1
  O  O191  1  0.61529053  0.73568296  0.97698861  1
  O  O192  1  0.49459935  0.23289725  0.13512316  1
  O  O193  1  0.49403636  0.24878425  0.63422335  1
  O  O194  1  0.48888354  0.75831737  0.13677361  1
  O  O195  1  0.49061870  0.74543256  0.63532087  1
  O  O196  1  0.99438547  0.24183596  0.10650704  1
  O  O197  1  1.04105479  0.24984125  0.70221310  1
  O  O198  1  1.00759339  0.73584375  0.13545672  1
  O  O199  1  1.01254487  0.75276668  0.65379897  1
  O  O200  1  0.03414489  0.26131859  0.38289737  1
  O  O201  1  0.00599160  0.27638702  0.90600399  1
  O  O202  1  0.01042475  0.74942392  0.35892382  1
  O  O203  1  -0.01389886  0.76212316  0.88112608  1
  O  O204  1  0.50107112  0.23604643  0.35575309  1
  O  O205  1  0.48582611  0.26133222  0.85822417  1
  O  O206  1  0.51291900  0.76027099  0.36936705  1
  O  O207  1  0.48263853  0.75395121  0.84945632  1
  O  O208  1  0.25970135  0.10934974  0.47926598  1
  O  O209  1  0.23872686  0.12349827  0.97753685  1
  O  O210  1  0.25756749  0.62519533  0.48619815  1
  O  O211  1  0.24434742  0.64039691  0.99917476  1
  O  O212  1  0.75435159  0.13970571  0.50399301  1
  O  O213  1  0.76738697  0.13812873  0.99809666  1
  O  O214  1  0.75664903  0.63620361  0.47673016  1
  O  O215  1  0.74965564  0.65285776  1.06174564  1
  O  O216  1  0.21514362  0.35037068  0.00072118  1
  O  O217  1  0.27047306  0.36989849  0.48688608  1
  O  O218  1  0.24358407  0.87271407  0.00837177  1
  O  O219  1  0.25151146  0.85906025  0.49670685  1
  O  O220  1  0.75713210  0.37062288  0.00396379  1
  O  O221  1  0.74249605  0.37613261  0.49858328  1
  O  O222  1  0.75963409  0.87913632  0.02713684  1
  O  O223  1  0.75489761  0.86856888  0.50360635  1
  O  O224  1  0.13787415  0.50055741  0.25501714  1
  O  O225  1  0.14340792  0.49664057  0.74374014  1
  O  O226  1  0.13783339  0.98836133  0.24615746  1
  O  O227  1  0.11458596  1.01213624  0.74008530  1
  O  O228  1  0.60216995  0.49738528  0.23358360  1
  O  O229  1  0.62898139  0.48889646  0.75302548  1
  O  O230  1  0.61920030  0.98792765  0.24909575  1
  O  O231  1  0.63601362  0.98903643  0.74942883  1
  O  O232  1  0.36333871  0.00675267  0.24174425  1
  O  O233  1  0.36832873  -0.04759162  0.78415831  1
  O  O234  1  0.37280405  0.51452804  0.25572522  1
  O  O235  1  0.36787492  0.50210246  0.74359831  1
  O  O236  1  0.89571497  0.01567601  0.27321428  1
  O  O237  1  0.85725905  0.01955004  0.73084452  1
  O  O238  1  0.91424311  0.47399756  0.26686277  1
  O  O239  1  0.84606087  0.50482056  0.74027599  1
  O  O240  1  0.11017294  0.36955156  0.37957386  1
  O  O241  1  0.10844468  0.38407432  0.86560324  1
  O  O242  1  0.13097919  0.87936424  0.36215801  1
  O  O243  1  0.09769865  0.87545566  0.86819628  1
  O  O244  1  0.60504160  0.34322503  0.38566051  1
  O  O245  1  0.60703829  0.37667315  0.86016566  1
  O  O246  1  0.62006395  0.87386474  0.36440016  1
  O  O247  1  0.65701970  0.86876678  0.85354521  1
  O  O248  1  0.37964591  0.13014943  0.13433298  1
  O  O249  1  0.36700904  0.13648683  0.62861893  1
  O  O250  1  0.36781011  0.63975314  0.14210326  1
  O  O251  1  0.39036301  0.62457298  0.63198195  1
  O  O252  1  0.89285318  0.14293109  0.12958744  1
  O  O253  1  0.88201508  0.13682035  0.62798534  1
  O  O254  1  0.88580381  0.61176419  0.16295397  1
  O  O255  1  0.87099597  0.62429881  0.62583576  1
  O  O256  1  0.26991242  0.24878058  0.13326299  1
  O  O257  1  0.26278930  0.25471800  0.63202558  1
  O  O258  1  0.25933771  0.75584051  0.10687973  1
  O  O259  1  0.26667205  0.72715010  0.60752345  1
  O  O260  1  0.77184903  0.24582265  0.12494677  1
  O  O261  1  0.73974648  0.26670482  0.60402254  1
  O  O262  1  0.73501947  0.70915228  0.11064625  1
  O  O263  1  0.74824622  0.74584674  0.59980496  1
  O  O264  1  0.25190811  0.23393213  0.36787911  1
  O  O265  1  0.24291118  0.22751104  0.86694210  1
  O  O266  1  0.25851519  0.73811486  0.38776063  1
  O  O267  1  0.27885350  0.75991074  0.89698330  1
  O  O268  1  0.73812667  0.25205151  0.38348771  1
  O  O269  1  0.74325164  0.25977082  0.89255730  1
  O  O270  1  0.74038060  0.76850173  0.37680557  1
  O  O271  1  0.76534526  0.66170861  0.91498440  1
  O  O272  1  -0.01559372  0.11114827  -0.01061040  1
  O  O273  1  0.04555270  0.20436875  0.54540320  1
  O  O274  1  -0.00048244  0.61953668  0.01520307  1
  O  O275  1  0.00202661  0.62262734  0.50740659  1
  O  O276  1  0.49068326  0.11309647  0.00857565  1
  O  O277  1  0.50012534  0.12091575  0.49879503  1
  O  O278  1  0.57996360  0.66703459  -0.04468774  1
  O  O279  1  0.50175894  0.63035128  0.50844311  1
  O  O280  1  0.47741773  0.36750105  0.49380690  1
  O  O281  1  0.50819637  0.36295524  0.98399904  1
  O  O282  1  0.51077554  0.87133243  0.48954223  1
  O  O283  1  0.49652032  0.88854122  0.99932097  1
  O  O284  1  0.98595428  0.36334718  0.51924366  1
  O  O285  1  0.99829062  0.40359202  0.99738574  1
  O  O286  1  0.98822595  0.85404666  0.51414162  1
  O  O287  1  0.98696992  0.87755021  0.99691255  1
  O  O288  1  0.48264080  0.50553751  0.37465764  1
  O  O289  1  0.48661161  0.48477385  0.87247444  1
  O  O290  1  0.49762869  0.98876231  0.37590799  1
  O  O291  1  0.49607048  1.00692161  0.89164952  1
  O  O292  1  1.00592632  0.50021093  0.39682889  1
  O  O293  1  1.00785803  0.50479052  0.89108610  1
  O  O294  1  0.99731860  0.99496231  0.38481006  1
  O  O295  1  0.98473897  0.98562642  0.89017772  1
  O  O296  1  -0.00081367  0.02383983  0.11786964  1
  O  O297  1  0.02057443  -0.00091528  0.63042920  1
  O  O298  1  0.00848107  0.51562280  0.11319061  1
  O  O299  1  0.00761971  0.49829593  0.61761974  1
  O  O300  1  0.48798518  0.00486807  0.10893588  1
  O  O301  1  0.45600228  -0.00293663  0.60632126  1
  O  O302  1  0.51562622  0.50165910  0.11357757  1
  O  O303  1  0.50701997  0.51349354  0.62312849  1
  O  O304  1  0.25515692  0.39121809  0.25284861  1
  O  O305  1  0.25418946  0.37793865  0.75025954  1
  O  O306  1  0.24505499  0.88146055  0.24747079  1
  O  O307  1  0.18613493  0.78850795  0.71508026  1
  O  O308  1  0.73669859  0.38840541  0.29029828  1
  O  O309  1  0.73607308  0.38623834  0.73862196  1
  O  O310  1  0.73726283  0.87573322  0.24233391  1
  O  O311  1  0.75269135  0.89538566  0.73277001  1
  O  O312  1  0.25447848  0.11093740  0.24768356  1
  O  O313  1  0.24048368  0.11852372  0.76579346  1
  O  O314  1  0.26196398  0.62751570  0.26258390  1
  O  O315  1  0.26680516  0.61248421  0.74156700  1
  O  O316  1  0.74640267  0.08643770  0.21912338  1
  O  O317  1  0.74984993  0.12180286  0.73670915  1
  O  O318  1  0.76940419  0.63168216  0.27786535  1
  O  O319  1  0.74127050  0.60317672  0.74829341  1
  O  O320  1  0.36612603  0.12543593  0.35429281  1
  O  O321  1  0.34212914  0.11941032  0.87357989  1
  O  O322  1  0.37075054  0.61984550  0.36660703  1
  O  O323  1  0.38723412  0.60729863  0.85375252  1
  O  O324  1  0.90422959  0.12225174  0.40760021  1
  O  O325  1  0.89535074  0.13244860  0.83889786  1
  O  O326  1  0.90386561  0.61079593  0.35748767  1
  O  O327  1  0.83405063  0.63642497  0.90643972  1
  O  O328  1  0.09983093  0.32363867  0.19877472  1
  O  O329  1  0.12407397  0.38895080  0.62409481  1
  O  O330  1  0.14422805  0.86650146  0.13434831  1
  O  O331  1  0.12583791  0.89586621  0.64610053  1
  O  O332  1  0.61866970  0.39694930  0.12683419  1
  O  O333  1  0.62831196  0.37577068  0.62973195  1
  O  O334  1  0.61822920  0.87291804  0.13175454  1
  O  O335  1  0.64681988  0.86281106  0.63554510  1
  O  O336  1  0.13211740  0.26934566  0.24595986  1
  O  O337  1  0.10183182  0.22882049  0.74176988  1
  O  O338  1  0.12627618  0.76116930  0.25070424  1
  O  O339  1  0.03375132  0.75306046  0.72489150  1
  O  O340  1  0.61433790  0.23798476  0.25515589  1
  O  O341  1  0.61422237  0.26513856  0.74369087  1
  O  O342  1  0.61648070  0.76852431  0.25315158  1
  O  O343  1  0.61866265  0.75373717  0.75196391  1
  O  O344  1  0.38624602  0.23764808  0.24262715  1
  O  O345  1  0.38940733  0.25300235  0.73676285  1
  O  O346  1  0.37985980  0.74425590  0.24855001  1
  O  O347  1  0.37226393  0.73040916  0.74035941  1
  O  O348  1  0.88500593  0.26793708  0.23661074  1
  O  O349  1  0.85000184  0.25016600  0.73780372  1
  O  O350  1  0.89050277  0.74971752  0.25991053  1
  O  O351  1  0.82723692  0.72302427  0.74820395  1
  O  O352  1  0.37182505  0.48933079  0.49041058  1
  O  O353  1  0.36514649  0.51114639  0.98505946  1
  O  O354  1  0.40348824  0.98373244  0.55016582  1
  O  O355  1  0.36983772  0.99237539  0.99533996  1
  O  O356  1  0.89766063  0.49242782  0.49666157  1
  O  O357  1  0.86133128  0.49241540  1.01186279  1
  O  O358  1  0.89149766  0.98535269  0.50330351  1
  O  O359  1  0.88449087  0.98095177  1.01610919  1
  O  O360  1  0.09827885  -0.00798882  0.00194636  1
  O  O361  1  0.13157041  -0.00877119  0.53078763  1
  O  O362  1  0.12791057  0.50708195  -0.00033071  1
  O  O363  1  0.11558153  0.49574942  0.50837496  1
  O  O364  1  0.63971829  0.05094311  -0.03240278  1
  O  O365  1  0.62743112  0.01418711  0.48816866  1
  O  O366  1  0.63641902  0.50442675  0.02609937  1
  O  O367  1  0.65026680  0.52349865  0.40485307  1
  O  O368  1  0.38570218  0.36015341  0.12069580  1
  O  O369  1  0.37363400  0.36757503  0.61515724  1
  O  O370  1  0.35997262  0.85732905  0.13180006  1
  O  O371  1  0.36536594  0.85040898  0.63964272  1
  O  O372  1  0.88924374  0.36484613  0.10813121  1
  O  O373  1  0.85264746  0.38502315  0.60981075  1
  O  O374  1  0.88256231  0.87651556  0.13663155  1
  O  O375  1  0.85843598  0.87609551  0.61236247  1
  O  O376  1  0.14125166  0.12055563  0.37007518  1
  O  O377  1  0.13197857  0.12804749  0.86973444  1
  O  O378  1  0.14072456  0.62597335  0.37432859  1
  O  O379  1  0.12086583  0.66156970  0.79829891  1
  O  O380  1  0.61984485  0.13680222  0.38791691  1
  O  O381  1  0.63372015  0.09924137  0.91233425  1
  O  O382  1  0.63761484  0.65583911  0.34690897  1
  O  O383  1  0.61101413  0.63527018  0.88929783  1
