# generated using pymatgen
data_VZnO4
_symmetry_space_group_name_H-M   'P 1'
_cell_length_a   16.90593295
_cell_length_b   16.92577282
_cell_length_c   16.88568986
_cell_angle_alpha   89.86339561
_cell_angle_beta   90.32192977
_cell_angle_gamma   90.03568095
_symmetry_Int_Tables_number   1
_chemical_formula_structural   VZnO4
_chemical_formula_sum   'V64 Zn64 O256'
_cell_volume   4831.68138156
_cell_formula_units_Z   64
loop_
 _symmetry_equiv_pos_site_id
 _symmetry_equiv_pos_as_xyz
  1  'x, y, z'
loop_
 _atom_site_type_symbol
 _atom_site_label
 _atom_site_symmetry_multiplicity
 _atom_site_fract_x
 _atom_site_fract_y
 _atom_site_fract_z
 _atom_site_occupancy
  V  V0  1  0.50234868  0.37799100  0.36781748  1
  V  V1  1  0.14999421  0.26896935  0.36145390  1
  V  V2  1  0.37956472  0.11792922  0.76930796  1
  V  V3  1  0.60586595  0.62322123  0.00017103  1
  V  V4  1  0.37871453  0.35362831  0.02171941  1
  V  V5  1  0.76992123  0.34445624  0.12683347  1
  V  V6  1  0.61554867  -0.00505999  0.11954334  1
  V  V7  1  0.33341484  0.77365049  0.08166619  1
  V  V8  1  0.00114200  0.60917518  0.61968598  1
  V  V9  1  0.48666116  0.75326030  0.75964203  1
  V  V10  1  0.62780029  0.25463892  0.86786439  1
  V  V11  1  0.88418211  0.75606090  0.65504746  1
  V  V12  1  0.26193906  -0.01725051  0.23880593  1
  V  V13  1  0.48720652  -0.01857085  -0.01814315  1
  V  V14  1  0.01029566  -0.00725663  0.51062957  1
  V  V15  1  0.49530453  0.11814509  0.61376978  1
  V  V16  1  0.76838327  0.75623428  0.49478534  1
  V  V17  1  0.23566268  0.24622062  0.00292960  1
  V  V18  1  0.86787618  -0.01800938  0.90039628  1
  V  V19  1  0.84204769  0.51299637  0.37753144  1
  V  V20  1  0.75906846  -0.00541445  0.24591735  1
  V  V21  1  0.62696662  0.75057803  0.37977808  1
  V  V22  1  0.63153960  0.11636884  0.49090691  1
  V  V23  1  0.61544296  0.12349222  0.00068411  1
  V  V24  1  0.75759662  0.86885763  0.11933098  1
  V  V25  1  0.23751624  0.60485373  0.91100592  1
  V  V26  1  0.25417694  0.61990136  0.36504814  1
  V  V27  1  -0.01019696  0.38995098  0.36847916  1
  V  V28  1  0.36952634  0.47867169  0.85639101  1
  V  V29  1  0.76198538  0.74688786  0.00352610  1
  V  V30  1  0.80664618  0.04937383  0.70577098  1
  V  V31  1  0.01996911  0.13266990  0.12577204  1
  V  V32  1  -0.02420412  0.25864694  0.24257665  1
  V  V33  1  0.61830231  0.87565619  0.75502576  1
  V  V34  1  0.88632709  -0.01136633  0.36852374  1
  V  V35  1  0.75053260  0.40916534  0.64685894  1
  V  V36  1  0.86340959  0.63201256  0.23754291  1
  V  V37  1  0.48886291  0.73401206  0.24808844  1
  V  V38  1  0.49516181  0.47872552  -0.00661595  1
  V  V39  1  0.50384583  0.25324636  0.74247539  1
  V  V40  1  0.35605019  0.63291783  0.75959218  1
  V  V41  1  0.11876523  0.13358354  0.50032197  1
  V  V42  1  0.76463550  0.24634411  0.50596243  1
  V  V43  1  0.62339058  -0.00533513  0.62557569  1
  V  V44  1  0.61456946  0.75451607  0.87924026  1
  V  V45  1  0.22848719  0.87880554  0.61484352  1
  V  V46  1  -0.00131938  0.48679232  0.00156874  1
  V  V47  1  0.76095104  0.12844935  0.36362522  1
  V  V48  1  0.61868819  0.87411420  0.25641022  1
  V  V49  1  0.61757868  0.62937641  0.51101995  1
  V  V50  1  0.25972409  0.10926325  0.38089639  1
  V  V51  1  0.87307313  0.59980917  0.75539896  1
  V  V52  1  0.39193982  0.50781769  0.41629473  1
  V  V53  1  0.24045703  0.00274455  0.74107279  1
  V  V54  1  0.22320198  0.12521035  0.87534567  1
  V  V55  1  0.65189202  0.50893328  0.15528869  1
  V  V56  1  0.75215597  0.11695392  0.88645781  1
  V  V57  1  0.22481729  0.74693632  0.48660424  1
  V  V58  1  0.02927088  -0.00240930  0.01395649  1
  V  V59  1  0.37280612  0.75997535  0.61076133  1
  V  V60  1  0.75193856  0.61227707  0.87254403  1
  V  V61  1  0.00557942  0.75271588  0.27579444  1
  V  V62  1  0.38306155  0.13002290  0.23638285  1
  V  V63  1  0.75700171  0.87180530  0.63559212  1
  Zn  Zn64  1  0.20699642  0.19181124  0.19545159  1
  Zn  Zn65  1  0.10027976  0.14953046  0.71128645  1
  Zn  Zn66  1  0.12753436  0.74395310  0.14146940  1
  Zn  Zn67  1  0.17792618  0.68973983  0.68384276  1
  Zn  Zn68  1  0.70158816  0.17996266  0.17492681  1
  Zn  Zn69  1  0.68716542  0.18676605  0.68327271  1
  Zn  Zn70  1  0.67704973  0.68807117  0.18375405  1
  Zn  Zn71  1  0.69024918  0.68822421  0.69269697  1
  Zn  Zn72  1  0.35751987  0.29367618  0.34562575  1
  Zn  Zn73  1  0.31175151  0.28789194  0.80808175  1
  Zn  Zn74  1  0.27297607  0.76526969  0.25977528  1
  Zn  Zn75  1  0.26426666  0.78864069  0.83095450  1
  Zn  Zn76  1  0.79571002  0.33060996  0.31663088  1
  Zn  Zn77  1  0.81191121  0.29442304  0.79858937  1
  Zn  Zn78  1  0.81631937  0.80999234  0.30487913  1
  Zn  Zn79  1  0.80615887  0.80706741  0.82279437  1
  Zn  Zn80  1  0.20244817  0.44258844  0.43174135  1
  Zn  Zn81  1  0.21582548  0.45767086  1.04974901  1
  Zn  Zn82  1  0.18320272  0.93919688  0.43109561  1
  Zn  Zn83  1  0.20615139  0.92846301  0.93315507  1
  Zn  Zn84  1  0.68030214  0.42985504  0.47215396  1
  Zn  Zn85  1  0.68940214  0.43451948  0.94774237  1
  Zn  Zn86  1  0.70230649  0.93561179  0.44055182  1
  Zn  Zn87  1  0.68748364  0.93634529  0.93935136  1
  Zn  Zn88  1  0.31341526  0.06463742  0.06160279  1
  Zn  Zn89  1  0.30589751  0.06473821  0.55928406  1
  Zn  Zn90  1  0.28304503  0.61867912  0.12689989  1
  Zn  Zn91  1  0.33436043  0.59547949  0.55236767  1
  Zn  Zn92  1  0.81450599  0.06367126  0.07761097  1
  Zn  Zn93  1  0.85961439  0.10311237  0.52899582  1
  Zn  Zn94  1  0.81221663  0.56349038  0.05951929  1
  Zn  Zn95  1  0.80630823  0.57470119  0.56356543  1
  Zn  Zn96  1  0.48067645  0.42230678  0.16598159  1
  Zn  Zn97  1  0.43252374  0.44277049  0.68516263  1
  Zn  Zn98  1  0.43107824  0.93112201  0.18733306  1
  Zn  Zn99  1  0.43055650  0.93550417  0.68586505  1
  Zn  Zn100  1  0.92335170  0.44514538  0.19622433  1
  Zn  Zn101  1  0.92275727  0.43452531  0.55036931  1
  Zn  Zn102  1  0.98251447  0.96183460  0.22344198  1
  Zn  Zn103  1  0.95429429  0.93749254  0.70078475  1
  Zn  Zn104  1  0.06905727  0.08558196  0.31221005  1
  Zn  Zn105  1  0.04824734  0.03639307  0.82616922  1
  Zn  Zn106  1  0.06051126  0.58080603  0.31245294  1
  Zn  Zn107  1  0.05396869  0.56108934  0.81448334  1
  Zn  Zn108  1  0.57818237  0.07305320  0.28939234  1
  Zn  Zn109  1  0.56088998  0.05773650  0.81193604  1
  Zn  Zn110  1  0.56810482  0.56673684  0.32849878  1
  Zn  Zn111  1  0.54729333  0.57168686  0.81854103  1
  Zn  Zn112  1  0.46953098  0.16390051  0.40148003  1
  Zn  Zn113  1  0.45296587  0.18528353  0.93640699  1
  Zn  Zn114  1  0.44182029  0.69958183  0.42638988  1
  Zn  Zn115  1  0.41929746  0.69538416  0.93872875  1
  Zn  Zn116  1  0.94639193  0.19507440  0.41612338  1
  Zn  Zn117  1  0.91695375  0.16208227  0.98704254  1
  Zn  Zn118  1  0.93680946  0.67936680  0.43337801  1
  Zn  Zn119  1  0.97414763  0.70330478  1.00117482  1
  Zn  Zn120  1  0.07419260  0.32025691  0.07899566  1
  Zn  Zn121  1  0.08612068  0.33665842  0.51680450  1
  Zn  Zn122  1  -0.03539293  0.83163321  0.11315162  1
  Zn  Zn123  1  0.05037449  0.80550196  0.55408071  1
  Zn  Zn124  1  0.60274908  0.32677294  0.05692655  1
  Zn  Zn125  1  0.58985650  0.29973481  0.56819656  1
  Zn  Zn126  1  0.55983884  0.81041927  0.06733441  1
  Zn  Zn127  1  0.57449533  0.78419397  0.58511576  1
  O  O128  1  0.11895337  0.13557818  0.14277119  1
  O  O129  1  0.11424890  0.14511232  0.59796430  1
  O  O130  1  0.13935516  0.59414926  0.15218514  1
  O  O131  1  0.10059779  0.62105413  0.64394700  1
  O  O132  1  0.63175392  0.11118271  0.10749511  1
  O  O133  1  0.62480369  0.10924376  0.61572018  1
  O  O134  1  0.62686524  0.60850030  0.10971652  1
  O  O135  1  0.61718297  0.67155173  0.60968904  1
  O  O136  1  0.38909202  0.40195836  0.38631018  1
  O  O137  1  0.36901806  0.38379011  0.82213350  1
  O  O138  1  0.42083819  0.99448064  0.44186689  1
  O  O139  1  0.29366992  0.87302047  0.89684182  1
  O  O140  1  0.88192090  0.40008736  0.36222607  1
  O  O141  1  0.88813707  0.31691061  0.89615597  1
  O  O142  1  0.87607419  0.89030246  0.36840802  1
  O  O143  1  0.86812376  0.88445349  0.87838895  1
  O  O144  1  0.26492129  0.00819500  0.37545638  1
  O  O145  1  0.23940896  0.01636770  0.85341150  1
  O  O146  1  0.28106680  0.50944950  0.38889767  1
  O  O147  1  0.27169393  0.49783576  0.86888275  1
  O  O148  1  0.76586723  0.00183700  0.36597669  1
  O  O149  1  0.75562844  0.00669394  0.87465274  1
  O  O150  1  0.74546728  0.49141728  0.38034057  1
  O  O151  1  0.73867824  0.51336682  0.88394594  1
  O  O152  1  0.28957539  0.50164209  0.13683982  1
  O  O153  1  0.28565140  0.42466912  0.58570396  1
  O  O154  1  0.24879306  1.00579166  0.14116145  1
  O  O155  1  0.25032633  0.98547548  0.61791880  1
  O  O156  1  0.74782244  0.49399921  0.12505809  1
  O  O157  1  0.74876632  0.51137229  0.64000811  1
  O  O158  1  0.74012436  0.99081555  0.12889079  1
  O  O159  1  0.74520963  0.98821583  0.64214230  1
  O  O160  1  -0.00458793  0.36938149  0.25461278  1
  O  O161  1  -0.00853567  0.34853158  0.69142068  1
  O  O162  1  -0.00711423  0.85018042  0.22572572  1
  O  O163  1  0.03651433  0.93849889  0.77409050  1
  O  O164  1  0.51080008  0.38803929  0.26860513  1
  O  O165  1  0.49418596  0.34991538  0.72218707  1
  O  O166  1  0.51787240  0.87511162  0.25061997  1
  O  O167  1  0.50715105  0.86886211  0.74799642  1
  O  O168  1  0.47897967  0.11912352  0.29085167  1
  O  O169  1  0.49093735  0.11893644  0.73478856  1
  O  O170  1  0.50183711  0.63507804  0.26215284  1
  O  O171  1  0.48552150  0.64792879  0.75665434  1
  O  O172  1  1.00007101  0.14940180  0.24279005  1
  O  O173  1  0.98919823  0.12399663  0.75458172  1
  O  O174  1  0.98614500  0.64362812  0.25898020  1
  O  O175  1  0.97978991  0.61362724  0.74923441  1
  O  O176  1  0.38390573  0.25764766  -0.01410245  1
  O  O177  1  0.41892819  0.30206839  0.53709474  1
  O  O178  1  0.35787838  0.77998181  -0.01805952  1
  O  O179  1  0.37778144  0.75371763  0.50982656  1
  O  O180  1  0.88386827  0.27898891  -0.03784154  1
  O  O181  1  0.86765326  0.21788226  0.49618346  1
  O  O182  1  0.86110495  0.73933261  -0.00131357  1
  O  O183  1  0.86803432  0.75202287  0.50074259  1
  O  O184  1  0.12156987  0.23985359  0.47570869  1
  O  O185  1  0.13754666  0.26098803  1.00107433  1
  O  O186  1  0.12613628  0.74603675  0.48983375  1
  O  O187  1  0.08749072  0.79234315  0.92858590  1
  O  O188  1  0.64533589  0.22278305  0.49895185  1
  O  O189  1  0.61133332  0.23006599  0.98362169  1
  O  O190  1  0.63066657  0.76665332  0.48462975  1
  O  O191  1  0.62422255  0.73594036  0.99622548  1
  O  O192  1  0.55371574  0.25836843  0.15130327  1
  O  O193  1  0.52307152  0.22458716  0.63398381  1
  O  O194  1  0.51905217  0.74828970  0.15137765  1
  O  O195  1  0.47507459  0.76412573  0.64053538  1
  O  O196  1  1.00456714  0.25136991  0.13581043  1
  O  O197  1  1.04641130  0.29936227  0.67462390  1
  O  O198  1  1.02659379  0.73968835  0.09349821  1
  O  O199  1  0.98368244  0.75025310  0.62935938  1
  O  O200  1  0.01002308  0.26590626  0.35350903  1
  O  O201  1  -0.04964327  0.18641070  0.79524520  1
  O  O202  1  -0.00136010  0.75909659  0.37598157  1
  O  O203  1  0.02123615  0.75317552  0.90371879  1
  O  O204  1  0.47129197  0.27687225  0.38336390  1
  O  O205  1  0.51493787  0.24269707  0.85470830  1
  O  O206  1  0.52073437  0.75802195  0.36357099  1
  O  O207  1  0.50701087  0.75164364  0.87522066  1
  O  O208  1  0.23298798  0.11830539  0.48910793  1
  O  O209  1  0.24831967  0.12547535  0.98057519  1
  O  O210  1  0.24848258  0.64294014  0.49734420  1
  O  O211  1  0.24101976  0.57141322  1.01154552  1
  O  O212  1  0.74913571  0.12288759  0.48024548  1
  O  O213  1  0.73318202  0.11654252  0.99044963  1
  O  O214  1  0.73928124  0.65546300  0.50953348  1
  O  O215  1  0.74099518  0.63123526  0.99193290  1
  O  O216  1  0.26962656  0.35631064  0.00582559  1
  O  O217  1  0.26589528  0.37801396  0.52421900  1
  O  O218  1  0.22398141  0.85965301  0.04782859  1
  O  O219  1  0.23663179  0.86431770  0.50143465  1
  O  O220  1  0.71111966  0.36681736  0.03605324  1
  O  O221  1  0.75872613  0.33873195  0.46556719  1
  O  O222  1  0.74000765  0.85451051  0.00405849  1
  O  O223  1  0.75212697  0.86663390  0.52288078  1
  O  O224  1  0.12055121  0.54371798  0.20389733  1
  O  O225  1  0.09232341  0.45222591  0.75953952  1
  O  O226  1  0.14587707  0.99189002  0.27476425  1
  O  O227  1  0.14778580  1.04346844  0.72412199  1
  O  O228  1  0.64313334  0.52603814  0.25335579  1
  O  O229  1  0.58594833  0.50707342  0.72006420  1
  O  O230  1  0.63361799  0.98826582  0.24118040  1
  O  O231  1  0.61944172  0.98696460  0.73991017  1
  O  O232  1  0.36852986  0.00625760  0.24851138  1
  O  O233  1  0.35960642  0.01691768  0.73213335  1
  O  O234  1  0.28327041  0.46719823  0.21738635  1
  O  O235  1  0.38754677  0.52469032  0.75302676  1
  O  O236  1  0.86182007  -0.00385697  0.24572177  1
  O  O237  1  0.87082547  -0.00100717  0.76788767  1
  O  O238  1  0.87262191  0.52008323  0.26450903  1
  O  O239  1  0.86539779  0.50481587  0.75546969  1
  O  O240  1  0.12036710  0.37146275  0.39027564  1
  O  O241  1  0.12453832  0.40439900  0.80555535  1
  O  O242  1  0.12707536  0.93012812  0.32699983  1
  O  O243  1  0.11338574  0.84558849  0.87959106  1
  O  O244  1  0.59029433  0.37971917  0.41849974  1
  O  O245  1  0.63694923  0.35215738  0.88049895  1
  O  O246  1  0.63666930  0.87722183  0.36065534  1
  O  O247  1  0.63313134  0.86387798  0.86628502  1
  O  O248  1  0.38892317  0.12105511  0.13758800  1
  O  O249  1  0.39512578  0.12311153  0.60274965  1
  O  O250  1  0.37738062  0.68321892  0.10030472  1
  O  O251  1  0.36335101  0.65377765  0.64461415  1
  O  O252  1  0.89591262  0.13648006  0.09761606  1
  O  O253  1  0.86106350  0.10160972  0.64090021  1
  O  O254  1  0.87437346  0.62083595  0.13663190  1
  O  O255  1  0.87657465  0.63725766  0.64255836  1
  O  O256  1  0.25807183  0.22626899  0.09971318  1
  O  O257  1  0.22209669  0.27101511  0.65500013  1
  O  O258  1  0.24073509  0.73320042  0.14031825  1
  O  O259  1  0.24957432  0.76028851  0.60485899  1
  O  O260  1  0.76923722  0.24210355  0.11513402  1
  O  O261  1  0.75362723  0.24159539  0.60750169  1
  O  O262  1  0.74037365  0.75263173  0.10911346  1
  O  O263  1  0.77100735  0.75647719  0.62432988  1
  O  O264  1  0.24893573  0.27632691  0.37904972  1
  O  O265  1  0.24791684  0.23395420  0.88288827  1
  O  O266  1  0.25125376  0.73685274  0.38158992  1
  O  O267  1  0.23720023  0.70458574  0.91592589  1
  O  O268  1  0.75176600  0.22861124  0.36205901  1
  O  O269  1  0.73685959  0.22783305  0.86456951  1
  O  O270  1  0.74656503  0.76743649  0.38998258  1
  O  O271  1  0.73642117  0.73993108  0.88897210  1
  O  O272  1  0.02382819  0.12117517  0.01721286  1
  O  O273  1  0.01500008  0.11639428  0.47103855  1
  O  O274  1  0.00340971  0.59199941  -0.00198979  1
  O  O275  1  -0.00694594  0.63494284  0.52166007  1
  O  O276  1  0.51209118  0.10552349  -0.00433962  1
  O  O277  1  0.52101115  0.12463923  0.50150453  1
  O  O278  1  0.50695836  0.63264272  -0.00756272  1
  O  O279  1  0.51846645  0.64096796  0.49327978  1
  O  O280  1  0.47580408  0.35000037  0.54003394  1
  O  O281  1  0.50456248  0.37426022  1.00366077  1
  O  O282  1  0.49266649  0.87617764  0.51797024  1
  O  O283  1  0.50594396  0.88309019  1.00063270  1
  O  O284  1  0.98449156  0.36949496  0.47708139  1
  O  O285  1  0.99787410  0.38250907  1.00277825  1
  O  O286  1  1.01600753  0.89475263  0.49064945  1
  O  O287  1  0.99860301  0.90368991  1.02847502  1
  O  O288  1  0.49300444  0.50007150  0.38301362  1
  O  O289  1  0.48115443  0.50640540  0.88415442  1
  O  O290  1  0.50420095  0.90331655  0.45050415  1
  O  O291  1  0.49850938  0.99133755  0.88144732  1
  O  O292  1  1.01387215  0.48667064  0.36212851  1
  O  O293  1  0.99995251  0.48480252  0.89593609  1
  O  O294  1  0.98558495  1.00619313  0.33488490  1
  O  O295  1  0.97489775  1.01306899  0.91558810  1
  O  O296  1  0.01169468  0.02030417  0.12812304  1
  O  O297  1  -0.00384042  0.00023943  0.60847573  1
  O  O298  1  -0.00770272  0.48843354  0.10670496  1
  O  O299  1  -0.01765045  0.50996138  0.61698926  1
  O  O300  1  0.51404205  -0.00902426  0.12474508  1
  O  O301  1  0.50912258  0.00791431  0.62432642  1
  O  O302  1  0.46906768  0.51071404  0.08499132  1
  O  O303  1  0.53750855  0.50276845  0.66037451  1
  O  O304  1  0.24995581  0.40049244  0.22012862  1
  O  O305  1  0.22989023  0.31601911  0.71327689  1
  O  O306  1  0.26186619  0.88312498  0.25032563  1
  O  O307  1  0.23482156  0.90153107  0.73522534  1
  O  O308  1  0.73425483  0.35795429  0.22316883  1
  O  O309  1  0.75084864  0.36795707  0.74207658  1
  O  O310  1  0.74348424  0.87929176  0.24028250  1
  O  O311  1  0.73453756  0.85892649  0.74308465  1
  O  O312  1  0.26773419  0.11382983  0.26339635  1
  O  O313  1  0.27040921  0.13231785  0.76717834  1
  O  O314  1  0.27105285  0.63126852  0.26679068  1
  O  O315  1  0.25750299  0.62263958  0.75131210  1
  O  O316  1  0.73148715  0.10751084  0.25861432  1
  O  O317  1  0.74758691  0.11632982  0.75873241  1
  O  O318  1  0.76281557  0.64439433  0.24603187  1
  O  O319  1  0.75244984  0.62898315  0.76481837  1
  O  O320  1  0.35387221  0.14485956  0.39580500  1
  O  O321  1  0.38912016  0.11390533  0.86762238  1
  O  O322  1  0.37473351  0.61316522  0.39238801  1
  O  O323  1  0.35922770  0.61779629  0.87174278  1
  O  O324  1  0.86349812  0.11542217  0.36306589  1
  O  O325  1  0.85580049  0.11914463  0.89586593  1
  O  O326  1  0.86248307  0.61750855  0.37074370  1
  O  O327  1  0.85659018  0.62119740  0.86664349  1
  O  O328  1  0.14164381  0.39957984  0.11640909  1
  O  O329  1  0.12199593  0.43014534  0.58120708  1
  O  O330  1  0.16353553  0.86341288  0.09291767  1
  O  O331  1  0.13026858  0.86650444  0.62080460  1
  O  O332  1  0.59510365  0.42615932  0.13215159  1
  O  O333  1  0.66263819  0.38300350  0.58894205  1
  O  O334  1  0.63505233  0.87872323  0.13475310  1
  O  O335  1  0.63271573  0.87602862  0.63475502  1
  O  O336  1  0.14333099  0.26518714  0.25998076  1
  O  O337  1  0.08314500  0.26243383  0.73990995  1
  O  O338  1  0.10683952  0.74269822  0.25619116  1
  O  O339  1  0.17850353  0.76458572  0.76401263  1
  O  O340  1  0.59964108  0.24112234  0.21080261  1
  O  O341  1  0.61758789  0.24069471  0.75696380  1
  O  O342  1  0.63266342  0.76239942  0.26289364  1
  O  O343  1  0.61049788  0.75576532  0.76027224  1
  O  O344  1  0.36721636  0.22967458  0.24963395  1
  O  O345  1  0.39355835  0.22802731  0.74857025  1
  O  O346  1  0.39198775  0.75407407  0.26352047  1
  O  O347  1  0.37019778  0.74444268  0.77021598  1
  O  O348  1  0.87867194  0.25783844  0.25494468  1
  O  O349  1  0.90269058  0.22793078  0.74848620  1
  O  O350  1  0.88647753  0.74127368  0.25123955  1
  O  O351  1  0.87820158  0.74472454  0.75518369  1
  O  O352  1  0.39619480  0.50826773  0.51831085  1
  O  O353  1  0.38342999  0.45192160  0.97022862  1
  O  O354  1  0.37895130  0.97902419  0.50123929  1
  O  O355  1  0.39043262  0.99975805  1.00660072  1
  O  O356  1  0.86423005  0.51218677  0.48333975  1
  O  O357  1  0.89252619  0.49442745  1.00043672  1
  O  O358  1  0.90111466  1.00912247  0.47487804  1
  O  O359  1  0.85008418  0.98466978  0.99863034  1
  O  O360  1  0.12499627  -0.01145290  -0.01497148  1
  O  O361  1  0.11585928  0.01650725  0.48893176  1
  O  O362  1  0.10324092  0.48657022  0.00622447  1
  O  O363  1  0.14463712  0.48688606  0.53386134  1
  O  O364  1  0.61586781  0.00162564  0.00271523  1
  O  O365  1  0.64136093  0.00436453  0.51393831  1
  O  O366  1  0.60390290  0.51147231  -0.01383712  1
  O  O367  1  0.63694850  0.53223446  0.50977455  1
  O  O368  1  0.39347465  0.35940173  0.12045959  1
  O  O369  1  0.33738285  0.39075157  0.63738146  1
  O  O370  1  0.37750073  0.85135668  0.12814240  1
  O  O371  1  0.35244749  0.86176672  0.63646955  1
  O  O372  1  0.86618076  0.37367985  0.12698288  1
  O  O373  1  0.83807911  0.38191731  0.60471731  1
  O  O374  1  0.85650926  0.87071651  0.12310793  1
  O  O375  1  0.87343389  0.86604269  0.64944766  1
  O  O376  1  0.15052874  0.14617059  0.36762042  1
  O  O377  1  0.12377876  0.12580030  0.86218283  1
  O  O378  1  0.15565918  0.59413480  0.36995683  1
  O  O379  1  0.14446781  0.58819551  0.87157178  1
  O  O380  1  0.63431314  0.10477500  0.38611110  1
  O  O381  1  0.63103018  0.12030409  0.88257504  1
  O  O382  1  0.63473312  0.64702418  0.38832814  1
  O  O383  1  0.62737743  0.63332894  0.88261500  1
