# generated using pymatgen
data_VZnO4
_symmetry_space_group_name_H-M   'P 1'
_cell_length_a   17.01712858
_cell_length_b   17.17985436
_cell_length_c   17.05231614
_cell_angle_alpha   89.88658341
_cell_angle_beta   89.43825184
_cell_angle_gamma   91.40125698
_symmetry_Int_Tables_number   1
_chemical_formula_structural   VZnO4
_chemical_formula_sum   'V64 Zn64 O256'
_cell_volume   4983.53251794
_cell_formula_units_Z   64
loop_
 _symmetry_equiv_pos_site_id
 _symmetry_equiv_pos_as_xyz
  1  'x, y, z'
loop_
 _atom_site_type_symbol
 _atom_site_label
 _atom_site_symmetry_multiplicity
 _atom_site_fract_x
 _atom_site_fract_y
 _atom_site_fract_z
 _atom_site_occupancy
  V  V0  1  0.22634641  0.86884118  0.13865717  1
  V  V1  1  0.61613799  0.39499548  0.24164320  1
  V  V2  1  0.36984700  0.49634194  0.88341274  1
  V  V3  1  0.60469206  0.87154307  0.23657781  1
  V  V4  1  0.27624897  0.49072136  0.67563120  1
  V  V5  1  0.27879533  0.37395613  0.11598047  1
  V  V6  1  0.00160000  0.64735064  0.12856782  1
  V  V7  1  0.37381935  0.74277518  0.64378577  1
  V  V8  1  0.62247115  0.86918432  0.74584810  1
  V  V9  1  0.50066928  0.86071745  0.38544088  1
  V  V10  1  0.12018851  0.73715186  0.87062136  1
  V  V11  1  0.13754302  0.25465809  0.86196328  1
  V  V12  1  0.36409507  0.87284913  0.51272595  1
  V  V13  1  0.86338052  0.51465094  0.87896476  1
  V  V14  1  0.25279023  0.25452291  0.50295505  1
  V  V15  1  0.77501243  0.11136696  0.36595556  1
  V  V16  1  0.44921189  0.69779404  0.18221541  1
  V  V17  1  0.50205487  0.00128543  0.50460066  1
  V  V18  1  0.36610452  0.00266237  0.87878807  1
  V  V19  1  0.13719805  0.01894367  0.64450769  1
  V  V20  1  0.00995243  0.40738961  0.86788092  1
  V  V21  1  0.87035121  0.26270354  0.61703997  1
  V  V22  1  0.21349783  0.61621793  0.38999763  1
  V  V23  1  0.00575249  0.27092163  0.74114369  1
  V  V24  1  0.25015534  0.12196538  0.39186813  1
  V  V25  1  0.09449176  0.88759334  0.76913341  1
  V  V26  1  0.25083825  0.88258763  0.65084806  1
  V  V27  1  0.52351436  0.62943430  0.63015982  1
  V  V28  1  0.37458610  0.21902130  0.10868755  1
  V  V29  1  0.74756203  -0.00280441  0.24300644  1
  V  V30  1  0.87975434  0.75260641  0.61471060  1
  V  V31  1  0.64005715  0.46866473  0.61132456  1
  V  V32  1  0.63650676  -0.00177364  0.62788216  1
  V  V33  1  0.50054901  0.35159610  0.39189727  1
  V  V34  1  0.37748891  0.11269058  0.25754509  1
  V  V35  1  0.74963300  0.87010934  0.12216058  1
  V  V36  1  0.52174105  0.23164994  0.24906867  1
  V  V37  1  -0.01561168  0.12455979  0.64593692  1
  V  V38  1  0.69720946  0.72220485  0.49931481  1
  V  V39  1  0.63426386  0.12804991  0.48596255  1
  V  V40  1  0.51929842  -0.00862723  -0.00081392  1
  V  V41  1  0.13496712  0.33024350  0.21749536  1
  V  V42  1  0.73755419  0.37146982  0.11216148  1
  V  V43  1  0.38769578  0.25363589  0.62012580  1
  V  V44  1  0.86775874  0.89215499  0.51022579  1
  V  V45  1  0.49976708  0.36435743  0.86984845  1
  V  V46  1  0.37518326  -0.00440780  0.38199128  1
  V  V47  1  0.42526855  0.51231981  0.36081027  1
  V  V48  1  0.88600635  0.36428422  -0.00236357  1
  V  V49  1  0.00713537  0.89195190  0.37513779  1
  V  V50  1  0.48974930  0.86558500  0.87698511  1
  V  V51  1  0.74277720  0.73005408  0.00694136  1
  V  V52  1  0.74846421  0.01003360  0.77860035  1
  V  V53  1  0.52690035  0.49698398  -0.00087468  1
  V  V54  1  0.00469656  0.01074025  0.51265455  1
  V  V55  1  0.74384123  0.61061206  0.36472611  1
  V  V56  1  0.74503719  0.51967604  0.75539241  1
  V  V57  1  0.13516236  0.78051681  0.40672283  1
  V  V58  1  0.35951565  0.12686700  0.75783850  1
  V  V59  1  0.62922541  0.73960730  0.87514165  1
  V  V60  1  0.51913937  0.10024220  0.12590597  1
  V  V61  1  0.50823783  0.12249967  0.64184278  1
  V  V62  1  0.86465974  0.88483679  -0.02253953  1
  V  V63  1  0.63572638  0.35157632  0.76165210  1
  Zn  Zn64  1  0.20187965  0.16999780  0.19935445  1
  Zn  Zn65  1  0.19471807  0.20713534  0.68734737  1
  Zn  Zn66  1  0.17021239  0.68243697  0.22552357  1
  Zn  Zn67  1  0.18361206  0.70573969  0.69961350  1
  Zn  Zn68  1  0.70491236  0.17900970  0.16914544  1
  Zn  Zn69  1  0.69377705  0.18237152  0.68814348  1
  Zn  Zn70  1  0.65595982  0.69902085  0.18963579  1
  Zn  Zn71  1  0.71319563  0.70600938  0.68767360  1
  Zn  Zn72  1  0.32023974  0.29700224  0.30602913  1
  Zn  Zn73  1  0.32160315  0.33159101  0.77507502  1
  Zn  Zn74  1  0.32242764  0.74778443  0.33152486  1
  Zn  Zn75  1  0.31168809  0.80887356  0.81629781  1
  Zn  Zn76  1  0.77476409  0.29316362  0.27333232  1
  Zn  Zn77  1  0.82659296  0.31971683  0.80594225  1
  Zn  Zn78  1  0.74759901  0.77329133  0.30251264  1
  Zn  Zn79  1  0.81084559  0.81926530  0.79436348  1
  Zn  Zn80  1  0.24832881  0.45888772  0.46707312  1
  Zn  Zn81  1  0.22422933  0.37900203  0.92369221  1
  Zn  Zn82  1  0.18654866  0.95126923  0.45905926  1
  Zn  Zn83  1  0.20561801  0.88952389  0.92734975  1
  Zn  Zn84  1  0.62997757  0.48890033  0.40498568  1
  Zn  Zn85  1  0.69237979  0.42362551  0.93423406  1
  Zn  Zn86  1  0.68490700  0.94184777  0.43565737  1
  Zn  Zn87  1  0.68135285  0.91564823  0.93012435  1
  Zn  Zn88  1  0.32699762  0.04122867  0.06669326  1
  Zn  Zn89  1  0.31818639  0.06440800  0.57116168  1
  Zn  Zn90  1  0.38874180  0.54254086  0.08596846  1
  Zn  Zn91  1  0.35750346  0.58665376  0.52628657  1
  Zn  Zn92  1  0.74171041  0.03027532  0.02269224  1
  Zn  Zn93  1  0.81463381  0.07437819  0.56069019  1
  Zn  Zn94  1  0.81643549  0.54929655  0.06801841  1
  Zn  Zn95  1  0.79847381  0.57284178  0.55910311  1
  Zn  Zn96  1  0.43659771  0.41585799  0.18317579  1
  Zn  Zn97  1  0.46278129  0.43909812  0.68323754  1
  Zn  Zn98  1  0.43131863  0.92560677  0.19397746  1
  Zn  Zn99  1  0.44030066  0.94435691  0.69919339  1
  Zn  Zn100  1  0.95760172  0.40491336  0.18947162  1
  Zn  Zn101  1  0.91894573  0.43722701  0.69459306  1
  Zn  Zn102  1  0.89355626  0.87517244  0.24183419  1
  Zn  Zn103  1  0.92191933  0.94376974  0.69277310  1
  Zn  Zn104  1  0.04023238  0.11672707  0.35392609  1
  Zn  Zn105  1  0.06317433  0.07722492  0.82464373  1
  Zn  Zn106  1  0.09727966  0.49527007  0.29942977  1
  Zn  Zn107  1  0.16864175  0.53407844  0.84887824  1
  Zn  Zn108  1  0.56636376  0.04820746  0.31520419  1
  Zn  Zn109  1  0.57752349  0.06087281  0.82119224  1
  Zn  Zn110  1  0.56416974  0.59204727  0.28218415  1
  Zn  Zn111  1  0.56092455  0.54651735  0.80087325  1
  Zn  Zn112  1  0.44624787  0.18339424  0.43996645  1
  Zn  Zn113  1  0.46881113  0.16924017  0.92581071  1
  Zn  Zn114  1  0.52843380  0.65810603  0.43935333  1
  Zn  Zn115  1  0.47123512  0.65198129  0.90459126  1
  Zn  Zn116  1  0.89338043  0.23543408  0.40467699  1
  Zn  Zn117  1  0.95169964  0.19406933  0.91885236  1
  Zn  Zn118  1  0.89743556  0.74205600  0.39251846  1
  Zn  Zn119  1  0.92674593  0.70031113  0.93287090  1
  Zn  Zn120  1  0.07911552  0.34513936  0.04752375  1
  Zn  Zn121  1  0.04276361  0.22485314  0.49901818  1
  Zn  Zn122  1  0.04407728  0.82170530  0.04251528  1
  Zn  Zn123  1  0.05808620  0.82902495  0.58212962  1
  Zn  Zn124  1  0.53251155  0.31879270  0.07299109  1
  Zn  Zn125  1  0.58075631  0.29625093  0.56960022  1
  Zn  Zn126  1  0.55036108  0.79887432  0.05031289  1
  Zn  Zn127  1  0.54776945  0.81254018  0.57196476  1
  O  O128  1  0.11545894  0.07288972  0.19354998  1
  O  O129  1  0.13208516  0.11772068  0.64595866  1
  O  O130  1  0.10502544  0.67172001  0.12212065  1
  O  O131  1  0.07320294  0.64350537  0.66486333  1
  O  O132  1  0.61722601  0.10647392  0.13576109  1
  O  O133  1  0.61882039  0.11553641  0.61811908  1
  O  O134  1  0.54792533  0.65905688  0.19398858  1
  O  O135  1  0.62244107  0.64492442  0.62965744  1
  O  O136  1  0.40238756  0.35272878  0.36707577  1
  O  O137  1  0.39405357  0.39567986  0.84287627  1
  O  O138  1  0.38202662  0.88266244  0.40077600  1
  O  O139  1  0.38803440  0.88903171  0.86592426  1
  O  O140  1  0.84945979  0.39044132  0.42784349  1
  O  O141  1  0.88329377  0.38449508  0.88065155  1
  O  O142  1  0.90506440  0.89935739  0.40571421  1
  O  O143  1  0.85836219  0.87113459  0.87809279  1
  O  O144  1  0.26860929  0.00878338  0.39437778  1
  O  O145  1  0.26966252  -0.01708885  0.88851335  1
  O  O146  1  0.18215411  0.51546592  0.39302651  1
  O  O147  1  0.26560825  0.47911384  0.87318501  1
  O  O148  1  0.73457484  0.00648919  0.35386987  1
  O  O149  1  0.72941852  0.00672453  0.87996665  1
  O  O150  1  0.74227569  0.51255122  0.35779324  1
  O  O151  1  0.75353453  0.49821260  0.86560922  1
  O  O152  1  0.31328098  0.46486397  0.13626483  1
  O  O153  1  0.27568569  0.50234393  0.57296792  1
  O  O154  1  0.24676555  0.97133138  0.11967747  1
  O  O155  1  0.24119643  1.00059493  0.63416208  1
  O  O156  1  0.76258507  0.46768657  0.12610641  1
  O  O157  1  0.73753482  0.51058534  0.63915149  1
  O  O158  1  0.73415168  0.97829660  0.12897298  1
  O  O159  1  0.73573785  1.00995009  0.62388140  1
  O  O160  1  0.04249766  0.33861769  0.15780445  1
  O  O161  1  0.00082150  0.37870413  0.75303411  1
  O  O162  1  -0.00138938  0.90486281  0.27682358  1
  O  O163  1  -0.00279500  0.88366731  0.75435228  1
  O  O164  1  0.51595615  0.33948283  0.22635001  1
  O  O165  1  0.52520855  0.38194715  0.76079087  1
  O  O166  1  0.50087625  0.87747892  0.27216854  1
  O  O167  1  0.51206120  0.88252770  0.76689633  1
  O  O168  1  0.50130630  0.11719025  0.24549879  1
  O  O169  1  0.51028386  0.11927692  0.73977698  1
  O  O170  1  0.38563623  0.62383294  0.15812817  1
  O  O171  1  0.49713715  0.60421914  0.72361170  1
  O  O172  1  1.00237929  0.20949839  0.39505805  1
  O  O173  1  1.00681188  0.14803679  0.74538712  1
  O  O174  1  0.99048944  0.65823657  0.22838297  1
  O  O175  1  1.02418892  0.62735892  0.71734843  1
  O  O176  1  0.39607469  0.20907555  0.01306694  1
  O  O177  1  0.37940490  0.23377074  0.51636944  1
  O  O178  1  0.31858448  0.69034304  -0.04573065  1
  O  O179  1  0.37050136  0.77571651  0.52711751  1
  O  O180  1  0.89825973  0.26591832  -0.01250948  1
  O  O181  1  0.88785123  0.24285710  0.51907436  1
  O  O182  1  0.84379067  0.76037164  -0.01031984  1
  O  O183  1  0.87946523  0.78391559  0.50464266  1
  O  O184  1  0.15402176  0.24222011  0.51423884  1
  O  O185  1  0.13175139  0.29481505  0.95873739  1
  O  O186  1  0.12602207  0.78089185  0.50670557  1
  O  O187  1  0.11259707  0.77019487  0.97307354  1
  O  O188  1  0.63895374  0.22406495  0.50533696  1
  O  O189  1  0.69446037  0.18648671  0.99047757  1
  O  O190  1  0.59503942  0.73682536  0.50230596  1
  O  O191  1  0.62657194  0.74480757  0.98414372  1
  O  O192  1  0.50066191  0.21707662  0.13071584  1
  O  O193  1  0.49964960  0.22522355  0.62023868  1
  O  O194  1  0.45878359  0.75966860  0.10333844  1
  O  O195  1  0.48375659  0.73602026  0.63239615  1
  O  O196  1  1.03085651  0.18507235  0.09170768  1
  O  O197  1  0.99896632  0.24240182  0.63246939  1
  O  O198  1  0.98761544  0.75315915  0.11922942  1
  O  O199  1  0.97767042  0.76370819  0.63291068  1
  O  O200  1  -0.06581841  0.32726391  0.32940090  1
  O  O201  1  0.01943941  0.27434955  0.85513766  1
  O  O202  1  0.01114473  0.78772490  0.38868623  1
  O  O203  1  0.01605117  0.73431662  0.87333711  1
  O  O204  1  0.50788126  0.24316178  0.35593840  1
  O  O205  1  0.47556924  0.27009588  0.86980070  1
  O  O206  1  0.48579455  0.76549559  0.39668116  1
  O  O207  1  0.48644683  0.76486139  0.88748737  1
  O  O208  1  0.26173353  0.12666691  0.49559789  1
  O  O209  1  0.22529902  0.08997568  1.01593361  1
  O  O210  1  0.27438540  0.63999020  0.46458320  1
  O  O211  1  0.20673559  0.54804330  1.04419893  1
  O  O212  1  0.74470873  0.10873749  0.47651128  1
  O  O213  1  0.73834365  0.14744247  1.03665696  1
  O  O214  1  0.72483578  0.62314916  0.48484366  1
  O  O215  1  0.75315458  0.63422141  1.02366780  1
  O  O216  1  0.28324961  0.36071721  0.01680823  1
  O  O217  1  0.26411271  0.35098487  0.48583335  1
  O  O218  1  0.24081878  0.85822380  0.03296482  1
  O  O219  1  0.26351812  0.89347015  0.52374601  1
  O  O220  1  0.76161735  0.36177465  0.00793775  1
  O  O221  1  0.82087754  0.42864144  0.48450621  1
  O  O222  1  0.74218487  0.86185900  0.01076104  1
  O  O223  1  0.77142720  0.90803415  0.49516730  1
  O  O224  1  0.14870565  0.57448567  0.23860718  1
  O  O225  1  0.18374364  0.53246020  0.72907717  1
  O  O226  1  0.05847791  1.06246281  0.24180558  1
  O  O227  1  0.11381642  0.99949021  0.75152665  1
  O  O228  1  0.59439064  0.48959210  0.23503962  1
  O  O229  1  0.64217538  0.48369382  0.75032497  1
  O  O230  1  0.62701747  0.97612771  0.25366078  1
  O  O231  1  0.62833089  0.99151662  0.74568264  1
  O  O232  1  0.38752652  0.00341198  0.26851890  1
  O  O233  1  0.38253133  0.01611997  0.76591709  1
  O  O234  1  0.40525251  0.47936370  0.26935596  1
  O  O235  1  0.37175621  0.50205144  0.70609368  1
  O  O236  1  0.84356370  -0.02260523  0.24687981  1
  O  O237  1  0.84520863  -0.00487519  0.75645080  1
  O  O238  1  0.99161347  0.48710502  0.25555355  1
  O  O239  1  0.85249588  0.50119112  0.75678093  1
  O  O240  1  0.11571236  0.38386418  0.29813582  1
  O  O241  1  0.10977292  0.43133249  0.86782296  1
  O  O242  1  0.11634383  0.89125418  0.39301083  1
  O  O243  1  0.10758210  0.89943673  0.86815414  1
  O  O244  1  0.60345209  0.37535631  0.34657617  1
  O  O245  1  0.61797883  0.36094907  0.86859942  1
  O  O246  1  0.60010885  0.87839680  0.39347887  1
  O  O247  1  0.60972083  0.85415042  0.86759736  1
  O  O248  1  0.38815712  0.10633701  0.14252595  1
  O  O249  1  0.39280462  0.11869636  0.64218478  1
  O  O250  1  0.31742997  0.66923738  0.02365986  1
  O  O251  1  0.34907441  0.65028624  0.62760757  1
  O  O252  1  0.92185421  0.09471708  0.16351668  1
  O  O253  1  0.88380968  0.13029058  0.63784259  1
  O  O254  1  0.90037493  0.61287093  0.12592673  1
  O  O255  1  0.86767265  0.65450681  0.59481365  1
  O  O256  1  0.27356824  0.20302212  0.11645625  1
  O  O257  1  0.27515099  0.24509893  0.61427020  1
  O  O258  1  0.22772412  0.76712302  0.15307012  1
  O  O259  1  0.25549210  0.77730713  0.64085091  1
  O  O260  1  0.76750903  0.27558696  0.15536930  1
  O  O261  1  0.77250209  0.24001333  0.63109918  1
  O  O262  1  0.72292776  0.75723106  0.11364487  1
  O  O263  1  0.73773201  0.75915071  0.58388372  1
  O  O264  1  0.27131968  0.22874542  0.39038750  1
  O  O265  1  0.23408907  0.29497075  0.84285503  1
  O  O266  1  0.23506613  0.79177601  0.38641802  1
  O  O267  1  0.22527890  0.78724090  0.88117080  1
  O  O268  1  0.78735505  0.21933607  0.35468574  1
  O  O269  1  0.77899267  0.21590477  0.86658746  1
  O  O270  1  0.73091836  0.76850248  0.41698591  1
  O  O271  1  0.73047373  0.73682278  0.88305987  1
  O  O272  1  0.04302364  0.12855931  0.04900581  1
  O  O273  1  0.01295419  0.11835310  0.53820350  1
  O  O274  1  -0.01366850  0.65147495  0.02241781  1
  O  O275  1  -0.00092874  0.57843043  0.45666918  1
  O  O276  1  0.50911056  0.10073004  0.02091023  1
  O  O277  1  0.51508318  0.11350121  0.50429285  1
  O  O278  1  0.50322560  0.59602922  -0.00106587  1
  O  O279  1  0.47453349  0.60959034  0.53452201  1
  O  O280  1  0.51243448  0.33393670  0.48746067  1
  O  O281  1  0.50767344  0.37616359  0.97974278  1
  O  O282  1  0.48787088  0.88635048  0.50564776  1
  O  O283  1  0.50176761  0.88343301  0.98781643  1
  O  O284  1  1.02454473  0.36271391  0.50184184  1
  O  O285  1  0.99660683  0.39104486  0.97603243  1
  O  O286  1  0.99843620  0.90484452  0.52119903  1
  O  O287  1  0.96179713  0.87917122  1.00220727  1
  O  O288  1  0.50822821  0.46442235  0.40128930  1
  O  O289  1  0.50368070  0.48713452  0.88642794  1
  O  O290  1  0.49260682  0.99193446  0.39080399  1
  O  O291  1  0.50550479  0.98725977  0.88878529  1
  O  O292  1  1.00524717  0.51446626  0.42561193  1
  O  O293  1  0.97513839  0.50056001  0.85650409  1
  O  O294  1  1.01859806  1.01365018  0.41034434  1
  O  O295  1  0.98987015  1.09527354  0.90601442  1
  O  O296  1  -0.06620647  0.04131263  0.11733927  1
  O  O297  1  0.00381067  0.01861048  0.64349232  1
  O  O298  1  0.03461272  0.55302005  0.12585999  1
  O  O299  1  -0.00776221  0.50349645  0.61172893  1
  O  O300  1  0.49252809  -0.00800447  0.11572443  1
  O  O301  1  0.50889269  0.00859742  0.62206903  1
  O  O302  1  0.48827727  0.47354575  0.09640801  1
  O  O303  1  0.54431105  0.50407642  0.62361105  1
  O  O304  1  0.25107321  0.33026891  0.22299192  1
  O  O305  1  0.25768431  0.39575340  0.70130826  1
  O  O306  1  0.19475759  0.88977037  0.23270215  1
  O  O307  1  0.26106317  0.89293153  0.74754516  1
  O  O308  1  0.71763103  0.38499257  0.24466459  1
  O  O309  1  0.73835158  0.37110258  0.76244490  1
  O  O310  1  0.72755123  0.87679482  0.23093719  1
  O  O311  1  0.72502141  0.89291627  0.76255313  1
  O  O312  1  0.27347701  0.11692611  0.27042022  1
  O  O313  1  0.26255221  0.12725693  0.74928817  1
  O  O314  1  0.25956691  0.65363930  0.30166613  1
  O  O315  1  0.23195911  0.60023665  0.70702412  1
  O  O316  1  0.74956201  0.10440420  0.24773778  1
  O  O317  1  0.73276002  0.10566710  0.75732757  1
  O  O318  1  0.72687698  0.65531675  0.27024844  1
  O  O319  1  0.73654462  0.61590681  0.75742846  1
  O  O320  1  0.38362535  0.11210085  0.37071839  1
  O  O321  1  0.37755928  0.11632837  0.86472537  1
  O  O322  1  0.46121464  0.60765673  0.35053967  1
  O  O323  1  0.38988580  0.59023309  0.85306562  1
  O  O324  1  0.86816330  0.09285895  0.37084973  1
  O  O325  1  0.82784689  0.16316691  0.87967520  1
  O  O326  1  0.83989322  0.63993761  0.38218201  1
  O  O327  1  0.87175790  0.61230946  0.88435210  1
  O  O328  1  0.17138489  0.37810055  0.11822060  1
  O  O329  1  0.06555558  0.49963184  0.60953462  1
  O  O330  1  0.12480369  0.87268811  0.11102934  1
  O  O331  1  0.13721699  0.88903860  0.65344701  1
  O  O332  1  0.63124598  0.36279031  0.12250396  1
  O  O333  1  0.62998181  0.36889771  0.64038979  1
  O  O334  1  0.60255619  0.85940889  0.13669466  1
  O  O335  1  0.61221295  0.88237451  0.64044442  1
  O  O336  1  0.12253658  0.23209376  0.24126879  1
  O  O337  1  0.11638035  0.26437873  0.74645704  1
  O  O338  1  0.11895830  0.76300279  0.27998997  1
  O  O339  1  0.12361963  0.77968885  0.76560873  1
  O  O340  1  0.62039613  0.22877286  0.24223942  1
  O  O341  1  0.62852586  0.25448105  0.74663106  1
  O  O342  1  0.62889644  0.78065427  0.27430003  1
  O  O343  1  0.63428701  0.76603727  0.75614379  1
  O  O344  1  0.39449456  0.21845532  0.24515542  1
  O  O345  1  0.37620380  0.23375933  0.73444430  1
  O  O346  1  0.40384672  0.74864425  0.25731881  1
  O  O347  1  0.37238921  0.75416504  0.74359370  1
  O  O348  1  0.88648328  0.34824173  0.27313197  1
  O  O349  1  0.89798246  0.25976467  0.73977280  1
  O  O350  1  0.85872907  0.78354000  0.29291467  1
  O  O351  1  0.82522360  0.75275216  0.70953437  1
  O  O352  1  0.35063651  0.50897078  0.43060910  1
  O  O353  1  0.37526385  0.49833453  0.98233039  1
  O  O354  1  0.38779026  0.99868562  0.50290762  1
  O  O355  1  0.39235263  1.00551221  0.98268233  1
  O  O356  1  0.86318019  0.49518255  0.50306805  1
  O  O357  1  0.86320176  0.48979690  0.98090826  1
  O  O358  1  0.89632194  1.00559736  0.52298575  1
  O  O359  1  0.83968504  0.98049559  0.99533419  1
  O  O360  1  0.16932172  0.04540637  -0.00444727  1
  O  O361  1  0.11643349  0.00105486  0.53875969  1
  O  O362  1  0.15844114  0.51651412  -0.00049721  1
  O  O363  1  0.08714102  0.40162941  0.49942562  1
  O  O364  1  0.62117831  -0.00884521  0.00221856  1
  O  O365  1  0.61803000  0.00560694  0.51017364  1
  O  O366  1  0.62631518  0.49223697  -0.00189626  1
  O  O367  1  0.65246969  0.46246153  0.51342559  1
  O  O368  1  0.38226784  0.32340669  0.13010029  1
  O  O369  1  0.40896834  0.34912173  0.62822673  1
  O  O370  1  0.32895926  0.86877735  0.16166068  1
  O  O371  1  0.36871469  0.88570904  0.62796867  1
  O  O372  1  0.89268252  0.38370248  0.09688518  1
  O  O373  1  0.87899387  0.36270405  0.62150940  1
  O  O374  1  0.84804554  0.86497589  0.12728692  1
  O  O375  1  0.87043352  0.87575967  0.61634663  1
  O  O376  1  0.15379885  0.11505337  0.37688551  1
  O  O377  1  0.14385527  0.15801022  0.86655114  1
  O  O378  1  0.12772831  0.66971222  0.39922990  1
  O  O379  1  0.14709331  0.64242853  0.86042449  1
  O  O380  1  0.62390194  0.11984186  0.38591818  1
  O  O381  1  0.57409956  0.14192541  0.89256329  1
  O  O382  1  0.61845619  0.60428407  0.38113973  1
  O  O383  1  0.58857339  0.64793738  0.85726342  1
