# generated using pymatgen
data_VZnO4
_symmetry_space_group_name_H-M   'P 1'
_cell_length_a   16.95689569
_cell_length_b   16.90080818
_cell_length_c   16.91600430
_cell_angle_alpha   90.29746991
_cell_angle_beta   89.63779279
_cell_angle_gamma   89.83051092
_symmetry_Int_Tables_number   1
_chemical_formula_structural   VZnO4
_chemical_formula_sum   'V64 Zn64 O256'
_cell_volume   4847.69328400
_cell_formula_units_Z   64
loop_
 _symmetry_equiv_pos_site_id
 _symmetry_equiv_pos_as_xyz
  1  'x, y, z'
loop_
 _atom_site_type_symbol
 _atom_site_label
 _atom_site_symmetry_multiplicity
 _atom_site_fract_x
 _atom_site_fract_y
 _atom_site_fract_z
 _atom_site_occupancy
  V  V0  1  0.74954313  0.49926583  0.25107049  1
  V  V1  1  0.73643233  0.36676080  0.63297044  1
  V  V2  1  0.87853610  0.36921778  0.50286839  1
  V  V3  1  0.10484052  0.75007724  0.37582942  1
  V  V4  1  0.62827023  0.63819649  0.50029841  1
  V  V5  1  0.49352354  0.37315886  0.85909610  1
  V  V6  1  0.22794145  0.24818892  0.50227619  1
  V  V7  1  0.00253248  0.74710581  0.77756388  1
  V  V8  1  0.37651038  0.61987747  0.24157470  1
  V  V9  1  0.74851048  0.62833122  0.38248369  1
  V  V10  1  0.38287973  0.22584311  0.62888625  1
  V  V11  1  0.74787931  0.74617774  -0.02087792  1
  V  V12  1  0.62367006  0.87843744  0.24287872  1
  V  V13  1  -0.04526581  0.24223935  0.75758988  1
  V  V14  1  0.37113012  0.77062149  0.11905823  1
  V  V15  1  0.48402165  0.49255496  -0.00204482  1
  V  V16  1  0.13279631  0.85447485  0.23744023  1
  V  V17  1  0.74212460  0.12932740  0.36817230  1
  V  V18  1  0.87184575  0.86568522  0.49220610  1
  V  V19  1  0.22761507  0.11850579  0.37620870  1
  V  V20  1  0.24258898  0.50766674  0.74958657  1
  V  V21  1  0.73888511  0.87063249  0.61590366  1
  V  V22  1  0.89280244  0.14039048  0.24152956  1
  V  V23  1  0.26341098  0.64097568  0.39305495  1
  V  V24  1  0.86612802  0.49361988  0.88275631  1
  V  V25  1  0.61937246  0.36795826  0.25152845  1
  V  V26  1  0.87283330  0.00256761  0.37398429  1
  V  V27  1  0.39781537  0.00641039  0.38925308  1
  V  V28  1  0.50393934  0.74787349  0.76204286  1
  V  V29  1  0.11636089  0.62233550  0.50883125  1
  V  V30  1  0.75932990  0.00106634  0.75612652  1
  V  V31  1  0.73117599  0.25506027  0.49343594  1
  V  V32  1  0.61425057  0.49572582  0.61931672  1
  V  V33  1  0.49970439  0.35787525  0.37539799  1
  V  V34  1  0.38585025  0.00617000  0.86991637  1
  V  V35  1  0.00043428  -0.00457109  0.49788408  1
  V  V36  1  0.61449395  0.24024479  0.84166811  1
  V  V37  1  0.76013155  0.00376291  0.22419980  1
  V  V38  1  0.11460436  0.15342947  0.03203965  1
  V  V39  1  0.61592854  0.10207556  0.49937973  1
  V  V40  1  0.74828648  0.26582319  0.02245658  1
  V  V41  1  0.50412590  0.74642956  0.25834545  1
  V  V42  1  0.48577780  0.62915713  0.61680527  1
  V  V43  1  0.74797075  0.52027850  0.74724884  1
  V  V44  1  0.88467154  0.74133270  0.62671042  1
  V  V45  1  0.61563541  0.50757172  0.12657367  1
  V  V46  1  0.89169322  0.30243732  0.13954572  1
  V  V47  1  0.62806294  0.61623946  -0.02289899  1
  V  V48  1  0.51216115  0.11708067  0.12664447  1
  V  V49  1  0.36816630  0.63117642  0.77314786  1
  V  V50  1  0.12380910  0.50020474  0.15829634  1
  V  V51  1  0.86063010  0.72055540  0.12859615  1
  V  V52  1  0.26222764  0.26957566  0.00931184  1
  V  V53  1  0.15447172  0.26093790  0.84587087  1
  V  V54  1  0.38124126  0.26678430  0.14164435  1
  V  V55  1  0.11990364  0.88407991  0.77294477  1
  V  V56  1  -0.02436322  0.11953402  0.62638223  1
  V  V57  1  0.12487316  0.00086340  0.62527450  1
  V  V58  1  0.62402140  0.87242129  0.76668254  1
  V  V59  1  0.24706938  0.86184771  0.61374476  1
  V  V60  1  0.37740582  0.36909119  0.51145216  1
  V  V61  1  0.38444483  0.50090737  0.38876787  1
  V  V62  1  0.87890019  0.49506884  0.38256463  1
  V  V63  1  0.02438353  0.49370268  -0.01462803  1
  Zn  Zn64  1  0.20122002  0.20181454  0.19691712  1
  Zn  Zn65  1  0.23456094  0.19248416  0.69743501  1
  Zn  Zn66  1  0.20172795  0.67328259  0.18985562  1
  Zn  Zn67  1  0.17615644  0.69197350  0.69807817  1
  Zn  Zn68  1  0.69274918  0.19701283  0.18051570  1
  Zn  Zn69  1  0.68275077  0.17661163  0.68192200  1
  Zn  Zn70  1  0.68628269  0.68028427  0.19604839  1
  Zn  Zn71  1  0.68581801  0.69274078  0.67985827  1
  Zn  Zn72  1  0.37385949  0.13701383  0.25618576  1
  Zn  Zn73  1  0.32319591  0.31892180  0.81135406  1
  Zn  Zn74  1  0.30679543  0.81231538  0.29705209  1
  Zn  Zn75  1  0.30651564  0.81729839  0.78975847  1
  Zn  Zn76  1  0.80806115  0.31682026  0.31519335  1
  Zn  Zn77  1  0.79780391  0.31395866  0.83925588  1
  Zn  Zn78  1  0.79308152  0.81738335  0.30890157  1
  Zn  Zn79  1  0.81204837  0.80412514  0.80280164  1
  Zn  Zn80  1  0.21191756  0.44214153  0.43929288  1
  Zn  Zn81  1  0.19524440  0.42337328  0.91115753  1
  Zn  Zn82  1  0.19143372  0.92909450  0.43024734  1
  Zn  Zn83  1  0.18699339  0.98827524  0.94525816  1
  Zn  Zn84  1  0.67771953  0.44407999  0.43672355  1
  Zn  Zn85  1  0.67917048  0.42322484  0.92932607  1
  Zn  Zn86  1  0.68926569  0.92961159  0.42214233  1
  Zn  Zn87  1  0.79741578  0.93034721  0.93298303  1
  Zn  Zn88  1  0.29897021  0.08661411  0.06757192  1
  Zn  Zn89  1  0.30538188  0.05698628  0.54939357  1
  Zn  Zn90  1  0.29757809  0.55696600  0.06448964  1
  Zn  Zn91  1  0.30123726  0.55541632  0.56837730  1
  Zn  Zn92  1  0.82464436  0.09731084  0.05286217  1
  Zn  Zn93  1  0.79532445  0.05264340  0.56079070  1
  Zn  Zn94  1  0.80339431  0.55757063  0.05891656  1
  Zn  Zn95  1  0.80970929  0.55485798  0.56690408  1
  Zn  Zn96  1  0.43951655  0.44171512  0.19506623  1
  Zn  Zn97  1  0.42786252  0.44878343  0.69098862  1
  Zn  Zn98  1  0.44109754  0.93817284  0.18708218  1
  Zn  Zn99  1  0.43132728  0.92525428  0.69185423  1
  Zn  Zn100  1  0.92607168  0.50808761  0.16801278  1
  Zn  Zn101  1  0.90356085  0.40164014  0.71600376  1
  Zn  Zn102  1  0.91222082  0.87642742  0.20330601  1
  Zn  Zn103  1  0.93603129  0.92469265  0.68985151  1
  Zn  Zn104  1  0.05451968  0.04975201  0.30441108  1
  Zn  Zn105  1  0.09915489  0.10120253  0.78226622  1
  Zn  Zn106  1  0.08900073  0.53058041  0.36486828  1
  Zn  Zn107  1  0.04038212  0.55258281  0.80516323  1
  Zn  Zn108  1  0.56457981  0.06457879  0.29763279  1
  Zn  Zn109  1  0.61941631  0.03689504  0.85738752  1
  Zn  Zn110  1  0.56166861  0.56294578  0.31782047  1
  Zn  Zn111  1  0.55430141  0.55202393  0.80464419  1
  Zn  Zn112  1  0.43614372  0.18426279  0.43938997  1
  Zn  Zn113  1  0.45286890  0.19651260  0.95080212  1
  Zn  Zn114  1  0.44799545  0.69594929  0.43546295  1
  Zn  Zn115  1  0.44819978  0.68511460  0.94948362  1
  Zn  Zn116  1  0.91966031  0.17870808  0.45642272  1
  Zn  Zn117  1  0.97223295  0.28415516  0.96627655  1
  Zn  Zn118  1  0.93633801  0.67859815  0.43861794  1
  Zn  Zn119  1  0.92547872  0.66434348  0.93737017  1
  Zn  Zn120  1  0.08002056  0.33553702  0.08643477  1
  Zn  Zn121  1  0.04936859  0.30980703  0.60034387  1
  Zn  Zn122  1  0.07417411  0.79330430  0.04733990  1
  Zn  Zn123  1  0.06487389  0.81426744  0.55840580  1
  Zn  Zn124  1  0.55592014  0.31404208  0.07180170  1
  Zn  Zn125  1  0.55511896  0.30410171  0.56335331  1
  Zn  Zn126  1  0.58228024  0.78013017  0.08657002  1
  Zn  Zn127  1  0.55859535  0.80450487  0.57114114  1
  O  O128  1  0.12608295  0.14229404  0.13378890  1
  O  O129  1  0.09874630  0.09990699  0.62424280  1
  O  O130  1  0.07246720  0.67073910  0.13949398  1
  O  O131  1  0.13127894  0.62918286  0.60765963  1
  O  O132  1  0.61303386  0.12883397  0.14253620  1
  O  O133  1  0.63865946  0.11303075  0.59709655  1
  O  O134  1  0.62292755  0.60934358  0.12775150  1
  O  O135  1  0.61920475  0.61923817  0.61368021  1
  O  O136  1  0.39102772  0.39101881  0.38005740  1
  O  O137  1  0.39445151  0.37244432  0.88191503  1
  O  O138  1  0.37162596  0.90687961  0.33643604  1
  O  O139  1  0.36904641  0.90199420  0.84884364  1
  O  O140  1  0.86835827  0.38352119  0.38835803  1
  O  O141  1  0.87546809  0.39652279  0.83251798  1
  O  O142  1  0.86015581  0.88525367  0.38374182  1
  O  O143  1  0.87080818  0.87803963  0.86420885  1
  O  O144  1  0.25408501  0.01633863  0.39099108  1
  O  O145  1  0.28178092  0.01807707  0.87707988  1
  O  O146  1  0.27504372  0.51833569  0.37746679  1
  O  O147  1  0.26152841  0.52805648  0.88808950  1
  O  O148  1  0.76013152  0.01405722  0.36677884  1
  O  O149  1  0.73382574  -0.00209725  0.86093573  1
  O  O150  1  0.75137353  0.50588672  0.37212005  1
  O  O151  1  0.75101194  0.49053105  0.85161835  1
  O  O152  1  0.20179143  0.56676274  0.12777177  1
  O  O153  1  0.24795174  0.49572372  0.64874855  1
  O  O154  1  0.25998719  0.98656488  0.03276976  1
  O  O155  1  0.22677967  0.99836363  0.61434499  1
  O  O156  1  0.74055872  0.50311232  0.14585062  1
  O  O157  1  0.73136025  0.48961660  0.62745398  1
  O  O158  1  0.76249073  1.02712166  0.12865060  1
  O  O159  1  0.75328505  0.97534091  0.63672424  1
  O  O160  1  0.00539241  0.29362579  0.35311169  1
  O  O161  1  -0.00640731  0.33080039  0.70690296  1
  O  O162  1  0.01516415  0.88776183  0.25646410  1
  O  O163  1  0.00976116  0.86229352  0.75338891  1
  O  O164  1  0.50935139  0.38210460  0.26562292  1
  O  O165  1  0.49416165  0.38690266  0.75877483  1
  O  O166  1  0.52181611  0.87771876  0.25313972  1
  O  O167  1  0.50932046  0.85744621  0.73961649  1
  O  O168  1  0.48846196  0.12292014  0.24003312  1
  O  O169  1  0.51238655  0.06967518  0.67011935  1
  O  O170  1  0.49115023  0.63821048  0.26033120  1
  O  O171  1  0.48695788  0.63019494  0.74303179  1
  O  O172  1  0.98975428  0.13457606  0.26232053  1
  O  O173  1  0.99486687  0.13961345  0.73703938  1
  O  O174  1  1.01938138  0.66834062  0.19122191  1
  O  O175  1  1.01587945  0.64857774  0.75230506  1
  O  O176  1  0.36508795  0.24568989  0.00765537  1
  O  O177  1  0.37671649  0.25809728  0.50819933  1
  O  O178  1  0.39284575  0.75014886  0.02116834  1
  O  O179  1  0.40841052  0.79803671  0.49946640  1
  O  O180  1  0.87913194  0.28038209  0.03820838  1
  O  O181  1  0.85246654  0.26277244  0.49399535  1
  O  O182  1  0.84833383  0.71490665  0.00719706  1
  O  O183  1  0.87687696  0.76302583  0.49507050  1
  O  O184  1  0.13316538  0.27220054  0.52692604  1
  O  O185  1  0.14684086  0.26491272  1.02199054  1
  O  O186  1  0.11740087  0.73977598  0.48435946  1
  O  O187  1  0.13574298  0.76276387  0.95303482  1
  O  O188  1  0.63030115  0.23977347  0.49356266  1
  O  O189  1  0.64637556  0.26404338  1.02440536  1
  O  O190  1  0.62528790  0.73825965  0.50219601  1
  O  O191  1  0.63220576  0.72651335  0.99997323  1
  O  O192  1  0.48635118  0.23977719  0.12473254  1
  O  O193  1  0.48271352  0.24404764  0.62435489  1
  O  O194  1  0.48799275  0.76128410  0.14488648  1
  O  O195  1  0.49883223  0.73185843  0.63720972  1
  O  O196  1  0.99156389  0.29294764  0.14934877  1
  O  O197  1  0.98011236  0.21738453  0.60415259  1
  O  O198  1  0.96343525  0.76830869  0.08740664  1
  O  O199  1  0.98507531  0.75324332  0.61397092  1
  O  O200  1  0.02009673  0.23947385  0.40002529  1
  O  O201  1  -0.03592600  0.25745169  0.85556306  1
  O  O202  1  0.00693519  0.73711647  0.36510395  1
  O  O203  1  -0.01664262  0.74487946  0.87581425  1
  O  O204  1  0.49474652  0.25973817  0.36982207  1
  O  O205  1  0.50074143  0.26263233  0.87374259  1
  O  O206  1  0.49038844  0.76626646  0.35752262  1
  O  O207  1  0.50202565  0.74293165  0.86154699  1
  O  O208  1  0.24068012  0.13561455  0.49332097  1
  O  O209  1  0.23075869  0.15494160  1.00386864  1
  O  O210  1  0.24781333  0.62735465  0.49569799  1
  O  O211  1  0.24939617  0.62689803  0.97820291  1
  O  O212  1  0.74444607  0.13156713  0.48523694  1
  O  O213  1  0.77232198  0.17166653  0.98898333  1
  O  O214  1  0.73578810  0.62010540  0.49574470  1
  O  O215  1  0.73100121  0.61740170  0.99557062  1
  O  O216  1  0.25617267  0.37075131  -0.00512596  1
  O  O217  1  0.26921266  0.35941805  0.49180748  1
  O  O218  1  0.21136669  0.79378879  -0.05086616  1
  O  O219  1  0.24446253  0.87279387  0.51267900  1
  O  O220  1  0.76397968  0.34933104  -0.04191068  1
  O  O221  1  0.73773152  0.36154638  0.49644472  1
  O  O222  1  0.74909693  0.84612398  -0.00353887  1
  O  O223  1  0.75768827  0.87848255  0.50752124  1
  O  O224  1  0.10714978  0.52241450  0.25476730  1
  O  O225  1  0.14470644  0.52784414  0.77091300  1
  O  O226  1  0.06851254  0.95312076  0.23618490  1
  O  O227  1  0.10233055  0.98850588  0.73416473  1
  O  O228  1  0.62643955  0.49907986  0.24390591  1
  O  O229  1  0.63304442  0.50677363  0.73073018  1
  O  O230  1  0.65165138  0.98808391  0.24610774  1
  O  O231  1  0.62584774  0.97785163  0.75399179  1
  O  O232  1  0.36796942  -0.03012364  0.27864783  1
  O  O233  1  0.38774668  0.01198604  0.76299703  1
  O  O234  1  0.38841576  0.51594428  0.26774618  1
  O  O235  1  0.36531765  0.52489716  0.75019847  1
  O  O236  1  0.87150397  0.02591013  0.25766444  1
  O  O237  1  0.85913454  -0.01844049  0.75685734  1
  O  O238  1  0.85657907  0.50007292  0.26715437  1
  O  O239  1  0.84711984  0.50290010  0.72118743  1
  O  O240  1  0.14251675  0.38312717  0.35504116  1
  O  O241  1  0.11253203  0.34843544  0.87735268  1
  O  O242  1  0.12377839  0.85405390  0.37039634  1
  O  O243  1  0.13389552  0.91330151  0.86866397  1
  O  O244  1  0.60587168  0.38295263  0.37074667  1
  O  O245  1  0.60745754  0.35598878  0.87209663  1
  O  O246  1  0.68099992  0.85964491  0.33182635  1
  O  O247  1  0.62297103  0.86430087  0.86240759  1
  O  O248  1  0.37476972  0.13149235  0.13491139  1
  O  O249  1  0.37203772  0.12621555  0.61601417  1
  O  O250  1  0.37183908  0.61197810  0.14257441  1
  O  O251  1  0.38638642  0.62027116  0.61510345  1
  O  O252  1  0.88851805  0.13321061  0.14146291  1
  O  O253  1  0.87693198  0.10277941  0.62572862  1
  O  O254  1  0.87551280  0.61450034  0.13356338  1
  O  O255  1  0.86723409  0.64443974  0.60562659  1
  O  O256  1  0.26833819  0.25970651  0.12081566  1
  O  O257  1  0.26779442  0.24402478  0.60331692  1
  O  O258  1  0.27317078  0.73951304  0.12887605  1
  O  O259  1  0.23695038  0.76258955  0.62877856  1
  O  O260  1  0.76555608  0.26905046  0.12905394  1
  O  O261  1  0.73285742  0.25994926  0.60884398  1
  O  O262  1  0.75789242  0.73059934  0.12215273  1
  O  O263  1  0.76388859  0.76382625  0.63055871  1
  O  O264  1  0.23400892  0.23325412  0.39748541  1
  O  O265  1  0.25344052  0.25763141  0.88496524  1
  O  O266  1  0.27330230  0.74236210  0.38422402  1
  O  O267  1  0.25328600  0.76467037  0.88961342  1
  O  O268  1  0.74763410  0.23849294  0.38075621  1
  O  O269  1  0.71622810  0.23961694  0.85095443  1
  O  O270  1  0.76172436  0.72528876  0.37012179  1
  O  O271  1  0.75512554  0.73829048  0.87972187  1
  O  O272  1  0.01961132  0.18745938  0.01398429  1
  O  O273  1  -0.01302335  0.10223204  0.50845943  1
  O  O274  1  -0.00720935  0.59301855  -0.00475472  1
  O  O275  1  0.01645478  0.62065324  0.49496093  1
  O  O276  1  0.50214268  0.12862249  0.02295600  1
  O  O277  1  0.51862482  0.12492620  0.49152809  1
  O  O278  1  0.51813941  0.60384171  -0.00299992  1
  O  O279  1  0.50968747  0.63341394  0.51078346  1
  O  O280  1  0.48907267  0.36743975  0.48760338  1
  O  O281  1  0.50350517  0.39134712  1.00298549  1
  O  O282  1  0.46348870  0.84879043  0.51230437  1
  O  O283  1  0.58489009  0.94771285  1.01596117  1
  O  O284  1  0.97502949  0.36442232  0.51769806  1
  O  O285  1  1.00720158  0.38971791  1.00776999  1
  O  O286  1  0.97958453  0.88453485  0.49886958  1
  O  O287  1  1.02956993  0.91581819  1.01604833  1
  O  O288  1  0.48771437  0.50943081  0.38647710  1
  O  O289  1  0.50546069  0.48735637  0.88881050  1
  O  O290  1  0.49679175  1.00423462  0.37226051  1
  O  O291  1  0.49028908  0.99933157  0.86631645  1
  O  O292  1  0.97652970  0.50367254  0.37085291  1
  O  O293  1  0.98706570  0.48796916  0.88032186  1
  O  O294  1  0.98359053  1.00329905  0.38714484  1
  O  O295  1  0.97608651  1.00239737  0.90303666  1
  O  O296  1  0.01295141  -0.04083289  0.07333787  1
  O  O297  1  -0.00554004  -0.00443033  0.61245007  1
  O  O298  1  0.02740310  0.50565620  0.11387827  1
  O  O299  1  0.05072714  0.48124015  0.63170712  1
  O  O300  1  0.49872601  0.01347056  0.13085294  1
  O  O301  1  0.49833145  0.00833977  0.63190895  1
  O  O302  1  0.51112406  0.49936760  0.11719686  1
  O  O303  1  0.50869548  0.51504214  0.63247556  1
  O  O304  1  0.18325796  0.33963005  0.30137270  1
  O  O305  1  0.25382878  0.41370259  0.79311725  1
  O  O306  1  0.22717560  0.88372006  0.25138867  1
  O  O307  1  0.22171943  0.87553184  0.74083878  1
  O  O308  1  0.73023796  0.39200355  0.26851190  1
  O  O309  1  0.73875256  0.37091840  0.73089695  1
  O  O310  1  0.79722455  0.90500479  0.22396148  1
  O  O311  1  0.73507365  0.87114574  0.74092184  1
  O  O312  1  0.25552115  0.13461861  0.27330574  1
  O  O313  1  0.21095310  0.10432089  0.75741614  1
  O  O314  1  0.27558916  0.63103446  0.27233420  1
  O  O315  1  0.26282931  0.63102433  0.75270628  1
  O  O316  1  0.75660153  0.12431577  0.25805254  1
  O  O317  1  0.74594983  0.09844628  0.73575766  1
  O  O318  1  0.73678934  0.60890062  0.27083583  1
  O  O319  1  0.74488878  0.61941122  0.74435823  1
  O  O320  1  0.37449405  0.11257057  0.37411784  1
  O  O321  1  0.39304011  0.10869872  0.88193931  1
  O  O322  1  0.37584358  0.62104473  0.38946674  1
  O  O323  1  0.37841926  0.63240812  0.87139343  1
  O  O324  1  0.86371215  0.12318025  0.37097363  1
  O  O325  1  0.92313726  0.04689331  0.92658866  1
  O  O326  1  0.85760734  0.60630589  0.39455138  1
  O  O327  1  0.87493654  0.59167142  0.85972769  1
  O  O328  1  0.15248188  0.40514513  0.14531331  1
  O  O329  1  0.10118142  0.42942297  0.61848484  1
  O  O330  1  0.12422895  0.83594713  0.13867020  1
  O  O331  1  0.12610779  0.88388432  0.62548378  1
  O  O332  1  0.61722183  0.38897789  0.14579306  1
  O  O333  1  0.62353336  0.38655368  0.61405073  1
  O  O334  1  0.64546945  0.85889567  0.14593195  1
  O  O335  1  0.63657601  0.86829489  0.61928659  1
  O  O336  1  0.13897159  0.28879912  0.26310178  1
  O  O337  1  0.15503262  0.26425590  0.74287969  1
  O  O338  1  0.13953833  0.74696662  0.26672825  1
  O  O339  1  0.11330951  0.76647132  0.76819228  1
  O  O340  1  0.63151798  0.26999242  0.25090123  1
  O  O341  1  0.60458090  0.23462806  0.74067399  1
  O  O342  1  0.60960100  0.75012189  0.24696280  1
  O  O343  1  0.61164360  0.75305774  0.74496814  1
  O  O344  1  0.37188191  0.25692660  0.24035371  1
  O  O345  1  0.35044950  0.24555693  0.72750614  1
  O  O346  1  0.38429275  0.74156258  0.24137741  1
  O  O347  1  0.38507338  0.74099276  0.75312630  1
  O  O348  1  0.86989309  0.24888314  0.24563777  1
  O  O349  1  0.85672787  0.24814545  0.74502034  1
  O  O350  1  0.87049974  0.76025606  0.22644482  1
  O  O351  1  0.89265503  0.75205348  0.73477515  1
  O  O352  1  0.36857667  0.48418875  0.49749246  1
  O  O353  1  0.38617234  0.50614481  1.01163820  1
  O  O354  1  0.38144361  0.99392290  0.48852576  1
  O  O355  1  0.39434902  0.97942608  0.96946781  1
  O  O356  1  0.86357120  0.48300983  0.49285484  1
  O  O357  1  0.85762144  0.48779670  0.98353266  1
  O  O358  1  0.87279292  0.99122119  0.49030958  1
  O  O359  1  0.86641751  1.00874651  0.99018162  1
  O  O360  1  0.11151102  0.05797624  -0.01154238  1
  O  O361  1  0.10329175  -0.01433792  0.50358066  1
  O  O362  1  0.12298507  0.49816941  -0.02629890  1
  O  O363  1  0.13079499  0.51744760  0.47347731  1
  O  O364  1  0.61993931  0.00537833  -0.01140904  1
  O  O365  1  0.62767824  0.00168663  0.48333656  1
  O  O366  1  0.63180496  0.50031712  0.01403415  1
  O  O367  1  0.62186915  0.51079752  0.51461760  1
  O  O368  1  0.38832174  0.36798409  0.12951278  1
  O  O369  1  0.38310643  0.37686326  0.61175380  1
  O  O370  1  0.36733622  0.87065362  0.13334645  1
  O  O371  1  0.34454622  0.88352504  0.64028907  1
  O  O372  1  0.87759475  0.40144066  0.14995082  1
  O  O373  1  0.84287781  0.37879682  0.60891580  1
  O  O374  1  0.90476054  0.83025807  0.09244359  1
  O  O375  1  0.86724160  0.86402741  0.60912458  1
  O  O376  1  0.12866883  0.10847630  0.36524915  1
  O  O377  1  0.10565688  0.17446639  0.87332393  1
  O  O378  1  0.14828385  0.64112716  0.38081831  1
  O  O379  1  0.22366375  0.59648739  0.91218513  1
  O  O380  1  0.63978240  0.11737126  0.37361419  1
  O  O381  1  0.59543406  0.14329050  0.87618132  1
  O  O382  1  0.63196425  0.61881657  0.39209049  1
  O  O383  1  0.62401824  0.61147943  0.87863075  1
