# generated using pymatgen
data_VZnO4
_symmetry_space_group_name_H-M   'P 1'
_cell_length_a   16.97154934
_cell_length_b   16.94777727
_cell_length_c   16.99588636
_cell_angle_alpha   90.04511249
_cell_angle_beta   89.90804352
_cell_angle_gamma   90.24328923
_symmetry_Int_Tables_number   1
_chemical_formula_structural   VZnO4
_chemical_formula_sum   'V64 Zn64 O256'
_cell_volume   4888.47558370
_cell_formula_units_Z   64
loop_
 _symmetry_equiv_pos_site_id
 _symmetry_equiv_pos_as_xyz
  1  'x, y, z'
loop_
 _atom_site_type_symbol
 _atom_site_label
 _atom_site_symmetry_multiplicity
 _atom_site_fract_x
 _atom_site_fract_y
 _atom_site_fract_z
 _atom_site_occupancy
  V  V0  1  0.37063312  0.50455243  0.37549541  1
  V  V1  1  0.35725994  0.73922880  0.63106402  1
  V  V2  1  0.37711637  0.37664305  -0.00536921  1
  V  V3  1  0.61022852  -0.02256533  0.61333371  1
  V  V4  1  0.00639509  0.52130677  -0.00274630  1
  V  V5  1  0.87093263  0.37051875  0.48416630  1
  V  V6  1  0.10272817  0.01325561  0.62963447  1
  V  V7  1  0.36515864  0.12871687  0.73709167  1
  V  V8  1  -0.00324974  0.49742763  0.49588630  1
  V  V9  1  0.87251978  0.23842990  0.63223994  1
  V  V10  1  0.51138577  0.37539721  0.36918165  1
  V  V11  1  0.62624895  0.35025018  0.24289848  1
  V  V12  1  0.38338527  0.00772758  0.86726113  1
  V  V13  1  0.38102899  0.50646732  0.87209942  1
  V  V14  1  0.49209710  0.85437251  0.85229444  1
  V  V15  1  0.51137019  0.62654550  0.12359817  1
  V  V16  1  0.50892284  0.63875202  0.63293422  1
  V  V17  1  0.15232696  0.13193418  0.49695946  1
  V  V18  1  0.62059295  0.00926856  0.12038097  1
  V  V19  1  0.25286171  0.38124459  0.13750494  1
  V  V20  1  0.88708325  0.59186188  0.76157923  1
  V  V21  1  0.71867768  0.24320896  0.49539690  1
  V  V22  1  0.27661100  0.36612990  0.62576766  1
  V  V23  1  0.12776647  0.12126589  0.01577077  1
  V  V24  1  0.64464755  0.86702875  0.24679628  1
  V  V25  1  0.50736285  0.50337688  0.00490057  1
  V  V26  1  0.37739964  0.86434108  0.49396000  1
  V  V27  1  0.49876264  0.24602509  0.74024218  1
  V  V28  1  0.37457282  0.75863833  0.11682628  1
  V  V29  1  -0.01015178  0.36652258  0.88174566  1
  V  V30  1  0.23413828  0.88497910  0.11737958  1
  V  V31  1  0.74781053  0.37029598  0.11289366  1
  V  V32  1  -0.05109607  0.90623765  0.87423041  1
  V  V33  1  0.08845761  0.80416672  0.86954666  1
  V  V34  1  0.38889999  0.23647827  0.12723401  1
  V  V35  1  0.88810863  0.75330870  0.12808470  1
  V  V36  1  0.88959833  0.01292118  0.38201941  1
  V  V37  1  0.24375561  0.62930675  0.89480555  1
  V  V38  1  0.75146886  0.23186002  -0.00414532  1
  V  V39  1  0.74682032  0.01845946  0.25814751  1
  V  V40  1  0.36476056  0.62265471  0.25429135  1
  V  V41  1  0.25399281  0.24227348  -0.00956793  1
  V  V42  1  0.63592141  0.50450563  0.62986294  1
  V  V43  1  0.66659122  0.74856499  0.37665796  1
  V  V44  1  0.71918427  0.01405476  0.76733103  1
  V  V45  1  0.49353498  -0.00071431  0.47904923  1
  V  V46  1  0.65821637  0.62932644  0.49928727  1
  V  V47  1  -0.02402981  0.01740472  0.01219226  1
  V  V48  1  0.86758179  0.86561128  0.49749279  1
  V  V49  1  0.88749290  0.13887009  0.24004562  1
  V  V50  1  0.50748983  0.50871410  0.49569948  1
  V  V51  1  0.11270927  0.75860949  0.37555354  1
  V  V52  1  0.61862469  0.38480880  0.76434735  1
  V  V53  1  0.74556468  0.37171352  0.63112590  1
  V  V54  1  0.24206773  0.00201212  0.26363439  1
  V  V55  1  0.24910400  0.50592166  0.75059476  1
  V  V56  1  0.12217642  0.36906458  0.74570117  1
  V  V57  1  0.38380257  0.11638794  0.27252644  1
  V  V58  1  0.74447846  0.64026132  0.86590981  1
  V  V59  1  0.12323882  0.23391311  0.86599478  1
  V  V60  1  0.24238083  0.89336071  0.63107681  1
  V  V61  1  0.88436284  0.74980491  0.64893410  1
  V  V62  1  0.49987471  0.75155726  0.26761388  1
  V  V63  1  0.61295582  0.22399183  0.88207457  1
  Zn  Zn64  1  0.21180674  0.18497862  0.18469816  1
  Zn  Zn65  1  0.19079214  0.18739431  0.67738777  1
  Zn  Zn66  1  0.19630460  0.70884439  0.19875612  1
  Zn  Zn67  1  0.20916475  0.72329663  0.73914709  1
  Zn  Zn68  1  0.67602491  0.18511641  0.17974347  1
  Zn  Zn69  1  0.68337078  0.18778142  0.69319296  1
  Zn  Zn70  1  0.69203004  0.68973765  0.18261858  1
  Zn  Zn71  1  0.71320214  0.69674444  0.68561395  1
  Zn  Zn72  1  0.34363171  0.31608168  0.30305643  1
  Zn  Zn73  1  0.31578839  0.31359918  0.80884393  1
  Zn  Zn74  1  0.31097341  0.82375838  0.30224237  1
  Zn  Zn75  1  0.32398775  0.81270086  0.81114901  1
  Zn  Zn76  1  0.84875742  0.35316742  0.26231823  1
  Zn  Zn77  1  0.79921059  0.30040233  0.81607808  1
  Zn  Zn78  1  0.84098783  0.83123770  0.30538193  1
  Zn  Zn79  1  0.78245887  0.82306956  0.80403840  1
  Zn  Zn80  1  0.19472895  0.46071907  0.46162381  1
  Zn  Zn81  1  0.19109628  0.43063865  0.92975294  1
  Zn  Zn82  1  0.18956481  0.94341205  0.45406908  1
  Zn  Zn83  1  0.20278352  0.93842995  0.94252023  1
  Zn  Zn84  1  0.68560639  0.43299970  0.43899354  1
  Zn  Zn85  1  0.69441711  0.44078086  0.94920584  1
  Zn  Zn86  1  0.68838824  0.93676686  0.43786154  1
  Zn  Zn87  1  0.60182002  1.01315896  0.92144712  1
  Zn  Zn88  1  0.31576395  0.05662096  0.06079647  1
  Zn  Zn89  1  0.32721267  0.06231727  0.55590791  1
  Zn  Zn90  1  0.31492783  0.56420120  0.06821206  1
  Zn  Zn91  1  0.33391550  0.54713475  0.57615473  1
  Zn  Zn92  1  0.79254261  0.06727931  0.07244004  1
  Zn  Zn93  1  0.80563092  0.07022618  0.55026686  1
  Zn  Zn94  1  0.80929207  0.56399217  0.07929753  1
  Zn  Zn95  1  0.86510524  0.56296805  0.56876080  1
  Zn  Zn96  1  0.43815395  0.43624281  0.18597774  1
  Zn  Zn97  1  0.44941845  0.44190137  0.68954820  1
  Zn  Zn98  1  0.43582045  0.95138251  0.19822853  1
  Zn  Zn99  1  0.43243969  0.92235088  0.68061947  1
  Zn  Zn100  1  0.91785586  0.44556974  0.12958179  1
  Zn  Zn101  1  0.93968333  0.42620853  0.68821726  1
  Zn  Zn102  1  0.93656035  0.95034131  0.19032913  1
  Zn  Zn103  1  0.92803336  0.93974998  0.67957181  1
  Zn  Zn104  1  0.06961011  0.08140400  0.30924764  1
  Zn  Zn105  1  0.08510951  0.01758723  0.83433140  1
  Zn  Zn106  1  -0.08515046  0.52889217  0.31342193  1
  Zn  Zn107  1  0.06722957  0.54916198  0.82619741  1
  Zn  Zn108  1  0.55767674  0.05334713  0.30665722  1
  Zn  Zn109  1  0.52339909  0.03584713  0.76763415  1
  Zn  Zn110  1  0.56074440  0.58391788  0.32448396  1
  Zn  Zn111  1  0.56728244  0.57013961  0.81779274  1
  Zn  Zn112  1  0.54998847  0.18101211  0.43370075  1
  Zn  Zn113  1  0.44117175  0.18604010  0.92957015  1
  Zn  Zn114  1  0.43659781  0.68396139  0.44784959  1
  Zn  Zn115  1  0.43743863  0.68538729  0.93795667  1
  Zn  Zn116  1  0.83342107  0.22311137  0.38132199  1
  Zn  Zn117  1  0.96319909  0.22505912  0.98019792  1
  Zn  Zn118  1  0.92451093  0.67975581  0.42772879  1
  Zn  Zn119  1  0.93551933  0.69423723  0.92377017  1
  Zn  Zn120  1  0.07932708  0.38901965  0.05694464  1
  Zn  Zn121  1  0.05413164  0.30364507  0.55869011  1
  Zn  Zn122  1  0.05983875  0.83625025  0.04065847  1
  Zn  Zn123  1  0.04812018  0.82907829  0.57067999  1
  Zn  Zn124  1  0.56410272  0.31589656  0.05859708  1
  Zn  Zn125  1  0.55545342  0.32539690  0.56457081  1
  Zn  Zn126  1  0.52814364  0.84980722  0.09109507  1
  Zn  Zn127  1  0.57049350  0.81049526  0.54707278  1
  O  O128  1  0.13748813  0.12975098  0.11276415  1
  O  O129  1  0.12539937  0.11990180  0.61521606  1
  O  O130  1  0.11649935  0.63276688  0.15345088  1
  O  O131  1  0.17577163  0.61607015  0.56061774  1
  O  O132  1  0.60602100  0.10665545  0.13159182  1
  O  O133  1  0.65068944  0.09545775  0.61359254  1
  O  O134  1  0.60929650  0.63039237  0.12677532  1
  O  O135  1  0.63083726  0.62491317  0.61502895  1
  O  O136  1  0.39866322  0.39772939  0.36326134  1
  O  O137  1  0.37287366  0.38517815  0.88855618  1
  O  O138  1  0.36219945  0.85505906  0.39623379  1
  O  O139  1  0.38903773  0.88801826  0.86497286  1
  O  O140  1  0.86216513  0.34996199  0.38520946  1
  O  O141  1  0.89371956  0.34993284  0.86476628  1
  O  O142  1  0.86812011  0.90286220  0.38794534  1
  O  O143  1  0.85060755  0.89534249  0.87513722  1
  O  O144  1  0.24252358  -0.01436490  0.36292915  1
  O  O145  1  0.28605996  -0.00450439  0.88624257  1
  O  O146  1  0.27240130  0.49415717  0.38473515  1
  O  O147  1  0.26316180  0.50457613  0.87154775  1
  O  O148  1  0.74384853  0.00053693  0.35926532  1
  O  O149  1  0.70227560  -0.01113213  0.86138752  1
  O  O150  1  0.73729209  0.50937468  0.34283388  1
  O  O151  1  0.76253805  0.53078939  0.91939300  1
  O  O152  1  0.26070708  0.48139151  0.12283646  1
  O  O153  1  0.26516562  0.49254471  0.64831294  1
  O  O154  1  0.25715435  0.98954354  0.12799417  1
  O  O155  1  0.26230648  0.99018813  0.63660766  1
  O  O156  1  0.74368415  0.47066684  0.10370920  1
  O  O157  1  0.73874408  0.48651646  0.62526701  1
  O  O158  1  0.73175253  1.00089340  0.14552385  1
  O  O159  1  0.71213602  1.03655259  0.61854723  1
  O  O160  1  0.02440744  0.29508286  0.27500495  1
  O  O161  1  0.01596957  0.37947046  0.76491942  1
  O  O162  1  -0.05254255  0.87036739  0.26596582  1
  O  O163  1  -0.02083316  0.91203550  0.77725324  1
  O  O164  1  0.51531125  0.38753703  0.25742683  1
  O  O165  1  0.51322729  0.37009817  0.75441408  1
  O  O166  1  0.51659298  0.85121743  0.25704783  1
  O  O167  1  0.50603793  0.86927689  0.75391535  1
  O  O168  1  0.48065520  0.10277432  0.24116168  1
  O  O169  1  0.50487231  0.14394097  0.73948381  1
  O  O170  1  0.49881715  0.63223152  0.24057436  1
  O  O171  1  0.51425340  0.62238316  0.73063129  1
  O  O172  1  0.98686745  0.12825329  0.24318466  1
  O  O173  1  0.93971356  0.11544536  0.77285990  1
  O  O174  1  1.06976273  0.60232120  0.20294383  1
  O  O175  1  0.98833629  0.60184943  0.76870804  1
  O  O176  1  0.37208687  0.25893592  -0.00477979  1
  O  O177  1  0.30960811  0.26553360  0.46007204  1
  O  O178  1  0.38052860  0.74532742  0.01965877  1
  O  O179  1  0.37792677  0.75333361  0.51597318  1
  O  O180  1  0.85164952  0.23364317  -0.01166038  1
  O  O181  1  0.84538076  0.26466693  0.51494841  1
  O  O182  1  0.88794769  0.74756085  0.02262596  1
  O  O183  1  0.87405140  0.76830369  0.47300959  1
  O  O184  1  0.12574246  0.23176747  0.51226551  1
  O  O185  1  0.14178934  0.23628476  0.98527611  1
  O  O186  1  0.11261267  0.76472039  0.48010855  1
  O  O187  1  0.11758790  0.77248605  0.96061169  1
  O  O188  1  0.61329587  0.24421549  0.50979708  1
  O  O189  1  0.61100763  0.24781042  0.98207296  1
  O  O190  1  0.64474880  0.74064822  0.48792125  1
  O  O191  1  0.66362703  0.73805479  1.01716462  1
  O  O192  1  0.48570991  0.25207471  0.11159852  1
  O  O193  1  0.50058608  0.26478629  0.64234546  1
  O  O194  1  0.49311848  0.73806537  0.13576608  1
  O  O195  1  0.51480437  0.73810585  0.61943746  1
  O  O196  1  1.07694970  0.26816029  0.22995917  1
  O  O197  1  0.97085655  0.25761592  0.62351249  1
  O  O198  1  0.99111840  0.77488661  0.12180833  1
  O  O199  1  0.98418711  0.74797319  0.61537575  1
  O  O200  1  -0.02721099  0.17723810  0.46701876  1
  O  O201  1  0.01901183  0.24821515  0.87172309  1
  O  O202  1  0.01027306  0.75372998  0.36875124  1
  O  O203  1  -0.01834905  0.79506065  0.88218039  1
  O  O204  1  0.50001471  0.27820605  0.38347461  1
  O  O205  1  0.51012649  0.25274880  0.86472343  1
  O  O206  1  0.50585076  0.73355317  0.36605702  1
  O  O207  1  0.47871529  0.75388607  0.86104856  1
  O  O208  1  0.25328514  0.12597452  0.50223792  1
  O  O209  1  0.25024532  0.13748010  0.99991180  1
  O  O210  1  0.23169871  0.59509940  0.51690860  1
  O  O211  1  0.25604941  0.62712463  0.99425105  1
  O  O212  1  0.74228398  0.14597449  0.49368567  1
  O  O213  1  0.73187711  0.13334538  1.00181639  1
  O  O214  1  0.75388322  0.61649180  0.50617896  1
  O  O215  1  0.75623518  0.59352103  0.97540434  1
  O  O216  1  0.26359537  0.36535274  0.00412840  1
  O  O217  1  0.24396006  0.39081706  0.53291545  1
  O  O218  1  0.25971701  0.87898485  0.01899558  1
  O  O219  1  0.26149139  0.87734902  0.52056894  1
  O  O220  1  0.73733720  0.35415121  0.00545275  1
  O  O221  1  0.73339834  0.36568632  0.51688815  1
  O  O222  1  0.69232108  0.80190124  -0.00066096  1
  O  O223  1  0.76894584  0.89481247  0.50488377  1
  O  O224  1  0.11626671  0.42538436  0.30371808  1
  O  O225  1  0.14277744  0.48104373  0.76285842  1
  O  O226  1  0.14350867  1.01902849  0.24700803  1
  O  O227  1  0.12323663  1.01507078  0.72906397  1
  O  O228  1  0.69120364  0.52548388  0.28666425  1
  O  O229  1  0.61672983  0.49228410  0.74208252  1
  O  O230  1  0.63081755  0.97806429  0.24769606  1
  O  O231  1  0.62092817  0.99272428  0.72741682  1
  O  O232  1  0.36437955  0.00571209  0.26053483  1
  O  O233  1  0.39415744  0.01349911  0.75380220  1
  O  O234  1  0.38119812  0.51573059  0.25925741  1
  O  O235  1  0.37173749  0.49135355  0.76803418  1
  O  O236  1  0.85827901  0.01328758  0.25259912  1
  O  O237  1  0.82563365  -0.01601010  0.73147893  1
  O  O238  1  0.89317604  0.45466096  0.23856466  1
  O  O239  1  0.87199480  0.49285871  0.75616636  1
  O  O240  1  0.13738187  0.38578399  0.36088259  1
  O  O241  1  0.12153341  0.35788077  0.86750414  1
  O  O242  1  0.11544149  0.86503234  0.38573394  1
  O  O243  1  0.12345591  0.90400319  0.86608525  1
  O  O244  1  0.62032431  0.38784313  0.35453459  1
  O  O245  1  0.63368298  0.39285177  0.86211545  1
  O  O246  1  0.63890406  0.85078261  0.36823636  1
  O  O247  1  0.58358354  0.86539186  0.92030186  1
  O  O248  1  0.37683237  0.13741570  0.11420133  1
  O  O249  1  0.37964864  0.12157458  0.63878401  1
  O  O250  1  0.37871206  0.63733879  0.14073941  1
  O  O251  1  0.39829919  0.63312350  0.61708527  1
  O  O252  1  0.86137588  0.13070043  0.14357393  1
  O  O253  1  0.86229519  0.13869819  0.62032556  1
  O  O254  1  0.90467648  0.65068826  0.12564370  1
  O  O255  1  0.87816864  0.63237249  0.66010183  1
  O  O256  1  0.26907835  0.25573008  0.10827423  1
  O  O257  1  0.26116890  0.26721583  0.63392303  1
  O  O258  1  0.26809951  0.77036414  0.13748491  1
  O  O259  1  0.25738217  0.72531536  0.63223460  1
  O  O260  1  0.72714902  0.25075522  0.10249711  1
  O  O261  1  0.73483264  0.26030381  0.61955485  1
  O  O262  1  0.78397373  0.74849243  0.12425744  1
  O  O263  1  0.78776686  0.74036455  0.60952471  1
  O  O264  1  0.27309501  0.26780241  0.39677524  1
  O  O265  1  0.24876575  0.25533680  0.88628172  1
  O  O266  1  0.21924398  0.76295143  0.36612981  1
  O  O267  1  0.26170348  0.72625704  0.85731255  1
  O  O268  1  0.72737902  0.26521656  0.39762746  1
  O  O269  1  0.72422642  0.24884775  0.88489907  1
  O  O270  1  0.76278470  0.74947257  0.35813115  1
  O  O271  1  0.76086114  0.73868799  0.88283951  1
  O  O272  1  0.01810137  0.12681327  0.00592036  1
  O  O273  1  0.00314162  0.12131308  0.50115313  1
  O  O274  1  0.01019742  0.61912623  -0.02397986  1
  O  O275  1  -0.04190250  0.60024463  0.49792548  1
  O  O276  1  0.46678492  0.08529889  -0.00854031  1
  O  O277  1  0.49157993  0.09910083  0.49173484  1
  O  O278  1  0.49346135  0.61725640  0.01426909  1
  O  O279  1  0.51775721  0.62029818  0.50679294  1
  O  O280  1  0.52056949  0.39894316  0.48297723  1
  O  O281  1  0.48650502  0.39222320  1.00770059  1
  O  O282  1  0.48409885  0.87162387  0.50161569  1
  O  O283  1  0.52122487  0.85673969  0.97346651  1
  O  O284  1  0.97497988  0.37313382  0.50169555  1
  O  O285  1  0.99916597  0.34139898  0.98681980  1
  O  O286  1  0.97753823  0.88930845  0.50487701  1
  O  O287  1  0.98875215  0.90775927  0.98671387  1
  O  O288  1  0.50272580  0.50502783  0.38095499  1
  O  O289  1  0.48857885  0.51398519  0.88985777  1
  O  O290  1  0.49958690  0.98433924  0.38113917  1
  O  O291  1  0.50112097  0.98393358  0.86866245  1
  O  O292  1  0.97887670  0.48714598  0.39511225  1
  O  O293  1  0.99582918  0.47399299  0.89442642  1
  O  O294  1  0.98650960  1.01264385  0.36318838  1
  O  O295  1  0.98520185  1.01143135  0.89265880  1
  O  O296  1  -0.00522936  -0.00110228  0.11063576  1
  O  O297  1  0.00308838  0.00651289  0.62508980  1
  O  O298  1  0.02065025  0.48066330  0.10068533  1
  O  O299  1  -0.03725783  0.49130681  0.59975781  1
  O  O300  1  0.52404081  -0.03794080  0.12911035  1
  O  O301  1  0.50727992  -0.01093731  0.61969926  1
  O  O302  1  0.49033056  0.51531105  0.11612742  1
  O  O303  1  0.51453992  0.51066776  0.61494509  1
  O  O304  1  0.26895569  0.36734172  0.23621285  1
  O  O305  1  0.24629614  0.38013758  0.74350630  1
  O  O306  1  0.25429140  0.89126704  0.23389153  1
  O  O307  1  0.24829860  0.85210316  0.72716302  1
  O  O308  1  0.73107747  0.36290050  0.23353593  1
  O  O309  1  0.72976677  0.36681554  0.73851064  1
  O  O310  1  0.74637088  0.87649808  0.25267119  1
  O  O311  1  0.77003685  0.92037261  0.72360377  1
  O  O312  1  0.26992044  0.11200395  0.24889278  1
  O  O313  1  0.26708823  0.13242293  0.74778789  1
  O  O314  1  0.26588400  0.63332525  0.25082981  1
  O  O315  1  0.24460931  0.60585674  0.75473819  1
  O  O316  1  0.73865327  0.11864100  0.25175392  1
  O  O317  1  0.73203156  0.11500324  0.76348136  1
  O  O318  1  0.77050372  0.61155820  0.17614882  1
  O  O319  1  0.76047862  0.62046676  0.76255546  1
  O  O320  1  0.38652246  0.13358471  0.36693095  1
  O  O321  1  0.38958547  0.11452019  0.85478768  1
  O  O322  1  0.38157690  0.61797989  0.36486735  1
  O  O323  1  0.36585390  0.60896409  0.88194467  1
  O  O324  1  0.86594813  0.11623487  0.35612052  1
  O  O325  1  0.89173414  0.12203832  0.82589540  1
  O  O326  1  0.89793148  0.63413278  0.33173842  1
  O  O327  1  0.86820298  0.62873737  0.86203669  1
  O  O328  1  0.15372731  0.35670878  0.12944704  1
  O  O329  1  0.11728879  0.36320586  0.64616683  1
  O  O330  1  0.13463621  0.87159738  0.11808711  1
  O  O331  1  0.13363522  0.89539806  0.61616681  1
  O  O332  1  0.62183691  0.37242483  0.13860414  1
  O  O333  1  0.62635157  0.38853796  0.63426796  1
  O  O334  1  0.63314355  0.84564532  0.14822448  1
  O  O335  1  0.63192547  0.88032704  0.61508679  1
  O  O336  1  0.13619285  0.22475994  0.26712348  1
  O  O337  1  0.13922796  0.25687535  0.76073011  1
  O  O338  1  0.11465214  0.75825101  0.27045925  1
  O  O339  1  0.11217969  0.74908220  0.78862541  1
  O  O340  1  0.61312725  0.25294790  0.24862135  1
  O  O341  1  0.61539103  0.26039992  0.76355947  1
  O  O342  1  0.62961320  0.74361944  0.26533808  1
  O  O343  1  0.68721879  0.78631832  0.75019574  1
  O  O344  1  0.37841421  0.23222748  0.23491950  1
  O  O345  1  0.38946321  0.24061252  0.75970263  1
  O  O346  1  0.38829909  0.74263904  0.25485378  1
  O  O347  1  0.38028925  0.74742247  0.72730102  1
  O  O348  1  0.86562616  0.23871665  0.26607089  1
  O  O349  1  0.85310273  0.25030617  0.73115452  1
  O  O350  1  0.88784474  0.74430164  0.23121497  1
  O  O351  1  0.87569699  0.77137271  0.74608387  1
  O  O352  1  0.39333192  0.51339804  0.48482945  1
  O  O353  1  0.37778475  0.49075374  0.99318095  1
  O  O354  1  0.38638157  0.97869910  0.50477583  1
  O  O355  1  0.40543300  1.03130687  0.98191000  1
  O  O356  1  0.84458090  0.46913949  0.49344179  1
  O  O357  1  0.90095187  0.51192528  1.02941054  1
  O  O358  1  0.87808782  1.01723847  0.48375785  1
  O  O359  1  0.87817831  1.02924798  1.00711846  1
  O  O360  1  0.13438647  0.02280474  -0.00963521  1
  O  O361  1  0.13230153  0.01686082  0.51828274  1
  O  O362  1  0.11113776  0.48412521  -0.01015848  1
  O  O363  1  0.09686390  0.49204210  0.50059595  1
  O  O364  1  0.63769293  -0.00873388  0.02395302  1
  O  O365  1  0.60402557  -0.01654518  0.50166145  1
  O  O366  1  0.60447494  0.49622138  -0.00133512  1
  O  O367  1  0.62926039  0.51633921  0.50523310  1
  O  O368  1  0.37337635  0.36524231  0.11412867  1
  O  O369  1  0.37687522  0.38181841  0.62541626  1
  O  O370  1  0.40024698  0.85802562  0.13042495  1
  O  O371  1  0.36143087  0.85570645  0.61955119  1
  O  O372  1  0.84780293  0.35250664  0.12802090  1
  O  O373  1  0.84974448  0.36877464  0.62654835  1
  O  O374  1  0.87457401  0.85792597  0.12911128  1
  O  O375  1  0.88243816  0.86233714  0.60965863  1
  O  O376  1  0.12406338  0.11983981  0.40041860  1
  O  O377  1  0.12564994  0.13311736  0.86820173  1
  O  O378  1  0.12165606  0.65697145  0.38698795  1
  O  O379  1  0.14661118  0.61117438  0.87992172  1
  O  O380  1  0.61629034  0.12706422  0.36352862  1
  O  O381  1  0.60599241  0.12531488  0.87912298  1
  O  O382  1  0.64106852  0.63523194  0.38947179  1
  O  O383  1  0.64252778  0.63119699  0.87061497  1
