# generated using pymatgen
data_VZnO4
_symmetry_space_group_name_H-M   'P 1'
_cell_length_a   16.89824508
_cell_length_b   16.82219321
_cell_length_c   16.94366441
_cell_angle_alpha   90.07948058
_cell_angle_beta   89.98708538
_cell_angle_gamma   90.17191013
_symmetry_Int_Tables_number   1
_chemical_formula_structural   VZnO4
_chemical_formula_sum   'V64 Zn64 O256'
_cell_volume   4816.47354268
_cell_formula_units_Z   64
loop_
 _symmetry_equiv_pos_site_id
 _symmetry_equiv_pos_as_xyz
  1  'x, y, z'
loop_
 _atom_site_type_symbol
 _atom_site_label
 _atom_site_symmetry_multiplicity
 _atom_site_fract_x
 _atom_site_fract_y
 _atom_site_fract_z
 _atom_site_occupancy
  V  V0  1  0.75558538  0.62951961  0.86718755  1
  V  V1  1  0.49206328  0.87583616  0.88672682  1
  V  V2  1  0.74151326  0.88109250  0.12037068  1
  V  V3  1  0.49144018  0.24885052  0.74468584  1
  V  V4  1  0.37367084  0.00128140  0.88462509  1
  V  V5  1  0.61376646  0.11025891  -0.00304263  1
  V  V6  1  0.75941122  0.01297069  0.25563193  1
  V  V7  1  0.48908424  0.37367162  0.36205754  1
  V  V8  1  0.87733754  0.00162569  0.86597599  1
  V  V9  1  0.00384130  0.12096346  0.65571261  1
  V  V10  1  0.12257850  0.13488426  -0.00065530  1
  V  V11  1  0.00465953  0.49449803  0.02275997  1
  V  V12  1  0.72346557  0.00075159  0.74566200  1
  V  V13  1  0.12555438  -0.02265048  0.63438238  1
  V  V14  1  0.24425350  0.38280654  0.12584181  1
  V  V15  1  0.47838950  0.38389163  0.86950766  1
  V  V16  1  0.63253900  0.63025799  0.00584908  1
  V  V17  1  0.74704211  0.12958194  0.87400302  1
  V  V18  1  0.48830669  0.63260363  0.13488204  1
  V  V19  1  0.50043077  0.75861064  0.73989304  1
  V  V20  1  0.88757152  0.49816281  0.86283879  1
  V  V21  1  0.26028511  0.63130523  0.37025554  1
  V  V22  1  0.48654466  0.10308029  0.11289176  1
  V  V23  1  -0.00743035  0.01142817  0.01132439  1
  V  V24  1  0.74155264  0.73669562  0.49835540  1
  V  V25  1  0.12099150  0.37852413  0.26400091  1
  V  V26  1  0.25483477  0.24037118  0.48063911  1
  V  V27  1  0.87900104  0.89329457  0.49292993  1
  V  V28  1  0.51587387  0.61500762  0.61638196  1
  V  V29  1  0.62643310  0.26557712  0.87780592  1
  V  V30  1  0.75537696  0.48861480  0.26084632  1
  V  V31  1  0.61460042  0.24846530  0.35246714  1
  V  V32  1  0.49276877  0.49401098  -0.00075633  1
  V  V33  1  0.87257329  0.26198369  0.64910909  1
  V  V34  1  0.62780059  0.75467447  0.87015872  1
  V  V35  1  0.73563054  0.49068122  0.75258398  1
  V  V36  1  -0.00485854  0.24721747  0.22722251  1
  V  V37  1  0.38306379  0.25425248  0.13865235  1
  V  V38  1  0.11814511  0.12218324  0.50118741  1
  V  V39  1  0.63316444  0.13216781  0.51514643  1
  V  V40  1  0.63579510  0.48235336  0.12454908  1
  V  V41  1  0.87335716  0.74916762  0.63762227  1
  V  V42  1  0.38184878  0.61042656  0.75190468  1
  V  V43  1  0.36905817  0.75967512  0.61347728  1
  V  V44  1  0.23822790  0.61050747  0.87884842  1
  V  V45  1  0.73086274  0.37785070  0.61545978  1
  V  V46  1  0.73189928  0.88849933  0.61686840  1
  V  V47  1  0.12267226  0.74290531  0.39867759  1
  V  V48  1  0.87656996  0.61952957  0.27291283  1
  V  V49  1  0.86828580  0.74223965  0.12651660  1
  V  V50  1  0.12095577  0.62699542  0.03821100  1
  V  V51  1  0.13830328  -0.00904493  0.13087522  1
  V  V52  1  0.62664315  0.73712142  0.36886943  1
  V  V53  1  0.87485777  0.87340280  -0.00059841  1
  V  V54  1  0.87423119  0.36527071  0.00408693  1
  V  V55  1  0.52427500  0.49640853  0.49424687  1
  V  V56  1  0.50086213  0.00940398  0.52153572  1
  V  V57  1  0.49244251  0.88410651  0.37611370  1
  V  V58  1  0.26068890  -0.03191952  0.74511093  1
  V  V59  1  0.24768146  0.12674242  0.86102841  1
  V  V60  1  0.00453920  0.76342495  0.24777640  1
  V  V61  1  0.36521207  0.38204398  0.51288506  1
  V  V62  1  0.26586337  0.25411448  -0.00756478  1
  V  V63  1  0.62219003  0.88404083  0.25289660  1
  Zn  Zn64  1  0.18443806  0.20000514  0.17351595  1
  Zn  Zn65  1  0.22907544  0.13403834  0.64552084  1
  Zn  Zn66  1  0.20141491  0.70128789  0.19871823  1
  Zn  Zn67  1  0.20664316  0.69357966  0.69830523  1
  Zn  Zn68  1  0.62773961  0.14241345  0.21948098  1
  Zn  Zn69  1  0.68380606  0.19932284  0.69871498  1
  Zn  Zn70  1  0.69621613  0.68544259  0.19249613  1
  Zn  Zn71  1  0.69232844  0.69105404  0.68603781  1
  Zn  Zn72  1  0.31118424  0.31328246  0.31160954  1
  Zn  Zn73  1  0.30441204  0.31369593  0.80639817  1
  Zn  Zn74  1  0.31014677  0.82319297  0.44248483  1
  Zn  Zn75  1  0.28582734  0.82030171  0.86260606  1
  Zn  Zn76  1  0.79319139  0.28452331  0.28401516  1
  Zn  Zn77  1  0.81872751  0.31442936  0.81791921  1
  Zn  Zn78  1  0.80339931  0.81793003  0.31083256  1
  Zn  Zn79  1  0.80610311  0.82532222  0.80872022  1
  Zn  Zn80  1  0.19568553  0.43725965  0.43754092  1
  Zn  Zn81  1  0.19187482  0.44694707  0.94975345  1
  Zn  Zn82  1  0.14965223  0.92719179  0.44663322  1
  Zn  Zn83  1  0.16426487  0.92984022  0.94227110  1
  Zn  Zn84  1  0.70459617  0.38844164  0.41868765  1
  Zn  Zn85  1  0.69378974  0.44460082  0.94380671  1
  Zn  Zn86  1  0.68305560  0.95442740  0.43333046  1
  Zn  Zn87  1  0.68802862  0.93664746  0.93344325  1
  Zn  Zn88  1  0.30620589  0.06432316  0.06273475  1
  Zn  Zn89  1  0.28967306  0.01501018  0.52034446  1
  Zn  Zn90  1  0.31022944  0.57529855  0.05736215  1
  Zn  Zn91  1  0.33268309  0.59503045  0.52777215  1
  Zn  Zn92  1  0.79676309  0.05798187  0.05592576  1
  Zn  Zn93  1  0.81334777  0.08301274  0.55940756  1
  Zn  Zn94  1  0.81232048  0.55064881  0.05248365  1
  Zn  Zn95  1  0.80438251  0.56567138  0.57190916  1
  Zn  Zn96  1  0.42835989  0.44745968  0.17954356  1
  Zn  Zn97  1  0.44390468  0.43115203  0.68127677  1
  Zn  Zn98  1  0.43821313  0.92428723  0.18553071  1
  Zn  Zn99  1  0.44132910  0.93834072  0.69153411  1
  Zn  Zn100  1  0.93083015  0.42625684  0.19712330  1
  Zn  Zn101  1  0.92473930  0.46839816  0.66758545  1
  Zn  Zn102  1  0.93503430  0.94247496  0.18966872  1
  Zn  Zn103  1  0.91147595  0.96323644  0.65809199  1
  Zn  Zn104  1  0.11810279  0.10332063  0.29044597  1
  Zn  Zn105  1  0.07222999  0.03805716  0.81828506  1
  Zn  Zn106  1  0.08343925  0.58720455  0.25917937  1
  Zn  Zn107  1  0.05349177  0.57950504  0.79137141  1
  Zn  Zn108  1  0.48737209  0.09329988  0.32396293  1
  Zn  Zn109  1  0.55470070  0.06774975  0.81212914  1
  Zn  Zn110  1  0.56428938  0.54959475  0.30826182  1
  Zn  Zn111  1  0.55962794  0.56639991  0.81315382  1
  Zn  Zn112  1  0.44129229  0.19032716  0.45214296  1
  Zn  Zn113  1  0.43974467  0.18741138  0.92538419  1
  Zn  Zn114  1  0.45084891  0.69189397  0.43258337  1
  Zn  Zn115  1  0.44995506  0.67905192  0.93476147  1
  Zn  Zn116  1  0.93033574  0.19708544  0.48257490  1
  Zn  Zn117  1  0.94619513  0.19151536  0.91319758  1
  Zn  Zn118  1  0.91769644  0.74057582  0.41941133  1
  Zn  Zn119  1  0.92694278  0.66892860  0.96689246  1
  Zn  Zn120  1  0.05602404  0.31326266  0.06052779  1
  Zn  Zn121  1  0.08111876  0.29075128  0.60036479  1
  Zn  Zn122  1  0.05493514  0.81435834  0.06463462  1
  Zn  Zn123  1  0.05118347  0.80883680  0.56663383  1
  Zn  Zn124  1  0.56110089  0.30576963  0.05476292  1
  Zn  Zn125  1  0.55734459  0.30629171  0.55346609  1
  Zn  Zn126  1  0.56181915  0.80813022  0.06350876  1
  Zn  Zn127  1  0.55969349  0.81736490  0.55254589  1
  O  O128  1  0.13182566  0.11416742  0.10136408  1
  O  O129  1  0.11268576  0.11622668  0.62887141  1
  O  O130  1  0.13653620  0.61856360  0.13870933  1
  O  O131  1  0.16516941  0.58293282  0.64177876  1
  O  O132  1  0.60759158  0.12423804  0.10106475  1
  O  O133  1  0.63884607  0.13730527  0.61521529  1
  O  O134  1  0.62909739  0.62748097  0.11138728  1
  O  O135  1  0.61438184  0.63030056  0.62313332  1
  O  O136  1  0.38239025  0.36753802  0.38891905  1
  O  O137  1  0.37965088  0.38371026  0.87125526  1
  O  O138  1  0.39565502  0.85855679  0.36848896  1
  O  O139  1  0.38758711  0.87895270  0.87447100  1
  O  O140  1  0.93106043  0.35805291  0.42145525  1
  O  O141  1  0.88179940  0.39449892  0.87494376  1
  O  O142  1  0.87174111  0.85712580  0.39313720  1
  O  O143  1  0.85793693  0.89014235  0.89197012  1
  O  O144  1  0.26608916  0.01240334  0.32409025  1
  O  O145  1  0.25991238  0.00203399  0.85759437  1
  O  O146  1  0.23614199  0.52697566  0.38411325  1
  O  O147  1  0.26194505  0.51317889  0.88359294  1
  O  O148  1  0.75431287  -0.00396764  0.35484200  1
  O  O149  1  0.75094503  0.00500762  0.86073114  1
  O  O150  1  0.74078298  0.48408748  0.35918520  1
  O  O151  1  0.75720381  0.51254116  0.86761780  1
  O  O152  1  0.25966187  0.48030280  0.10783285  1
  O  O153  1  0.20818699  0.52299478  0.65014642  1
  O  O154  1  0.23954714  0.99558671  0.12194029  1
  O  O155  1  0.24876788  1.00354206  0.63996512  1
  O  O156  1  0.73839162  0.49857338  0.11971064  1
  O  O157  1  0.75432556  0.48684663  0.64233466  1
  O  O158  1  0.74515273  0.98675634  0.12927706  1
  O  O159  1  0.75091433  1.00040511  0.63821977  1
  O  O160  1  0.00918452  0.36166902  0.25166303  1
  O  O161  1  0.04439545  0.37561210  0.69238553  1
  O  O162  1  -0.01865181  0.86190231  0.25243434  1
  O  O163  1  0.02984176  0.84525680  0.84661525  1
  O  O164  1  0.48520613  0.38791255  0.26376063  1
  O  O165  1  0.50146094  0.37915104  0.76687464  1
  O  O166  1  0.51580078  0.87174037  0.25196026  1
  O  O167  1  0.50293705  0.86086345  0.75795001  1
  O  O168  1  0.51130443  0.11378790  0.21402031  1
  O  O169  1  0.49290248  0.14736995  0.76516681  1
  O  O170  1  0.50651865  0.61399988  0.23217622  1
  O  O171  1  0.49999999  0.62624910  0.73005719  1
  O  O172  1  1.01912574  0.15678492  0.27169767  1
  O  O173  1  1.01105896  0.11670009  0.75534082  1
  O  O174  1  0.97842053  0.63537069  0.24140577  1
  O  O175  1  1.04034088  0.69200939  0.74666810  1
  O  O176  1  0.36655418  0.25013023  -0.00661606  1
  O  O177  1  0.35776023  0.25077873  0.50661817  1
  O  O178  1  0.34553127  0.70706530  -0.02714050  1
  O  O179  1  0.38461708  0.75742228  0.50942675  1
  O  O180  1  0.89004037  0.26757194  -0.02351017  1
  O  O181  1  0.85086888  0.20401480  0.56009205  1
  O  O182  1  0.88021600  0.76758932  0.00379169  1
  O  O183  1  0.85119713  0.76173371  0.51117781  1
  O  O184  1  0.14187407  0.23423236  0.51499026  1
  O  O185  1  0.12677627  0.23747220  0.99750516  1
  O  O186  1  0.09696596  0.73067731  0.49467966  1
  O  O187  1  0.11409491  0.72632255  1.02387554  1
  O  O188  1  0.61645455  0.23527727  0.48540699  1
  O  O189  1  0.61847098  0.23668988  0.98129518  1
  O  O190  1  0.63527072  0.75520947  0.48889480  1
  O  O191  1  0.62074271  0.73751797  0.98544384  1
  O  O192  1  0.48432848  0.24927183  0.11737113  1
  O  O193  1  0.50776638  0.26071861  0.64623903  1
  O  O194  1  0.50135560  0.73279502  0.12124414  1
  O  O195  1  0.50617398  0.74639494  0.63047961  1
  O  O196  1  0.99632768  0.24042693  0.12610236  1
  O  O197  1  0.98787851  0.22942824  0.63757395  1
  O  O198  1  0.97498923  0.75999637  0.13278694  1
  O  O199  1  0.97149093  0.74608338  0.61542747  1
  O  O200  1  -0.02531374  0.29783138  0.42942462  1
  O  O201  1  0.02498225  0.22192467  0.84224030  1
  O  O202  1  0.01020789  0.74131918  0.35519475  1
  O  O203  1  0.04210070  0.78397714  0.88978995  1
  O  O204  1  0.49954204  0.26444260  0.37569259  1
  O  O205  1  0.50499821  0.27117518  0.87408570  1
  O  O206  1  0.52226549  0.76409845  0.38187577  1
  O  O207  1  0.50677285  0.75731573  0.86539478  1
  O  O208  1  0.24500364  0.13092714  0.52462074  1
  O  O209  1  0.24239062  0.13650884  0.99026758  1
  O  O210  1  0.22515537  0.59754487  0.48736666  1
  O  O211  1  0.22071160  0.61397716  0.99411945  1
  O  O212  1  0.73012379  0.11505448  0.48760409  1
  O  O213  1  0.73248848  0.11805186  0.98237814  1
  O  O214  1  0.74512575  0.63715897  0.50564865  1
  O  O215  1  0.73727516  0.61900021  0.98432989  1
  O  O216  1  0.24491733  0.35733227  -0.00200215  1
  O  O217  1  0.25571328  0.35485190  0.49618505  1
  O  O218  1  0.22640877  0.84407206  -0.04862259  1
  O  O219  1  0.25813501  0.91703762  0.47361625  1
  O  O220  1  0.77446706  0.38116836  -0.01067048  1
  O  O221  1  0.75740127  0.38134015  0.51896071  1
  O  O222  1  0.75600629  0.88302198  0.01140889  1
  O  O223  1  0.74765631  0.88693382  0.51016656  1
  O  O224  1  0.11307340  0.47939228  0.24674348  1
  O  O225  1  0.08549530  0.44173301  0.69894829  1
  O  O226  1  0.11392828  1.00487888  0.22765591  1
  O  O227  1  0.15040440  0.99341781  0.74311009  1
  O  O228  1  0.64206362  0.50198297  0.23295827  1
  O  O229  1  0.63683146  0.50202137  0.75695177  1
  O  O230  1  0.63536392  0.98322443  0.24389183  1
  O  O231  1  0.62491745  0.99915722  0.75160082  1
  O  O232  1  0.37022864  0.00083097  0.24411396  1
  O  O233  1  0.36442519  -0.00654249  0.75677826  1
  O  O234  1  0.35637824  0.50423120  0.24341060  1
  O  O235  1  0.37452516  0.51313105  0.72740516  1
  O  O236  1  0.85942990  0.01141219  0.23423760  1
  O  O237  1  0.87548464  -0.01116669  0.76744746  1
  O  O238  1  0.87170467  0.51034954  0.25582686  1
  O  O239  1  0.86356559  0.50629003  0.76033955  1
  O  O240  1  0.13487904  0.37204052  0.36297303  1
  O  O241  1  0.15063286  0.38508728  0.84674815  1
  O  O242  1  0.12215049  0.84531503  0.37848610  1
  O  O243  1  0.09128906  0.90018974  0.84190647  1
  O  O244  1  0.59823355  0.36623584  0.37835508  1
  O  O245  1  0.63188267  0.36586819  0.88525859  1
  O  O246  1  0.62385633  0.87401227  0.36086457  1
  O  O247  1  0.61828198  0.86017481  0.87837021  1
  O  O248  1  0.38311170  0.13623183  0.11090607  1
  O  O249  1  0.40614480  0.10729503  0.64592854  1
  O  O250  1  0.38812025  0.62166126  0.12425767  1
  O  O251  1  0.39131486  0.63876895  0.62255618  1
  O  O252  1  0.84588191  0.15759054  0.11434547  1
  O  O253  1  0.90789096  0.08197199  0.63481140  1
  O  O254  1  0.86526699  0.64393388  0.10015296  1
  O  O255  1  0.84559083  0.65045150  0.63908433  1
  O  O256  1  0.26347473  0.25294056  0.10672423  1
  O  O257  1  0.35917198  0.16301548  0.64202179  1
  O  O258  1  0.26072594  0.77530802  0.12639802  1
  O  O259  1  0.26863748  0.74625363  0.62251807  1
  O  O260  1  0.80033854  0.21517025  0.12154130  1
  O  O261  1  0.75636789  0.27731128  0.65038130  1
  O  O262  1  0.76100456  0.76391102  0.12790079  1
  O  O263  1  0.74427078  0.76901031  0.61591774  1
  O  O264  1  0.25191237  0.23726981  0.38291251  1
  O  O265  1  0.25372502  0.23638866  0.88086904  1
  O  O266  1  0.23515907  0.73874460  0.40449022  1
  O  O267  1  0.30194382  0.70664491  0.90104407  1
  O  O268  1  0.72178873  0.27648435  0.36947919  1
  O  O269  1  0.73924101  0.23764432  0.86647008  1
  O  O270  1  0.74075507  0.75255019  0.38990864  1
  O  O271  1  0.73735584  0.74321260  0.86514868  1
  O  O272  1  0.00990267  0.11869771  -0.00975152  1
  O  O273  1  0.01515161  0.12918676  0.51236177  1
  O  O274  1  0.01372549  0.61057782  0.00546543  1
  O  O275  1  -0.02867528  0.54804140  0.51448845  1
  O  O276  1  0.50397849  0.12261416  -0.00310319  1
  O  O277  1  0.51113422  0.11998640  0.51274114  1
  O  O278  1  0.51587807  0.61442070  0.00490905  1
  O  O279  1  0.50085399  0.60926234  0.50580442  1
  O  O280  1  0.48693778  0.38797389  0.50070439  1
  O  O281  1  0.50090157  0.38714919  0.98961211  1
  O  O282  1  0.51098036  0.89460220  0.48373852  1
  O  O283  1  0.50222267  0.86846074  0.98527352  1
  O  O284  1  1.05771332  0.39608491  0.53179371  1
  O  O285  1  0.99776840  0.39053467  0.99525920  1
  O  O286  1  0.97902728  0.88030516  0.50757688  1
  O  O287  1  0.98113623  0.89265992  1.00429013  1
  O  O288  1  0.50233386  0.49157916  0.38778053  1
  O  O289  1  0.51188530  0.48987154  0.88720523  1
  O  O290  1  0.49730029  0.98423229  0.36159102  1
  O  O291  1  0.48644417  0.98731443  0.86773010  1
  O  O292  1  0.98412762  0.52121303  0.44742682  1
  O  O293  1  0.98698968  0.51891103  0.86179221  1
  O  O294  1  0.91819391  1.08433315  0.35823677  1
  O  O295  1  0.97958782  1.00791084  0.88622700  1
  O  O296  1  -0.00717738  0.01028121  0.11186473  1
  O  O297  1  0.02450965  -0.00744499  0.65311532  1
  O  O298  1  -0.00592030  0.49637210  0.12027194  1
  O  O299  1  0.03334192  0.51218985  0.69515171  1
  O  O300  1  0.47484630  0.00355461  0.10821288  1
  O  O301  1  0.50986936  -0.00798377  0.61994012  1
  O  O302  1  0.51386450  0.50492976  0.11360845  1
  O  O303  1  0.50462659  0.50799316  0.61252265  1
  O  O304  1  0.23804806  0.36799915  0.23437028  1
  O  O305  1  0.20328445  0.38082484  0.79194887  1
  O  O306  1  0.30271717  0.96780752  0.27663423  1
  O  O307  1  0.25816593  0.86843533  0.75702451  1
  O  O308  1  0.77145180  0.39141384  0.23727662  1
  O  O309  1  0.74777192  0.38946429  0.75970689  1
  O  O310  1  0.74672652  0.88415880  0.23676723  1
  O  O311  1  0.74374779  0.89274356  0.73731764  1
  O  O312  1  0.22127965  0.13668959  0.25684864  1
  O  O313  1  0.24485998  0.13128860  0.76199204  1
  O  O314  1  0.27029578  0.64905577  0.27083997  1
  O  O315  1  0.27404233  0.63698939  0.77177148  1
  O  O316  1  0.73481907  0.11183187  0.23962815  1
  O  O317  1  0.73985861  0.11298279  0.76242469  1
  O  O318  1  0.76959281  0.61125889  0.24345443  1
  O  O319  1  0.74334041  0.61859411  0.76399845  1
  O  O320  1  0.39315843  0.12809987  0.37169250  1
  O  O321  1  0.36294575  0.11066129  0.87650692  1
  O  O322  1  0.35871751  0.63125314  0.40674333  1
  O  O323  1  0.41111951  0.60864459  0.84784378  1
  O  O324  1  0.87523121  0.13864764  0.38356595  1
  O  O325  1  0.85559249  0.11308509  0.88138275  1
  O  O326  1  0.87662717  0.63613044  0.37045663  1
  O  O327  1  0.86058679  0.62468300  0.88287476  1
  O  O328  1  0.14261507  0.37018531  0.11501700  1
  O  O329  1  0.18968471  0.32217610  0.65140384  1
  O  O330  1  0.11819285  0.89233460  0.11485741  1
  O  O331  1  0.12797938  0.87807908  0.61857229  1
  O  O332  1  0.62324254  0.38417109  0.11471511  1
  O  O333  1  0.63235793  0.37324014  0.61674869  1
  O  O334  1  0.63634310  0.86210893  0.13318670  1
  O  O335  1  0.63335302  0.88014852  0.61941646  1
  O  O336  1  0.11308922  0.26836767  0.23379839  1
  O  O337  1  0.23401994  0.26618336  0.67889127  1
  O  O338  1  0.10267085  0.75797900  0.22640668  1
  O  O339  1  0.10031164  0.73581212  0.72402450  1
  O  O340  1  0.61743270  0.25675085  0.25190768  1
  O  O341  1  0.61128427  0.25149233  0.77203054  1
  O  O342  1  0.64289254  0.76003584  0.26446128  1
  O  O343  1  0.61312331  0.73976108  0.76285847  1
  O  O344  1  0.37147427  0.24597075  0.23658960  1
  O  O345  1  0.38977997  0.26428555  0.75504851  1
  O  O346  1  0.32111326  0.80769286  0.16663956  1
  O  O347  1  0.39702835  0.73709655  0.73823134  1
  O  O348  1  0.89540278  0.25528212  0.25688720  1
  O  O349  1  0.87043078  0.23870636  0.74791707  1
  O  O350  1  0.87007674  0.73784533  0.23997284  1
  O  O351  1  0.87255990  0.77304040  0.73713212  1
  O  O352  1  0.35988114  0.48258172  0.50560853  1
  O  O353  1  0.39547860  0.51010843  1.00130822  1
  O  O354  1  0.40138181  1.01221888  0.50239415  1
  O  O355  1  0.35971462  0.99492025  0.98195254  1
  O  O356  1  0.90163828  0.50328586  0.55725263  1
  O  O357  1  0.89185745  0.49930835  0.98647919  1
  O  O358  1  0.86509511  0.99321097  0.49655580  1
  O  O359  1  0.87868477  0.99902016  0.99726735  1
  O  O360  1  0.10554694  0.00442521  0.00317969  1
  O  O361  1  0.13060204  0.00898386  0.52612242  1
  O  O362  1  0.11010456  0.50468743  0.00387090  1
  O  O363  1  0.11281117  0.44886526  0.53229850  1
  O  O364  1  0.61840247  0.00962185  -0.01263920  1
  O  O365  1  0.61002554  0.02070886  0.48954464  1
  O  O366  1  0.62233840  0.51015213  0.00905673  1
  O  O367  1  0.61989143  0.49149719  0.49607551  1
  O  O368  1  0.36419794  0.36084362  0.12583630  1
  O  O369  1  0.37511173  0.36990632  0.61226954  1
  O  O370  1  0.36739823  0.85353015  0.12031890  1
  O  O371  1  0.38415584  0.85821537  0.63115624  1
  O  O372  1  0.88270614  0.37392631  0.10458883  1
  O  O373  1  0.88578132  0.36206813  0.63676491  1
  O  O374  1  0.86203978  0.87163961  0.11396107  1
  O  O375  1  0.85804714  0.87419636  0.61110381  1
  O  O376  1  0.12935404  0.10324751  0.40465946  1
  O  O377  1  0.14323930  0.10595263  0.88690681  1
  O  O378  1  0.13468687  0.64640420  0.34716594  1
  O  O379  1  0.14081297  0.61730807  0.85453723  1
  O  O380  1  0.59877822  0.14435103  0.35751170  1
  O  O381  1  0.62928086  0.12896711  0.88027092  1
  O  O382  1  0.61899480  0.63797746  0.36554144  1
  O  O383  1  0.63071783  0.63348602  0.88280737  1
