# generated using pymatgen
data_VZnO4
_symmetry_space_group_name_H-M   'P 1'
_cell_length_a   16.96631907
_cell_length_b   16.95735233
_cell_length_c   17.04457779
_cell_angle_alpha   89.97900829
_cell_angle_beta   89.23196608
_cell_angle_gamma   90.32148920
_symmetry_Int_Tables_number   1
_chemical_formula_structural   VZnO4
_chemical_formula_sum   'V64 Zn64 O256'
_cell_volume   4903.27242273
_cell_formula_units_Z   64
loop_
 _symmetry_equiv_pos_site_id
 _symmetry_equiv_pos_as_xyz
  1  'x, y, z'
loop_
 _atom_site_type_symbol
 _atom_site_label
 _atom_site_symmetry_multiplicity
 _atom_site_fract_x
 _atom_site_fract_y
 _atom_site_fract_z
 _atom_site_occupancy
  V  V0  1  0.13568405  0.87111922  0.74356093  1
  V  V1  1  0.13183585  0.01228511  0.10320259  1
  V  V2  1  0.86754796  0.90428610  -0.00143387  1
  V  V3  1  0.02376635  0.76446821  0.23623603  1
  V  V4  1  0.00800622  0.13242347  0.10512586  1
  V  V5  1  0.87160015  0.38190497  0.00447872  1
  V  V6  1  0.61657030  0.61978483  0.50792975  1
  V  V7  1  0.49897952  0.62816799  0.12662453  1
  V  V8  1  0.38932144  0.38511207  0.50435480  1
  V  V9  1  0.88345184  0.63149483  0.24793953  1
  V  V10  1  0.62314990  0.37874340  0.25334488  1
  V  V11  1  0.86041187  0.20857328  0.60571272  1
  V  V12  1  0.37783632  0.25979741  0.11768687  1
  V  V13  1  0.37535071  0.62492698  0.24751754  1
  V  V14  1  0.24736107  0.36807664  0.12421139  1
  V  V15  1  0.12087544  0.23839806  0.37498527  1
  V  V16  1  0.37857808  0.63756485  0.76255893  1
  V  V17  1  0.75976085  0.12321367  0.34229384  1
  V  V18  1  0.48939993  0.33687414  0.88516948  1
  V  V19  1  0.36968724  0.87268219  0.00636678  1
  V  V20  1  0.48681795  0.89054976  0.36999224  1
  V  V21  1  -0.00442845  0.74900998  0.75969165  1
  V  V22  1  0.92549792  -0.04862007  0.38160883  1
  V  V23  1  0.87269886  0.37941408  0.49623589  1
  V  V24  1  -0.00202918  0.39134234  0.36590394  1
  V  V25  1  0.39423911  0.49462466  0.37358756  1
  V  V26  1  0.01171266  0.62448411  0.10560845  1
  V  V27  1  0.73968049  0.23833964  0.49015924  1
  V  V28  1  0.36701222  0.74608470  0.12294654  1
  V  V29  1  0.24117411  0.62422583  0.38220770  1
  V  V30  1  0.76294609  0.75539692  0.50087223  1
  V  V31  1  0.75749180  0.62827588  0.37145834  1
  V  V32  1  0.24983477  0.63562550  0.89528319  1
  V  V33  1  0.66074927  0.23125265  0.86663593  1
  V  V34  1  0.87124026  0.75449912  0.10770377  1
  V  V35  1  0.62821396  0.36775165  0.75387539  1
  V  V36  1  0.23706239  0.49836794  0.25187116  1
  V  V37  1  0.49458245  0.12009355  0.13191776  1
  V  V38  1  0.63503163  0.12389224  0.00143364  1
  V  V39  1  0.62876069  0.49925394  0.12278830  1
  V  V40  1  0.15823356  0.04095040  0.64512781  1
  V  V41  1  0.75593614  0.62150930  0.85811903  1
  V  V42  1  0.50255179  0.48907865  -0.01328850  1
  V  V43  1  0.50744321  -0.00475531  0.00621911  1
  V  V44  1  0.63053819  0.89263409  0.24180349  1
  V  V45  1  0.62137242  0.24633483  0.37272591  1
  V  V46  1  0.60884487  0.74229219  0.36356774  1
  V  V47  1  0.25920617  0.26168730  0.49718357  1
  V  V48  1  0.62864277  0.75072476  0.85969257  1
  V  V49  1  0.51016869  0.86859335  0.86815609  1
  V  V50  1  0.63343590  0.63916701  0.00063425  1
  V  V51  1  0.12757520  0.75728578  0.39661597  1
  V  V52  1  0.12519088  0.49574603  0.10782020  1
  V  V53  1  -0.00458487  0.24417286  0.24529188  1
  V  V54  1  0.73495372  0.87176722  0.64440825  1
  V  V55  1  0.12438329  0.38399491  0.74209680  1
  V  V56  1  0.01208130  0.89224219  0.88245542  1
  V  V57  1  0.23875834  0.87788733  0.13610137  1
  V  V58  1  0.86521159  0.01559528  0.85063519  1
  V  V59  1  0.62174524  0.01459668  0.57210829  1
  V  V60  1  0.49140624  0.25750734  0.25610698  1
  V  V61  1  0.75907421  0.49835980  0.25081048  1
  V  V62  1  0.74994812  0.36717341  0.63318361  1
  V  V63  1  0.37253084  -0.00492063  0.86223177  1
  Zn  Zn64  1  0.18100022  0.19231543  0.19483227  1
  Zn  Zn65  1  0.18394160  0.22045968  0.68506272  1
  Zn  Zn66  1  0.18942618  0.69261563  0.05378624  1
  Zn  Zn67  1  0.17818227  0.66738212  0.73565989  1
  Zn  Zn68  1  0.68291098  0.19617441  0.17624728  1
  Zn  Zn69  1  0.58049025  0.16755046  0.68104797  1
  Zn  Zn70  1  0.69265790  0.68712026  0.18324294  1
  Zn  Zn71  1  0.69159093  0.68992278  0.68397491  1
  Zn  Zn72  1  0.31074255  0.31971796  0.31377004  1
  Zn  Zn73  1  0.31468511  0.43303401  0.82236495  1
  Zn  Zn74  1  0.30609416  0.80729885  0.30934107  1
  Zn  Zn75  1  0.30691669  0.80983344  0.82389116  1
  Zn  Zn76  1  0.81723092  0.31246878  0.30918733  1
  Zn  Zn77  1  0.91108225  0.21634668  0.81131531  1
  Zn  Zn78  1  0.81203901  0.81094908  0.29463003  1
  Zn  Zn79  1  0.81328382  0.81498470  0.82599897  1
  Zn  Zn80  1  0.18462990  0.42984652  0.42797854  1
  Zn  Zn81  1  0.18606921  0.40116257  0.93548883  1
  Zn  Zn82  1  0.10924180  0.94159352  0.47013503  1
  Zn  Zn83  1  0.20447203  1.07547088  0.93090493  1
  Zn  Zn84  1  0.68730114  0.43358127  0.43201996  1
  Zn  Zn85  1  0.68394714  0.43924701  0.92454830  1
  Zn  Zn86  1  0.70355166  0.92897472  0.40042375  1
  Zn  Zn87  1  0.69277719  0.93922929  0.93725921  1
  Zn  Zn88  1  0.31754912  0.06158443  0.06804142  1
  Zn  Zn89  1  0.31352755  0.11352959  0.57412186  1
  Zn  Zn90  1  0.31900128  0.54453759  0.05767256  1
  Zn  Zn91  1  0.29271383  0.66099503  0.58242094  1
  Zn  Zn92  1  0.81931082  0.06680020  0.07911985  1
  Zn  Zn93  1  0.82590798  0.00212244  0.56230186  1
  Zn  Zn94  1  0.81281384  0.57320962  0.06577906  1
  Zn  Zn95  1  0.76661192  0.53596196  0.54334439  1
  Zn  Zn96  1  0.43933882  0.44104694  0.18810959  1
  Zn  Zn97  1  0.39321337  0.50007249  0.64575033  1
  Zn  Zn98  1  0.44481027  0.92402773  0.19147291  1
  Zn  Zn99  1  0.48893297  0.98924277  0.71042030  1
  Zn  Zn100  1  0.94490057  0.44036694  0.18968372  1
  Zn  Zn101  1  0.93006891  0.42087218  0.80434187  1
  Zn  Zn102  1  0.93469191  0.95125516  0.18314448  1
  Zn  Zn103  1  0.91227584  0.89342029  0.70299500  1
  Zn  Zn104  1  0.03993900  0.05902875  0.31548245  1
  Zn  Zn105  1  0.06173310  0.06620092  0.80741401  1
  Zn  Zn106  1  0.06151903  0.57265303  0.30721194  1
  Zn  Zn107  1  0.06443889  0.56617918  0.83297812  1
  Zn  Zn108  1  0.56519034  0.06347199  0.31050986  1
  Zn  Zn109  1  0.51323530  0.12649932  0.84649295  1
  Zn  Zn110  1  0.56733367  0.56903017  0.30867095  1
  Zn  Zn111  1  0.50771794  0.50746793  0.76825108  1
  Zn  Zn112  1  0.27181385  0.13469940  0.36777359  1
  Zn  Zn113  1  0.37329719  0.17933459  0.94247703  1
  Zn  Zn114  1  0.43416023  0.67250422  0.44116039  1
  Zn  Zn115  1  0.44292780  0.68146160  0.93780436  1
  Zn  Zn116  1  0.92896426  0.19134809  0.42541582  1
  Zn  Zn117  1  1.08374642  0.22751403  0.88040074  1
  Zn  Zn118  1  0.92831729  0.74242113  0.40541398  1
  Zn  Zn119  1  0.94653108  0.68924563  0.92252223  1
  Zn  Zn120  1  0.06828420  0.31222182  0.05625700  1
  Zn  Zn121  1  0.05645728  0.30586618  0.54618081  1
  Zn  Zn122  1  0.05768134  0.82771770  0.05186048  1
  Zn  Zn123  1  0.10879814  0.75351801  0.60235163  1
  Zn  Zn124  1  0.58283826  0.30442135  0.06207672  1
  Zn  Zn125  1  0.56723268  0.43792324  0.57873015  1
  Zn  Zn126  1  0.56478073  0.81275898  0.07564184  1
  Zn  Zn127  1  0.58299115  0.83945216  0.52549318  1
  O  O128  1  0.13991588  0.11502815  0.12357949  1
  O  O129  1  0.11983748  0.13461062  0.65523558  1
  O  O130  1  0.11990576  0.61025633  0.11224347  1
  O  O131  1  0.09933738  0.58391584  0.72767162  1
  O  O132  1  0.60108194  0.13632761  0.10925080  1
  O  O133  1  0.61760717  0.11501880  0.58663252  1
  O  O134  1  0.61803172  0.62032401  0.11954058  1
  O  O135  1  0.63267385  0.63540090  0.60459233  1
  O  O136  1  0.37783103  0.39173638  0.37249822  1
  O  O137  1  0.39842684  0.37074753  0.88177966  1
  O  O138  1  0.38865214  0.87106402  0.35034591  1
  O  O139  1  0.38998197  0.87349486  0.89308639  1
  O  O140  1  0.88504953  0.36988114  0.38346274  1
  O  O141  1  0.87129684  0.39691490  0.90296744  1
  O  O142  1  0.89620123  0.85195407  0.36696498  1
  O  O143  1  0.87670395  0.88946297  0.89007239  1
  O  O144  1  0.20354029  0.02547541  0.27711612  1
  O  O145  1  0.27482894  -0.00310774  0.87820971  1
  O  O146  1  0.24224592  0.50728864  0.36308793  1
  O  O147  1  0.25684994  0.48953752  0.90259647  1
  O  O148  1  0.74493916  0.02563293  0.35559388  1
  O  O149  1  0.76338235  -0.00032704  0.87375864  1
  O  O150  1  0.74706977  0.51276005  0.35789314  1
  O  O151  1  0.73907984  0.52145226  0.87272689  1
  O  O152  1  0.24318511  0.49167972  0.13334627  1
  O  O153  1  0.14921288  0.53680095  0.56884110  1
  O  O154  1  0.24605547  0.98757606  0.12349303  1
  O  O155  1  0.25970125  1.05278092  0.65190090  1
  O  O156  1  0.73611231  0.51576456  0.13900002  1
  O  O157  1  0.75352933  0.46758836  0.63053926  1
  O  O158  1  0.82986852  0.98810982  0.15636678  1
  O  O159  1  0.71559043  0.98185863  0.61551533  1
  O  O160  1  -0.00286719  0.37061019  0.26132025  1
  O  O161  1  0.02146437  0.36413991  0.76479339  1
  O  O162  1  0.00171684  0.86153351  0.22591112  1
  O  O163  1  0.01309471  0.87027491  0.75886546  1
  O  O164  1  0.50832587  0.36530500  0.24386272  1
  O  O165  1  0.52211254  0.35440065  0.78546061  1
  O  O166  1  0.51816436  0.87264834  0.25786574  1
  O  O167  1  0.50962270  0.88016046  0.77260289  1
  O  O168  1  0.50713081  0.14027442  0.23591005  1
  O  O169  1  0.53571948  0.08519575  0.74645194  1
  O  O170  1  0.48757859  0.61489419  0.23727966  1
  O  O171  1  0.47853327  0.62266495  0.76846924  1
  O  O172  1  1.00590749  0.14129669  0.24320986  1
  O  O173  1  1.02000262  0.17707798  0.79174358  1
  O  O174  1  0.99634056  0.63540615  0.23812681  1
  O  O175  1  0.99372606  0.65799871  0.81337907  1
  O  O176  1  0.37913318  0.26355007  0.02062617  1
  O  O177  1  0.36585475  0.28008739  0.48684600  1
  O  O178  1  0.38853655  0.76305645  0.01318948  1
  O  O179  1  0.37002427  0.72711992  0.52057444  1
  O  O180  1  0.85338653  0.28171469  -0.00134556  1
  O  O181  1  0.85212582  0.25362473  0.48772646  1
  O  O182  1  0.88274653  0.74079731  0.00973779  1
  O  O183  1  0.86259833  0.74145692  0.49499899  1
  O  O184  1  0.14016182  0.25802421  0.48344508  1
  O  O185  1  0.11932263  0.30640073  0.95691126  1
  O  O186  1  0.10335105  0.73469098  0.48936056  1
  O  O187  1  0.10867533  0.74412266  1.00234366  1
  O  O188  1  0.63031261  0.25981578  0.47369604  1
  O  O189  1  0.62409833  0.23049768  0.97907302  1
  O  O190  1  0.63377166  0.73603319  0.47988737  1
  O  O191  1  0.62377106  0.73850764  1.01036068  1
  O  O192  1  0.49054565  0.25065795  0.13287947  1
  O  O193  1  0.48807841  0.24654330  0.65904186  1
  O  O194  1  0.48933651  0.73329452  0.12255937  1
  O  O195  1  0.42561608  0.77007231  0.58100226  1
  O  O196  1  1.02675980  0.24392293  0.13768739  1
  O  O197  1  0.97573107  0.21677283  0.57802400  1
  O  O198  1  0.99913250  0.73640464  0.12576165  1
  O  O199  1  1.01296418  0.72732840  0.66217692  1
  O  O200  1  0.00614990  0.25446312  0.36244490  1
  O  O201  1  -0.02349718  0.26204646  0.89484235  1
  O  O202  1  0.02766869  0.74777665  0.35110242  1
  O  O203  1  -0.00708247  0.78653652  0.87694464  1
  O  O204  1  0.51177000  0.24796745  0.35667353  1
  O  O205  1  0.47743321  0.23443596  0.89073134  1
  O  O206  1  0.50951406  0.72757565  0.37018823  1
  O  O207  1  0.51266111  0.76157242  0.88714899  1
  O  O208  1  0.28082444  0.14904933  0.47440203  1
  O  O209  1  0.28052167  0.13263742  0.99022947  1
  O  O210  1  0.25556714  0.61960530  0.47891860  1
  O  O211  1  0.26392972  0.62257103  1.00281344  1
  O  O212  1  0.74079364  0.14239277  0.46746059  1
  O  O213  1  0.73086390  0.11195327  1.02304118  1
  O  O214  1  0.74678088  0.63194091  0.48757307  1
  O  O215  1  0.73347093  0.62189407  1.00232594  1
  O  O216  1  0.25749547  0.37327944  0.02774199  1
  O  O217  1  0.25251019  0.36812627  0.48909850  1
  O  O218  1  0.27178777  0.87592770  0.01166988  1
  O  O219  1  0.33469818  0.92597046  0.52174530  1
  O  O220  1  0.76681107  0.39518420  0.00758960  1
  O  O221  1  0.75129032  0.36367154  0.49751581  1
  O  O222  1  0.76870985  0.88392628  0.00442454  1
  O  O223  1  0.74671017  0.85236041  0.47780708  1
  O  O224  1  0.13671967  0.50808763  0.24112480  1
  O  O225  1  0.10219293  0.46537704  0.68602189  1
  O  O226  1  0.13214811  1.01158733  0.24739168  1
  O  O227  1  0.11666545  0.99005776  0.73048285  1
  O  O228  1  0.63388465  0.49893729  0.24227848  1
  O  O229  1  0.62648487  0.46512152  0.76505504  1
  O  O230  1  0.62258497  0.99259342  0.24009294  1
  O  O231  1  0.69187338  1.05313816  0.76396153  1
  O  O232  1  0.36065135  0.00796573  0.25703939  1
  O  O233  1  0.38713175  -0.02182419  0.76498262  1
  O  O234  1  0.36916366  0.50546082  0.25744172  1
  O  O235  1  0.38492880  0.49348462  0.76331912  1
  O  O236  1  0.92317600  0.00098562  0.29298894  1
  O  O237  1  0.86979856  -0.01034974  0.75274490  1
  O  O238  1  0.86417257  0.51040158  0.23772599  1
  O  O239  1  0.87741518  0.32386313  0.78627394  1
  O  O240  1  0.10015096  0.36927713  0.38439492  1
  O  O241  1  0.12211839  0.43420327  0.83363390  1
  O  O242  1  0.14411724  0.85673751  0.40267813  1
  O  O243  1  0.10983749  0.90095626  0.87027967  1
  O  O244  1  0.62608994  0.37066772  0.35845261  1
  O  O245  1  0.64862182  0.34461733  0.86928347  1
  O  O246  1  0.60628328  0.85287509  0.36525515  1
  O  O247  1  0.61880361  0.86238860  0.88660934  1
  O  O248  1  0.38736865  0.14194175  0.12597716  1
  O  O249  1  0.42186596  0.13962710  0.61391119  1
  O  O250  1  0.38017455  0.62574179  0.12857670  1
  O  O251  1  0.35798141  0.60827714  0.65763821  1
  O  O252  1  0.90782971  0.13269886  0.10795059  1
  O  O253  1  0.85020038  0.11198406  0.58355102  1
  O  O254  1  0.88988869  0.63044266  0.12942685  1
  O  O255  1  0.93693463  0.54781715  0.68535864  1
  O  O256  1  0.26311475  0.26023483  0.14424308  1
  O  O257  1  0.25473468  0.23952429  0.59732772  1
  O  O258  1  0.25900484  0.76433060  0.11715284  1
  O  O259  1  0.20119215  0.69822093  0.63138539  1
  O  O260  1  0.68913946  0.27591901  0.10087556  1
  O  O261  1  0.74780623  0.24162432  0.59731551  1
  O  O262  1  0.77232871  0.74419752  0.12643384  1
  O  O263  1  0.75253279  0.75949205  0.60736463  1
  O  O264  1  0.23701008  0.25068025  0.36973504  1
  O  O265  1  0.25196273  0.34197408  0.85861279  1
  O  O266  1  0.23719200  0.73534996  0.36902089  1
  O  O267  1  0.24932606  0.73651323  0.89228856  1
  O  O268  1  0.73645923  0.25248685  0.36639577  1
  O  O269  1  0.75483358  0.21826444  0.86628729  1
  O  O270  1  0.74766381  0.73623886  0.37514993  1
  O  O271  1  0.73280292  0.74704505  0.87465135  1
  O  O272  1  0.03109125  0.14530458  0.01205616  1
  O  O273  1  -0.00643538  0.16347785  0.51874199  1
  O  O274  1  -0.00368096  0.62176340  0.00951917  1
  O  O275  1  -0.03012739  0.53376477  0.61977280  1
  O  O276  1  0.50129849  0.10392434  0.01118502  1
  O  O277  1  0.42506609  0.21991799  0.62471408  1
  O  O278  1  0.51394169  0.61095634  0.00709728  1
  O  O279  1  0.51792710  0.61782740  0.49770458  1
  O  O280  1  0.48979874  0.38681975  0.50862797  1
  O  O281  1  0.52555348  0.37705938  0.98521233  1
  O  O282  1  0.49254388  0.86204325  0.46843442  1
  O  O283  1  0.49800344  0.88630274  1.02016329  1
  O  O284  1  0.98052656  0.37019073  0.49233483  1
  O  O285  1  0.97536180  0.37344399  1.00603854  1
  O  O286  1  1.01182611  0.88088566  0.54471558  1
  O  O287  1  0.99041113  0.89322643  0.98969112  1
  O  O288  1  0.49306200  0.50409689  0.36739424  1
  O  O289  1  0.51305713  0.49733320  0.88877302  1
  O  O290  1  0.49785810  0.99118760  0.36820955  1
  O  O291  1  0.49816588  0.97797574  0.89764457  1
  O  O292  1  1.00109718  0.49115493  0.36397040  1
  O  O293  1  0.98709531  0.49327634  0.86603729  1
  O  O294  1  1.02674018  0.97659327  0.40089341  1
  O  O295  1  0.98237489  0.99591226  0.86066093  1
  O  O296  1  0.02463468  0.01791340  0.12724072  1
  O  O297  1  -0.01136167  -0.06738313  0.59249408  1
  O  O298  1  0.01709762  0.51033680  0.13154386  1
  O  O299  1  -0.10952217  0.49012029  0.71822121  1
  O  O300  1  0.48784880  0.01310860  0.12621849  1
  O  O301  1  0.53546251  -0.02673962  0.60981639  1
  O  O302  1  0.51325328  0.50845705  0.12243720  1
  O  O303  1  0.50637757  0.49405165  0.65376042  1
  O  O304  1  0.25223538  0.39430080  0.24756701  1
  O  O305  1  0.22665289  0.40526151  0.72908965  1
  O  O306  1  0.24725951  0.87207264  0.23402007  1
  O  O307  1  0.23342666  0.87292987  0.76742717  1
  O  O308  1  0.74696182  0.39377162  0.25157375  1
  O  O309  1  0.74234992  0.35070191  0.73355160  1
  O  O310  1  0.72776317  0.88121131  0.28261423  1
  O  O311  1  0.74030056  0.86356143  0.74241365  1
  O  O312  1  0.23272697  0.10534449  0.26627512  1
  O  O313  1  0.28048668  0.18123275  0.75838129  1
  O  O314  1  0.26383971  0.60819693  0.25603498  1
  O  O315  1  0.26391841  0.61334910  0.78657149  1
  O  O316  1  0.74846648  0.14042769  0.24196982  1
  O  O317  1  0.74059409  0.09711421  0.73468636  1
  O  O318  1  0.76219151  0.61969177  0.25343667  1
  O  O319  1  0.75294338  0.63405465  0.75797710  1
  O  O320  1  0.37467272  0.05385694  0.31323523  1
  O  O321  1  0.40234150  0.09590251  0.87060945  1
  O  O322  1  0.36541365  0.61530213  0.36510688  1
  O  O323  1  0.36647303  0.62426477  0.87891145  1
  O  O324  1  0.85863427  0.13849616  0.35798191  1
  O  O325  1  0.87468332  0.11545954  0.85291612  1
  O  O326  1  0.87240501  0.64069004  0.35574793  1
  O  O327  1  0.85082530  0.63545163  0.88494758  1
  O  O328  1  0.13678522  0.38242109  0.12839956  1
  O  O329  1  0.11110945  0.32965795  0.64856852  1
  O  O330  1  0.13611313  0.88991945  0.11634453  1
  O  O331  1  0.13678837  0.86035801  0.64313337  1
  O  O332  1  0.61901975  0.39724853  0.13569593  1
  O  O333  1  0.63260361  0.36041027  0.64150531  1
  O  O334  1  0.63612908  0.86145024  0.14644191  1
  O  O335  1  0.63627732  0.85136939  0.61994642  1
  O  O336  1  0.11889087  0.25515395  0.26780641  1
  O  O337  1  0.14899823  0.28444014  0.77778245  1
  O  O338  1  0.12005649  0.75652324  0.22991947  1
  O  O339  1  0.11473361  0.76493527  0.76974537  1
  O  O340  1  0.61695255  0.26490435  0.25146827  1
  O  O341  1  0.62725784  0.23474109  0.76639337  1
  O  O342  1  0.63014472  0.73582102  0.26397147  1
  O  O343  1  0.62008388  0.74327838  0.76315733  1
  O  O344  1  0.38892502  0.25374577  0.25320093  1
  O  O345  1  0.33510447  0.22718142  0.77724191  1
  O  O346  1  0.36614059  0.73442768  0.23517151  1
  O  O347  1  0.36941351  0.73857029  0.75920194  1
  O  O348  1  0.89577676  0.25868622  0.24334319  1
  O  O349  1  0.87305073  0.20765853  0.70250933  1
  O  O350  1  0.88542650  0.74427686  0.23347587  1
  O  O351  1  0.89304544  0.78070088  0.75024398  1
  O  O352  1  0.37320953  0.49711238  0.47457651  1
  O  O353  1  0.40515643  0.48846323  1.01062511  1
  O  O354  1  0.36660358  0.98934330  0.50538633  1
  O  O355  1  0.38801499  0.98429571  1.00398251  1
  O  O356  1  0.85953249  0.47826200  0.50219847  1
  O  O357  1  0.87609173  0.48856639  1.01690321  1
  O  O358  1  0.87068917  0.98973590  0.45668883  1
  O  O359  1  0.87324208  1.00466421  0.99158573  1
  O  O360  1  0.13669634  0.01079158  0.00585793  1
  O  O361  1  0.14013432  0.00642944  0.55113776  1
  O  O362  1  0.12753176  0.48153531  0.01136980  1
  O  O363  1  0.11492368  0.49065112  0.52352887  1
  O  O364  1  0.61358954  0.00408953  0.00089984  1
  O  O365  1  0.63006863  -0.01678515  0.47667077  1
  O  O366  1  0.62417180  0.50287045  0.01340946  1
  O  O367  1  0.64057538  0.50954313  0.50657146  1
  O  O368  1  0.36641878  0.36609009  0.13864112  1
  O  O369  1  0.35941992  0.40216798  0.59883637  1
  O  O370  1  0.36960962  0.86729028  0.12435912  1
  O  O371  1  0.38922007  0.81769254  0.62257643  1
  O  O372  1  0.87743724  0.37894997  0.11005338  1
  O  O373  1  0.85708668  0.34601210  0.60381176  1
  O  O374  1  0.89095309  0.86018939  0.10361425  1
  O  O375  1  0.83776941  0.89745146  0.61457492  1
  O  O376  1  0.11154683  0.13844380  0.37878815  1
  O  O377  1  0.14019141  0.13154160  0.86235546  1
  O  O378  1  0.13711427  0.62848975  0.37213467  1
  O  O379  1  0.15039306  0.60613377  0.89186877  1
  O  O380  1  0.63123964  0.14419073  0.35860560  1
  O  O381  1  0.62361400  0.12372602  0.89136854  1
  O  O382  1  0.63660591  0.62732555  0.37930643  1
  O  O383  1  0.62935409  0.64176443  0.89151056  1
