# generated using pymatgen
data_VZnO4
_symmetry_space_group_name_H-M   'P 1'
_cell_length_a   17.03626283
_cell_length_b   16.90004592
_cell_length_c   16.95867983
_cell_angle_alpha   90.08084526
_cell_angle_beta   89.88872129
_cell_angle_gamma   89.96912111
_symmetry_Int_Tables_number   1
_chemical_formula_structural   VZnO4
_chemical_formula_sum   'V64 Zn64 O256'
_cell_volume   4882.62018269
_cell_formula_units_Z   64
loop_
 _symmetry_equiv_pos_site_id
 _symmetry_equiv_pos_as_xyz
  1  'x, y, z'
loop_
 _atom_site_type_symbol
 _atom_site_label
 _atom_site_symmetry_multiplicity
 _atom_site_fract_x
 _atom_site_fract_y
 _atom_site_fract_z
 _atom_site_occupancy
  V  V0  1  0.61470433  0.75760589  0.87261927  1
  V  V1  1  0.86519307  0.62997635  0.25033460  1
  V  V2  1  0.50079670  0.62906126  0.12332837  1
  V  V3  1  0.10970827  0.26281881  0.36683516  1
  V  V4  1  -0.00417342  0.49055004  0.00654882  1
  V  V5  1  0.75450466  -0.00139848  0.24299982  1
  V  V6  1  0.61970015  0.35015590  0.27049898  1
  V  V7  1  0.62947420  0.24845748  0.87159891  1
  V  V8  1  0.73731798  0.38534238  0.62474850  1
  V  V9  1  0.38390548  0.24532175  0.62062630  1
  V  V10  1  0.62908718  0.63390002  -0.00760747  1
  V  V11  1  0.74625774  0.25340548  0.50639650  1
  V  V12  1  0.62440042  0.88446892  0.25988613  1
  V  V13  1  0.87631069  0.86819643  0.51297612  1
  V  V14  1  0.11772280  0.50030790  0.63120049  1
  V  V15  1  0.74313265  0.62849468  0.38690668  1
  V  V16  1  0.50776471  0.00357853  -0.00543053  1
  V  V17  1  0.50422281  0.75058842  0.27027787  1
  V  V18  1  0.63250653  0.88290811  0.74381533  1
  V  V19  1  0.22879723  0.62373138  0.37364736  1
  V  V20  1  0.24902808  0.11708448  0.37848580  1
  V  V21  1  0.01063845  0.25967233  0.75802407  1
  V  V22  1  0.23321236  0.87528329  0.11696415  1
  V  V23  1  0.38731525  0.35580425  -0.00525925  1
  V  V24  1  0.25238919  -0.01189678  0.76217998  1
  V  V25  1  -0.00830470  0.74310493  0.74742125  1
  V  V26  1  0.23610180  0.25633631  0.51005018  1
  V  V27  1  0.88913782  0.49869243  0.37895345  1
  V  V28  1  -0.00179609  0.11920287  0.63196011  1
  V  V29  1  0.24761712  0.87496300  0.61606064  1
  V  V30  1  0.00826894  0.87177987  0.37573259  1
  V  V31  1  0.88630748  0.37713790  0.50262919  1
  V  V32  1  0.49486113  0.50688344  -0.01271950  1
  V  V33  1  0.13106913  0.63102406  0.00282014  1
  V  V34  1  0.23545142  -0.00829118  0.24996861  1
  V  V35  1  0.88679365  0.13993128  0.24610063  1
  V  V36  1  0.38178541  0.37863930  0.48960837  1
  V  V37  1  0.22584426  0.49366593  0.23691594  1
  V  V38  1  0.76091848  0.85507657  0.12008984  1
  V  V39  1  0.88095115  0.00050050  0.38249365  1
  V  V40  1  0.12985807  0.74791886  0.87430373  1
  V  V41  1  0.86700743  -0.01036961  0.87441395  1
  V  V42  1  0.74186816  0.50027137  0.75397039  1
  V  V43  1  0.37815243  0.76737184  0.12605250  1
  V  V44  1  0.11527545  0.88007429  0.75266179  1
  V  V45  1  0.74388770  0.74943634  0.51542589  1
  V  V46  1  0.80211002  0.68260221  0.93174867  1
  V  V47  1  0.00535772  -0.01644324  -0.00292086  1
  V  V48  1  0.74413927  0.13091766  0.38348608  1
  V  V49  1  0.26543354  0.35915362  0.12465258  1
  V  V50  1  0.86413677  0.12640825  0.75589655  1
  V  V51  1  0.36437229  0.74211359  0.61278324  1
  V  V52  1  0.87586052  0.62553020  0.73634953  1
  V  V53  1  0.10601184  0.11168231  0.50119931  1
  V  V54  1  0.37489329  0.61072817  0.25601418  1
  V  V55  1  0.88114367  0.48519425  0.87848794  1
  V  V56  1  0.75202069  0.36892929  0.11737601  1
  V  V57  1  0.12173292  0.12883685  0.01156672  1
  V  V58  1  0.37347414  0.12275704  0.74584569  1
  V  V59  1  0.01096163  0.75360953  0.25032268  1
  V  V60  1  -0.00471472  0.63175418  0.12418108  1
  V  V61  1  0.63360242  0.50319691  0.13567551  1
  V  V62  1  0.37905395  0.12565157  0.23691792  1
  V  V63  1  0.23787495  0.14166371  0.87682896  1
  Zn  Zn64  1  0.18576545  0.18386169  0.19200327  1
  Zn  Zn65  1  0.17693520  0.18285082  0.69375013  1
  Zn  Zn66  1  0.19065633  0.68882032  0.18395379  1
  Zn  Zn67  1  0.17975164  0.69373663  0.68108563  1
  Zn  Zn68  1  0.71722285  0.20249286  0.20644960  1
  Zn  Zn69  1  0.69467952  0.19243217  0.68149259  1
  Zn  Zn70  1  0.68884859  0.69235583  0.18856989  1
  Zn  Zn71  1  0.69103700  0.68777168  0.70234012  1
  Zn  Zn72  1  0.29096957  0.30740235  0.31031648  1
  Zn  Zn73  1  0.32481999  0.30788031  0.81537140  1
  Zn  Zn74  1  0.30156600  0.79969582  0.30654446  1
  Zn  Zn75  1  0.31515973  0.67790878  0.79710291  1
  Zn  Zn76  1  0.80706094  0.32219754  0.31172059  1
  Zn  Zn77  1  0.82803010  0.31471797  0.79822170  1
  Zn  Zn78  1  0.81498946  0.81080316  0.31670480  1
  Zn  Zn79  1  0.80856189  0.81786148  0.80052102  1
  Zn  Zn80  1  0.19322698  0.44181837  0.43035629  1
  Zn  Zn81  1  0.19151936  0.44387696  0.99501778  1
  Zn  Zn82  1  0.18219783  0.93886056  0.44009188  1
  Zn  Zn83  1  0.18372648  0.93481248  0.93768949  1
  Zn  Zn84  1  0.69377667  0.44319028  0.43186160  1
  Zn  Zn85  1  0.69130761  0.44887377  0.94106963  1
  Zn  Zn86  1  0.70544659  0.92246184  0.42796971  1
  Zn  Zn87  1  0.69941844  0.93018405  0.93251675  1
  Zn  Zn88  1  0.30178168  0.06393003  0.06765575  1
  Zn  Zn89  1  0.27422530  0.07435842  0.58177576  1
  Zn  Zn90  1  0.31868042  0.56901192  0.06468081  1
  Zn  Zn91  1  0.32406099  0.56834469  0.54291060  1
  Zn  Zn92  1  0.86296612  0.03913107  0.08346806  1
  Zn  Zn93  1  0.82217348  0.06764226  0.56195430  1
  Zn  Zn94  1  0.81568820  0.55715611  0.06699645  1
  Zn  Zn95  1  0.81091972  0.55763824  0.56072992  1
  Zn  Zn96  1  0.44855484  0.43060237  0.18119892  1
  Zn  Zn97  1  0.38479536  0.43970685  0.67901145  1
  Zn  Zn98  1  0.41708693  0.92651026  0.25205140  1
  Zn  Zn99  1  0.46786093  0.87655294  0.65736969  1
  Zn  Zn100  1  0.92662410  0.44815881  0.18633501  1
  Zn  Zn101  1  0.93273534  0.43896371  0.68475144  1
  Zn  Zn102  1  0.94226661  0.93361589  0.18764991  1
  Zn  Zn103  1  0.93924184  0.94720177  0.69399991  1
  Zn  Zn104  1  0.06170277  0.06631101  0.31152373  1
  Zn  Zn105  1  0.06071252  0.06084724  0.81637865  1
  Zn  Zn106  1  0.05696542  0.55640870  0.30393621  1
  Zn  Zn107  1  0.09423389  0.53106739  0.84437540  1
  Zn  Zn108  1  0.55337844  0.16358199  0.31779951  1
  Zn  Zn109  1  0.50745183  -0.00131508  0.77902900  1
  Zn  Zn110  1  0.58217345  0.58868417  0.29883481  1
  Zn  Zn111  1  0.53412347  0.47205516  0.78125292  1
  Zn  Zn112  1  0.40078414  0.22355234  0.39938867  1
  Zn  Zn113  1  0.42730770  0.18652846  0.92090569  1
  Zn  Zn114  1  0.43809517  0.66656302  0.44060013  1
  Zn  Zn115  1  0.41239696  0.73029637  0.92080104  1
  Zn  Zn116  1  0.93386437  0.19569760  0.43758465  1
  Zn  Zn117  1  0.96450746  0.16038824  0.91777173  1
  Zn  Zn118  1  0.92487617  0.69906003  0.42928995  1
  Zn  Zn119  1  0.96171851  0.68179581  0.92369563  1
  Zn  Zn120  1  0.07968773  0.31635582  0.06220076  1
  Zn  Zn121  1  0.05663546  0.30166649  0.56812545  1
  Zn  Zn122  1  0.05515054  0.80858758  0.06378180  1
  Zn  Zn123  1  0.05055663  0.82697484  0.57367639  1
  Zn  Zn124  1  0.57434902  0.33077667  0.05268208  1
  Zn  Zn125  1  0.55647647  0.30402469  0.45076181  1
  Zn  Zn126  1  0.57414289  0.81211098  0.07735068  1
  Zn  Zn127  1  0.57450996  0.75800015  0.58726137  1
  O  O128  1  0.14735590  0.11750463  0.10884467  1
  O  O129  1  0.11493831  0.12589847  0.60932782  1
  O  O130  1  0.11069634  0.63862001  0.11257404  1
  O  O131  1  0.12435305  0.60332468  0.62271838  1
  O  O132  1  0.58092424  0.18606959  0.12655118  1
  O  O133  1  0.65631501  0.09618952  0.61626557  1
  O  O134  1  0.62108264  0.62117489  0.12352146  1
  O  O135  1  0.60047406  0.64810660  0.63274630  1
  O  O136  1  0.36710570  0.34151248  0.39177264  1
  O  O137  1  0.38499862  0.36451784  0.89411307  1
  O  O138  1  0.36517400  0.88535737  0.35900837  1
  O  O139  1  0.36560213  0.77500460  0.82833309  1
  O  O140  1  0.86468367  0.39325812  0.38104049  1
  O  O141  1  0.87968106  0.38693737  0.87201678  1
  O  O142  1  0.87928879  0.88499106  0.38417299  1
  O  O143  1  0.87419243  0.88924205  0.85886966  1
  O  O144  1  0.23425834  0.00909523  0.36796182  1
  O  O145  1  0.24936275  -0.00446714  0.86423218  1
  O  O146  1  0.24134098  0.50484556  0.34476460  1
  O  O147  1  0.26094065  0.47104890  0.82653137  1
  O  O148  1  0.76369256  0.00770063  0.37361567  1
  O  O149  1  0.76748733  0.00297388  0.88427950  1
  O  O150  1  0.76132652  0.52143029  0.38333046  1
  O  O151  1  0.76581047  0.49224436  0.86363004  1
  O  O152  1  0.26052343  0.49906154  0.13643424  1
  O  O153  1  0.21434595  0.49014683  0.66694101  1
  O  O154  1  0.25291679  0.98378594  0.13748494  1
  O  O155  1  0.24413554  0.98388235  0.63803583  1
  O  O156  1  0.73599705  0.50160075  0.12636907  1
  O  O157  1  0.74884988  0.49604369  0.63740394  1
  O  O158  1  0.75649469  1.00629637  0.14406642  1
  O  O159  1  0.70508912  1.03831799  0.61158254  1
  O  O160  1  0.00732363  0.35539955  0.21332123  1
  O  O161  1  -0.01582709  0.35827856  0.74304898  1
  O  O162  1  -0.00600014  0.86247649  0.25957726  1
  O  O163  1  0.01210777  0.87185586  0.74633672  1
  O  O164  1  0.52568998  0.37191840  0.24056623  1
  O  O165  1  0.46093923  0.40164018  0.74536384  1
  O  O166  1  0.51434248  0.86511061  0.25992448  1
  O  O167  1  0.50457039  0.88694042  0.76460891  1
  O  O168  1  0.47874743  0.11109499  0.25144715  1
  O  O169  1  0.47186482  0.10470511  0.75224447  1
  O  O170  1  0.49210782  0.63187532  0.24536774  1
  O  O171  1  0.53184925  0.62662358  0.68165734  1
  O  O172  1  0.98496699  0.12324348  0.25208066  1
  O  O173  1  1.00358957  0.13171380  0.74266728  1
  O  O174  1  0.99276093  0.63456076  0.24209391  1
  O  O175  1  0.98375800  0.63595165  0.75543426  1
  O  O176  1  0.40012234  0.25596917  0.00427026  1
  O  O177  1  0.34798185  0.23683381  0.51171835  1
  O  O178  1  0.38609991  0.76230552  0.02672747  1
  O  O179  1  0.40953755  0.86284878  0.42913607  1
  O  O180  1  0.87775673  0.26241735  -0.00546509  1
  O  O181  1  0.86123238  0.27106901  0.48858345  1
  O  O182  1  0.86670892  0.73511827  -0.01671433  1
  O  O183  1  0.87417013  0.76250571  0.50842434  1
  O  O184  1  0.12560978  0.24521885  0.49234626  1
  O  O185  1  0.11975577  0.23053119  1.00386675  1
  O  O186  1  0.08678451  0.71718758  0.50277353  1
  O  O187  1  0.11561069  0.74163719  0.98808117  1
  O  O188  1  0.64830247  0.25547368  0.49945962  1
  O  O189  1  0.62889476  0.25266984  0.97670546  1
  O  O190  1  0.64579320  0.75681830  0.49888532  1
  O  O191  1  0.62699808  0.73912973  1.00290463  1
  O  O192  1  0.52827034  0.23438176  0.10668025  1
  O  O193  1  0.47777271  0.23435589  0.61306705  1
  O  O194  1  0.49702618  0.74488653  0.13719628  1
  O  O195  1  0.46442243  0.77848642  0.59259748  1
  O  O196  1  1.00794364  0.29829855  0.16350513  1
  O  O197  1  1.00088978  0.23364390  0.63799992  1
  O  O198  1  0.99287576  0.74536025  0.13941988  1
  O  O199  1  1.00251233  0.75360694  0.64722006  1
  O  O200  1  0.00997988  0.25282840  0.37710083  1
  O  O201  1  0.00138003  0.24806797  0.86003471  1
  O  O202  1  -0.00340686  0.76184289  0.36330919  1
  O  O203  1  0.00896197  0.75667311  0.85674885  1
  O  O204  1  0.50930221  0.21251169  0.40766692  1
  O  O205  1  0.52756709  0.23106857  0.87280198  1
  O  O206  1  0.49326124  0.73650591  0.36875479  1
  O  O207  1  0.51941808  0.76043344  0.89472645  1
  O  O208  1  0.22481834  0.12549933  0.49463521  1
  O  O209  1  0.24564048  0.11400698  0.98106459  1
  O  O210  1  0.24161593  0.60061313  0.47091864  1
  O  O211  1  0.22892071  0.61792344  1.00923564  1
  O  O212  1  0.76370340  0.14077443  0.49365827  1
  O  O213  1  0.82906294  0.21009242  1.00703081  1
  O  O214  1  0.75920187  0.63644512  0.49543092  1
  O  O215  1  0.74345452  0.62407211  1.00056900  1
  O  O216  1  0.28103365  0.37505214  0.00939795  1
  O  O217  1  0.24688183  0.35711350  0.49419461  1
  O  O218  1  0.24753203  0.88128867  0.01827759  1
  O  O219  1  0.23947228  0.88170579  0.51625581  1
  O  O220  1  0.74711053  0.38595344  0.01674444  1
  O  O221  1  0.75189851  0.37358001  0.50829360  1
  O  O222  1  0.73253036  0.87993739  0.02629023  1
  O  O223  1  0.76626658  0.86269521  0.50260285  1
  O  O224  1  0.12718756  0.49904259  0.23089391  1
  O  O225  1  0.09434575  0.50282239  0.73333219  1
  O  O226  1  0.13647690  1.00696610  0.24758534  1
  O  O227  1  0.12829083  0.98448832  0.75817821  1
  O  O228  1  0.62216492  0.50433842  0.23738905  1
  O  O229  1  0.64425959  0.49857559  0.76517157  1
  O  O230  1  0.64361272  0.98756869  0.25968147  1
  O  O231  1  0.62030374  0.98421616  0.75323557  1
  O  O232  1  0.35270893  0.01733291  0.25494580  1
  O  O233  1  0.35303421  0.01183747  0.74594097  1
  O  O234  1  0.38891308  0.51272298  0.24172857  1
  O  O235  1  0.33009614  0.52888885  0.64707256  1
  O  O236  1  0.86598179  0.00371942  0.26226785  1
  O  O237  1  0.87995491  0.01327313  0.76226605  1
  O  O238  1  0.87913874  0.51646157  0.26566006  1
  O  O239  1  0.87934848  0.51169518  0.76405978  1
  O  O240  1  0.12927105  0.36228327  0.37724563  1
  O  O241  1  0.19168609  0.46280629  0.87370882  1
  O  O242  1  0.10577886  0.87901262  0.37923975  1
  O  O243  1  0.13160063  0.86030980  0.86186749  1
  O  O244  1  0.62203434  0.37272811  0.37266219  1
  O  O245  1  0.61823199  0.35501456  0.87526048  1
  O  O246  1  0.64642919  0.85892460  0.35500778  1
  O  O247  1  0.63734566  0.86218517  0.86558180  1
  O  O248  1  0.36104511  0.13190605  0.13798929  1
  O  O249  1  0.35340440  0.13266217  0.63713121  1
  O  O250  1  0.38602873  0.63767232  0.13378976  1
  O  O251  1  0.36991705  0.67511311  0.53025944  1
  O  O252  1  0.86312497  0.13048573  0.14789308  1
  O  O253  1  0.88745654  0.11635794  0.63888723  1
  O  O254  1  0.87798287  0.61933811  0.14354362  1
  O  O255  1  0.87781678  0.61486230  0.63840230  1
  O  O256  1  0.25599490  0.26143724  0.13754539  1
  O  O257  1  0.23231916  0.24495160  0.61117521  1
  O  O258  1  0.26653613  0.76687299  0.14013020  1
  O  O259  1  0.25150818  0.75817208  0.62010865  1
  O  O260  1  0.73422982  0.26695202  0.11961824  1
  O  O261  1  0.75276266  0.26446267  0.61471963  1
  O  O262  1  0.76035338  0.75366281  0.12833124  1
  O  O263  1  0.74852483  0.73696313  0.61510540  1
  O  O264  1  0.23267891  0.23191608  0.38742384  1
  O  O265  1  0.24379588  0.24124034  0.86966622  1
  O  O266  1  0.24866767  0.72430548  0.36592097  1
  O  O267  1  0.22524877  0.73226996  0.86967172  1
  O  O268  1  0.75425637  0.23656819  0.38200012  1
  O  O269  1  0.73129716  0.26881091  0.86433502  1
  O  O270  1  0.76592164  0.73591465  0.39020702  1
  O  O271  1  0.74521490  0.74654878  0.87543917  1
  O  O272  1  0.01574920  0.11699917  0.00708010  1
  O  O273  1  0.00030568  0.13263831  0.51285813  1
  O  O274  1  -0.00147982  0.62346611  0.01428494  1
  O  O275  1  0.03356738  0.66651838  0.49221321  1
  O  O276  1  0.49366720  0.10566845  -0.02947803  1
  O  O277  1  0.47882297  0.08121594  0.53158011  1
  O  O278  1  0.51586892  0.62202361  0.01078489  1
  O  O279  1  0.50928877  0.58801595  0.50161384  1
  O  O280  1  0.48198542  0.37471999  0.49605281  1
  O  O281  1  0.49359595  0.39636294  1.00895763  1
  O  O282  1  0.47280331  0.90018929  0.43838173  1
  O  O283  1  0.51851175  0.90246976  1.01786303  1
  O  O284  1  0.98427660  0.36666601  0.50337362  1
  O  O285  1  1.00696023  0.39228478  1.01303799  1
  O  O286  1  0.98919562  0.86737119  0.48582172  1
  O  O287  1  1.00768794  0.88312813  0.99442778  1
  O  O288  1  0.55046057  0.53173960  0.46261669  1
  O  O289  1  0.51312913  0.50660206  0.88992742  1
  O  O290  1  0.56777452  1.01673473  0.45522480  1
  O  O291  1  0.47780747  0.98254884  0.89417640  1
  O  O292  1  0.98895451  0.49921705  0.37447513  1
  O  O293  1  0.98854061  0.50387599  0.89040245  1
  O  O294  1  0.98633511  0.98646804  0.36489507  1
  O  O295  1  0.99098267  1.00654116  0.88775071  1
  O  O296  1  -0.02169685  -0.00141845  0.10251401  1
  O  O297  1  0.00679291  0.01758174  0.63202747  1
  O  O298  1  -0.00993901  0.51378393  0.11435205  1
  O  O299  1  0.01290951  0.50185132  0.61735198  1
  O  O300  1  0.54352598  0.03391825  0.08589982  1
  O  O301  1  0.50224746  -0.01473311  0.61917327  1
  O  O302  1  0.51274785  0.51479268  0.11940970  1
  O  O303  1  0.51370705  0.55340601  0.67754758  1
  O  O304  1  0.25425245  0.38647198  0.23578448  1
  O  O305  1  0.27621011  0.41235619  0.77822892  1
  O  O306  1  0.24913312  0.88801542  0.25126928  1
  O  O307  1  0.23751966  0.88421550  0.74523378  1
  O  O308  1  0.72261692  0.36831008  0.24324905  1
  O  O309  1  0.76553515  0.38914725  0.73503190  1
  O  O310  1  0.75433657  0.88576788  0.24707218  1
  O  O311  1  0.73228120  0.86804023  0.73652885  1
  O  O312  1  0.24942752  0.11625388  0.26670504  1
  O  O313  1  0.23968661  0.11076890  0.76093201  1
  O  O314  1  0.26072553  0.61240878  0.24438678  1
  O  O315  1  0.22879711  0.62412878  0.75415021  1
  O  O316  1  0.76008694  0.11553118  0.26679868  1
  O  O317  1  0.76514471  0.12983153  0.74360862  1
  O  O318  1  0.76119875  0.63475107  0.26478537  1
  O  O319  1  0.76310635  0.61045888  0.74817380  1
  O  O320  1  0.34556831  0.11510199  0.39622874  1
  O  O321  1  0.35390560  0.13425107  0.85520881  1
  O  O322  1  0.37042472  0.61813409  0.35717246  1
  O  O323  1  0.37103282  0.63263402  0.88356756  1
  O  O324  1  0.87484691  0.11174326  0.37354842  1
  O  O325  1  0.87502142  0.11847299  0.86243269  1
  O  O326  1  0.87512796  0.61622098  0.37035059  1
  O  O327  1  0.86626267  0.62149461  0.87300388  1
  O  O328  1  0.16354308  0.38444907  0.09526788  1
  O  O329  1  0.11096531  0.39377168  0.62589721  1
  O  O330  1  0.13595073  0.86248248  0.12709561  1
  O  O331  1  0.13447526  0.86255776  0.64213017  1
  O  O332  1  0.63148065  0.39388372  0.12556548  1
  O  O333  1  0.64233222  0.37924129  0.62996810  1
  O  O334  1  0.64380872  0.86082561  0.15474326  1
  O  O335  1  0.59991614  0.85528262  0.64813114  1
  O  O336  1  0.12902459  0.24391150  0.26795289  1
  O  O337  1  0.11262180  0.25766856  0.74713456  1
  O  O338  1  0.10886612  0.74463637  0.24749115  1
  O  O339  1  0.11294093  0.75331548  0.75752076  1
  O  O340  1  0.62270625  0.24489901  0.26361504  1
  O  O341  1  0.62527458  0.24426206  0.76714241  1
  O  O342  1  0.60544509  0.73920963  0.25492742  1
  O  O343  1  0.62021810  0.74804598  0.76969981  1
  O  O344  1  0.36555548  0.22191796  0.27856797  1
  O  O345  1  0.36589191  0.23932694  0.73303489  1
  O  O346  1  0.38970056  0.73995792  0.24640797  1
  O  O347  1  0.37584358  0.68599852  0.69203146  1
  O  O348  1  0.86873505  0.23853262  0.26307106  1
  O  O349  1  0.88704419  0.23159948  0.75191720  1
  O  O350  1  0.88502805  0.73383034  0.26059309  1
  O  O351  1  0.87901670  0.73737020  0.75269111  1
  O  O352  1  0.36235225  0.47636988  0.48446171  1
  O  O353  1  0.39438660  0.51393309  0.99890303  1
  O  O354  1  0.45108890  1.02160900  0.56765873  1
  O  O355  1  0.40946086  1.00103570  1.02838350  1
  O  O356  1  0.87712705  0.49444420  0.48834692  1
  O  O357  1  0.88319151  0.50260465  0.98977146  1
  O  O358  1  0.87007032  0.99108875  0.48843680  1
  O  O359  1  0.88790469  1.00190061  0.98248470  1
  O  O360  1  0.11171827  0.00435996  -0.00590185  1
  O  O361  1  0.11001243  0.01250958  0.49449129  1
  O  O362  1  0.10408806  0.51857736  -0.00666259  1
  O  O363  1  0.14333244  0.49231530  0.53011687  1
  O  O364  1  0.60564467  0.00525416  -0.04279009  1
  O  O365  1  0.61010481  -0.02977996  0.49359837  1
  O  O366  1  0.62088889  0.51475768  0.00854593  1
  O  O367  1  0.61024039  0.50186877  0.50385776  1
  O  O368  1  0.37362476  0.37489228  0.11761947  1
  O  O369  1  0.36583406  0.35305820  0.60313898  1
  O  O370  1  0.38382080  0.86656552  0.15084566  1
  O  O371  1  0.35153575  0.85902985  0.63090537  1
  O  O372  1  0.84884023  0.38240298  0.14150107  1
  O  O373  1  0.86574036  0.38987370  0.60513056  1
  O  O374  1  0.85797395  0.88063494  0.12924565  1
  O  O375  1  0.88712823  0.88886445  0.60950159  1
  O  O376  1  0.11863312  0.13094840  0.38927964  1
  O  O377  1  0.13449278  0.12160648  0.88344055  1
  O  O378  1  0.12932413  0.62084024  0.35994087  1
  O  O379  1  0.10660900  0.63431278  0.89243182  1
  O  O380  1  0.64780363  0.11742864  0.37564682  1
  O  O381  1  0.65287434  0.14739082  0.87898342  1
  O  O382  1  0.64280688  0.62687577  0.38147905  1
  O  O383  1  0.62785759  0.63761766  0.89267248  1
