# generated using pymatgen
data_VZnO4
_symmetry_space_group_name_H-M   'P 1'
_cell_length_a   16.88098664
_cell_length_b   16.97639357
_cell_length_c   16.99224565
_cell_angle_alpha   89.83974589
_cell_angle_beta   89.96791550
_cell_angle_gamma   90.21865334
_symmetry_Int_Tables_number   1
_chemical_formula_structural   VZnO4
_chemical_formula_sum   'V64 Zn64 O256'
_cell_volume   4869.55311369
_cell_formula_units_Z   64
loop_
 _symmetry_equiv_pos_site_id
 _symmetry_equiv_pos_as_xyz
  1  'x, y, z'
loop_
 _atom_site_type_symbol
 _atom_site_label
 _atom_site_symmetry_multiplicity
 _atom_site_fract_x
 _atom_site_fract_y
 _atom_site_fract_z
 _atom_site_occupancy
  V  V0  1  0.02226741  0.36403921  0.86098412  1
  V  V1  1  0.88771574  -0.01167382  0.87953976  1
  V  V2  1  0.50379888  -0.00790497  0.00195988  1
  V  V3  1  0.50091174  0.49073936  0.00360541  1
  V  V4  1  0.38711123  0.86259570  -0.00520027  1
  V  V5  1  0.09402811  0.00844752  0.13109296  1
  V  V6  1  0.63706808  0.61631040  -0.01411244  1
  V  V7  1  0.49310868  0.37749877  0.86663422  1
  V  V8  1  -0.00754410  0.62114989  0.12970945  1
  V  V9  1  0.74640823  0.77681787  0.47482556  1
  V  V10  1  0.62069309  0.24567432  0.86978879  1
  V  V11  1  0.25537830  0.87808407  0.13996526  1
  V  V12  1  0.28646591  0.37086246  0.13585139  1
  V  V13  1  0.87556854  0.75888080  0.61649744  1
  V  V14  1  0.62403221  0.62981004  0.48842463  1
  V  V15  1  0.37339394  0.76470928  0.62113127  1
  V  V16  1  0.37324510  0.49706313  0.87777143  1
  V  V17  1  0.50447796  0.34219955  0.35256124  1
  V  V18  1  0.63259096  0.51387764  0.65212806  1
  V  V19  1  0.75691137  0.60667794  0.36662151  1
  V  V20  1  -0.01975167  0.13712847  0.10972581  1
  V  V21  1  0.87224190  0.75827315  0.11178157  1
  V  V22  1  0.59094590  0.87686135  0.76202008  1
  V  V23  1  0.63214992  0.11305029  -0.00196937  1
  V  V24  1  0.25042745  0.63201974  0.87047309  1
  V  V25  1  -0.01354017  0.24669740  0.25359993  1
  V  V26  1  0.83738224  0.12426228  0.25137497  1
  V  V27  1  0.37813497  0.49827771  0.38393765  1
  V  V28  1  0.13092839  0.61729048  0.00281439  1
  V  V29  1  0.25726981  0.50581919  0.25667326  1
  V  V30  1  0.25955407  0.23657392  0.01997691  1
  V  V31  1  0.47428737  0.23251445  0.76126747  1
  V  V32  1  0.23654184  0.61818214  0.39080216  1
  V  V33  1  0.48600732  0.63654778  0.62389352  1
  V  V34  1  0.51326394  0.74911804  0.26759165  1
  V  V35  1  0.74197631  0.10597273  0.85171697  1
  V  V36  1  0.49649527  0.49140447  0.50621686  1
  V  V37  1  0.24900436  0.89033918  0.63888934  1
  V  V38  1  -0.01789864  0.38639574  0.37782922  1
  V  V39  1  0.85759615  0.37700324  0.52918503  1
  V  V40  1  0.12802985  0.49296690  0.12878062  1
  V  V41  1  0.24173121  0.37976929  0.62114374  1
  V  V42  1  0.38054875  0.73642188  0.13523232  1
  V  V43  1  0.23566609  0.26265732  0.48872816  1
  V  V44  1  0.37180661  0.26627169  0.61781084  1
  V  V45  1  0.75163939  0.75705094  -0.02764105  1
  V  V46  1  0.24612584  0.48873960  0.75738993  1
  V  V47  1  0.12188962  0.00764547  0.60286966  1
  V  V48  1  0.71327069  -0.08779400  0.18148295  1
  V  V49  1  -0.00939243  0.48408755  -0.00482219  1
  V  V50  1  0.89932795  0.12837086  0.74290201  1
  V  V51  1  0.24339587  0.76812543  0.48818983  1
  V  V52  1  0.11594293  0.51708413  0.62468188  1
  V  V53  1  0.14146798  0.23043614  0.88302289  1
  V  V54  1  0.36316215  0.02128368  0.88496715  1
  V  V55  1  0.25686304  0.11675786  0.32683254  1
  V  V56  1  0.47180041  0.10874110  0.60975149  1
  V  V57  1  -0.00424718  0.77511417  0.26403088  1
  V  V58  1  0.25098515  0.74057751  0.00785912  1
  V  V59  1  0.12315681  0.37319608  0.25905739  1
  V  V60  1  -0.00378488  0.51856499  0.50293824  1
  V  V61  1  0.51428312  0.10957926  0.15006626  1
  V  V62  1  0.74781013  0.90261718  0.62598727  1
  V  V63  1  0.51108119  0.61796238  0.13216327  1
  Zn  Zn64  1  0.16832135  0.19137686  0.18287782  1
  Zn  Zn65  1  0.09230575  0.19155503  0.69080742  1
  Zn  Zn66  1  0.18188695  0.68204368  0.19702569  1
  Zn  Zn67  1  0.20575550  0.69011190  0.68088552  1
  Zn  Zn68  1  0.65472236  0.20931972  0.16884663  1
  Zn  Zn69  1  0.65166774  0.15981356  0.69102536  1
  Zn  Zn70  1  0.68465237  0.68234548  0.18284733  1
  Zn  Zn71  1  0.67647052  0.71451727  0.64894484  1
  Zn  Zn72  1  0.33403329  0.29982046  0.31577757  1
  Zn  Zn73  1  0.30316788  0.31000269  0.82408523  1
  Zn  Zn74  1  0.31487340  0.78947624  0.30767089  1
  Zn  Zn75  1  0.43780094  0.77102635  0.80696871  1
  Zn  Zn76  1  0.81552060  0.33442781  0.28908468  1
  Zn  Zn77  1  0.80927869  0.29749006  0.82285241  1
  Zn  Zn78  1  0.79558891  0.75540337  0.27951666  1
  Zn  Zn79  1  0.80677200  0.82361931  0.79556319  1
  Zn  Zn80  1  0.17847443  0.43598670  0.43975974  1
  Zn  Zn81  1  0.19431603  0.42331199  0.95213796  1
  Zn  Zn82  1  0.20604081  0.96800084  0.43959887  1
  Zn  Zn83  1  0.19433439  0.94313211  0.97155652  1
  Zn  Zn84  1  0.67617863  0.43793479  0.43893643  1
  Zn  Zn85  1  0.67375344  0.42876191  0.93687628  1
  Zn  Zn86  1  0.67417121  0.97070650  0.48986514  1
  Zn  Zn87  1  0.68671365  0.93039783  0.92619665  1
  Zn  Zn88  1  0.30893821  0.08234312  0.12866391  1
  Zn  Zn89  1  0.26390785  0.11052335  0.59913678  1
  Zn  Zn90  1  0.31887805  0.55269645  0.06816872  1
  Zn  Zn91  1  0.31188904  0.55890925  0.56439477  1
  Zn  Zn92  1  0.81121222  0.05959830  0.05913819  1
  Zn  Zn93  1  0.82760833  0.08137105  0.55321586  1
  Zn  Zn94  1  0.81623167  0.55497414  0.06139855  1
  Zn  Zn95  1  0.81107405  0.56505513  0.56588779  1
  Zn  Zn96  1  0.46360293  0.43725759  0.20568101  1
  Zn  Zn97  1  0.43303471  0.44817954  0.69257990  1
  Zn  Zn98  1  0.55049023  0.92564371  0.19048900  1
  Zn  Zn99  1  0.41844090  0.93994690  0.70523788  1
  Zn  Zn100  1  0.94216970  0.43720713  0.17997045  1
  Zn  Zn101  1  0.93853514  0.30517053  0.68732732  1
  Zn  Zn102  1  0.91044066  0.94170565  0.18958014  1
  Zn  Zn103  1  0.92315594  0.96323996  0.66906582  1
  Zn  Zn104  1  0.07822975  0.07546989  0.30812693  1
  Zn  Zn105  1  0.05893091  0.06639262  0.83851028  1
  Zn  Zn106  1  0.05941750  0.56213530  0.31410148  1
  Zn  Zn107  1  0.07072193  0.55012714  0.82232826  1
  Zn  Zn108  1  0.65576419  0.06770481  0.29363570  1
  Zn  Zn109  1  0.54577235  0.05067747  0.81088077  1
  Zn  Zn110  1  0.56625294  0.55337547  0.31445689  1
  Zn  Zn111  1  0.54800654  0.60551116  0.81851607  1
  Zn  Zn112  1  0.41272561  0.18706643  0.43596987  1
  Zn  Zn113  1  0.43790011  0.18994758  0.96220913  1
  Zn  Zn114  1  0.42530202  0.68271643  0.44238942  1
  Zn  Zn115  1  0.43536808  0.67048243  0.95051519  1
  Zn  Zn116  1  0.89384383  0.21890354  0.41446481  1
  Zn  Zn117  1  0.93218103  0.19525356  0.91643177  1
  Zn  Zn118  1  0.92384331  0.69303251  0.43736568  1
  Zn  Zn119  1  0.96277338  0.70426587  0.96128261  1
  Zn  Zn120  1  0.07045239  0.30368231  0.06496639  1
  Zn  Zn121  1  0.05966580  0.32690831  0.56010147  1
  Zn  Zn122  1  0.08489639  0.79448342  0.10846281  1
  Zn  Zn123  1  0.07314577  0.81427610  0.56314096  1
  Zn  Zn124  1  0.42641157  0.25237678  0.14534519  1
  Zn  Zn125  1  0.56097084  0.32964857  0.60138377  1
  Zn  Zn126  1  0.57401890  0.79775627  0.05712229  1
  Zn  Zn127  1  0.57228070  0.81652476  0.57727282  1
  O  O128  1  0.08965284  0.12030086  0.13292956  1
  O  O129  1  0.14913588  0.10602647  0.63614459  1
  O  O130  1  0.11965424  0.60941444  0.12129661  1
  O  O131  1  0.13966519  0.61503380  0.62489445  1
  O  O132  1  0.63391019  0.11090307  0.10031291  1
  O  O133  1  0.57311443  0.11877713  0.62486396  1
  O  O134  1  0.61523454  0.62151550  0.11672485  1
  O  O135  1  0.61027245  0.62839480  0.61250594  1
  O  O136  1  0.40324299  0.38489095  0.37254965  1
  O  O137  1  0.37747053  0.38840041  0.87677032  1
  O  O138  1  0.37232695  0.88614273  0.35958036  1
  O  O139  1  0.38634150  0.84413609  0.89837833  1
  O  O140  1  0.88063573  0.38957218  0.36266811  1
  O  O141  1  0.91064134  0.36299810  0.88954349  1
  O  O142  1  0.90277969  0.89845424  0.40774782  1
  O  O143  1  0.86915569  0.89122438  0.86099583  1
  O  O144  1  0.26778677  0.02294631  0.36472771  1
  O  O145  1  0.26680491  -0.00679497  0.90327440  1
  O  O146  1  0.25288005  0.50117068  0.37536679  1
  O  O147  1  0.25068451  0.49851990  0.86938007  1
  O  O148  1  0.85595974  -0.05096331  0.38730153  1
  O  O149  1  0.74985214  0.00571249  0.86334141  1
  O  O150  1  0.73107660  0.50905524  0.36316740  1
  O  O151  1  0.75730028  0.45327185  0.85424483  1
  O  O152  1  0.24680179  0.49086981  0.13896365  1
  O  O153  1  0.25103506  0.49586564  0.64140280  1
  O  O154  1  0.28259420  0.97300106  0.13717513  1
  O  O155  1  0.24799616  0.99303656  0.60965989  1
  O  O156  1  0.78800748  0.51068970  0.17354928  1
  O  O157  1  0.73226027  0.52949757  0.64046825  1
  O  O158  1  0.76430611  0.97725421  0.12361240  1
  O  O159  1  0.75119449  1.00192765  0.57852430  1
  O  O160  1  0.00125691  0.37891536  0.25798463  1
  O  O161  1  0.00761186  0.36936849  0.76398903  1
  O  O162  1  -0.01653023  0.87450169  0.25428444  1
  O  O163  1  0.06617330  0.78932985  0.73542137  1
  O  O164  1  0.49162520  0.32975339  0.25107264  1
  O  O165  1  0.49261964  0.37498825  0.76412389  1
  O  O166  1  0.49823785  0.84828952  0.24901844  1
  O  O167  1  0.48537263  0.86487298  0.76059940  1
  O  O168  1  0.55191692  0.09403420  0.24289058  1
  O  O169  1  0.47723217  0.13263329  0.75511707  1
  O  O170  1  0.50583645  0.62830884  0.23446500  1
  O  O171  1  0.49489201  0.64295773  0.72078244  1
  O  O172  1  0.99446462  0.14552000  0.25965423  1
  O  O173  1  1.00266996  0.13191476  0.75752435  1
  O  O174  1  1.00189414  0.61495405  0.22976255  1
  O  O175  1  0.98579892  0.63452345  0.79427803  1
  O  O176  1  0.36925948  0.25039511  0.03339191  1
  O  O177  1  0.37293678  0.27078401  0.51786205  1
  O  O178  1  0.37021944  0.74382439  0.01203285  1
  O  O179  1  0.35243587  0.74644582  0.50769164  1
  O  O180  1  0.87258049  0.29699301  -0.07523722  1
  O  O181  1  0.86905582  0.27809480  0.50181781  1
  O  O182  1  0.85841921  0.73552790  0.00104272  1
  O  O183  1  0.85148035  0.76394172  0.49239375  1
  O  O184  1  0.13616408  0.27101080  0.49722835  1
  O  O185  1  0.14532655  0.25408415  0.99823721  1
  O  O186  1  0.14517047  0.74845059  0.50446306  1
  O  O187  1  0.14103326  0.72931650  1.02152891  1
  O  O188  1  0.65093804  0.26212960  0.55588221  1
  O  O189  1  0.60055239  0.21328033  0.97138495  1
  O  O190  1  0.63865000  0.73861465  0.50523443  1
  O  O191  1  0.64474770  0.72965187  0.99821564  1
  O  O192  1  0.53578973  0.21418464  0.13743751  1
  O  O193  1  0.48186541  0.25828800  0.64667771  1
  O  O194  1  0.49504334  0.73320197  0.12207635  1
  O  O195  1  0.48096612  0.75186852  0.60157434  1
  O  O196  1  0.99742080  0.24301325  0.13695738  1
  O  O197  1  1.01995249  0.25280049  0.63173556  1
  O  O198  1  0.99063185  0.72992096  0.09276647  1
  O  O199  1  0.97402950  0.77885464  0.59371297  1
  O  O200  1  -0.01177136  0.27160540  0.36188832  1
  O  O201  1  0.02670208  0.25705007  0.88599443  1
  O  O202  1  -0.01078856  0.74739111  0.35983575  1
  O  O203  1  0.02047182  0.78891421  0.90041774  1
  O  O204  1  0.49949916  0.25048160  0.39175111  1
  O  O205  1  0.48663296  0.25567427  0.86963320  1
  O  O206  1  0.48898175  0.73773750  0.36445745  1
  O  O207  1  0.49976616  0.70099653  0.86496525  1
  O  O208  1  0.25748826  0.16259053  0.49361127  1
  O  O209  1  0.25854699  0.13863928  1.03972139  1
  O  O210  1  0.24445106  0.61745909  0.49177951  1
  O  O211  1  0.24705268  0.62119066  1.00080907  1
  O  O212  1  0.75784824  0.15337289  0.48242222  1
  O  O213  1  0.73500229  0.11437772  0.98039789  1
  O  O214  1  0.73205540  0.61552928  0.48811825  1
  O  O215  1  0.73895483  0.61227492  1.00766289  1
  O  O216  1  0.26119135  0.37580216  0.03267795  1
  O  O217  1  0.25089216  0.38863826  0.51932512  1
  O  O218  1  0.26584158  0.85550708  0.01536486  1
  O  O219  1  0.24842794  0.86813475  0.47602592  1
  O  O220  1  0.74222191  0.36631128  0.00973999  1
  O  O221  1  0.76200063  0.39845768  0.50328450  1
  O  O222  1  0.74400653  0.85447420  -0.01028277  1
  O  O223  1  0.73529648  0.87223517  0.45285043  1
  O  O224  1  0.12946627  0.49412937  0.24568078  1
  O  O225  1  0.13689166  0.50692663  0.74012382  1
  O  O226  1  0.11948658  1.00228290  0.23033263  1
  O  O227  1  0.15019616  1.01255993  0.76810963  1
  O  O228  1  0.56450690  0.47304073  0.24266119  1
  O  O229  1  0.60928477  0.53540346  0.74694114  1
  O  O230  1  0.65053516  0.96362145  0.24783167  1
  O  O231  1  0.59393444  0.97678040  0.73966228  1
  O  O232  1  0.40095816  -0.06261933  0.31498137  1
  O  O233  1  0.37371590  0.00329252  0.78615641  1
  O  O234  1  0.36274597  0.49087138  0.26594741  1
  O  O235  1  0.35657779  0.50411302  0.76224324  1
  O  O236  1  0.85932022  0.02610397  0.25004482  1
  O  O237  1  0.88586013  0.02042477  0.76197122  1
  O  O238  1  0.84836262  0.50684469  0.22054606  1
  O  O239  1  0.86251202  0.53701997  0.75364868  1
  O  O240  1  0.10738991  0.38533643  0.36192077  1
  O  O241  1  0.12643605  0.36745983  0.88044019  1
  O  O242  1  0.10357425  0.89112026  0.38902860  1
  O  O243  1  0.11684281  0.87905600  0.90383429  1
  O  O244  1  0.59353429  0.38249721  0.38298631  1
  O  O245  1  0.61063124  0.35004720  0.87947919  1
  O  O246  1  0.56605646  0.92245444  0.42598288  1
  O  O247  1  0.62241433  0.86556457  0.85647028  1
  O  O248  1  0.41198890  0.12347829  0.15660551  1
  O  O249  1  0.36606721  0.15680482  0.63324463  1
  O  O250  1  0.39157546  0.62866345  0.11612161  1
  O  O251  1  0.38046199  0.63821145  0.61242488  1
  O  O252  1  0.87535136  0.12942032  0.13680192  1
  O  O253  1  0.88167309  0.12113049  0.64404256  1
  O  O254  1  0.89107032  0.62494058  0.11532822  1
  O  O255  1  0.86188137  0.65877021  0.60798846  1
  O  O256  1  0.22786082  0.26815243  0.11993524  1
  O  O257  1  0.25341367  0.27136044  0.61647556  1
  O  O258  1  0.26352531  0.73395005  0.12473918  1
  O  O259  1  0.25192844  0.77116130  0.61249253  1
  O  O260  1  0.72325094  0.25998898  0.08487352  1
  O  O261  1  0.70243751  0.23846735  0.60678237  1
  O  O262  1  0.77099880  0.74111944  0.12525550  1
  O  O263  1  0.75457403  0.78611218  0.59909875  1
  O  O264  1  0.25272424  0.29900253  0.39584221  1
  O  O265  1  0.25292051  0.25091442  0.90685721  1
  O  O266  1  0.25516149  0.72993948  0.38345801  1
  O  O267  1  0.25170609  0.73130569  0.89323239  1
  O  O268  1  0.70949196  0.28938042  0.30996834  1
  O  O269  1  0.72348442  0.23286599  0.86536142  1
  O  O270  1  0.74633254  0.73247592  0.38180777  1
  O  O271  1  0.75909330  0.74995418  0.87376572  1
  O  O272  1  -0.02642267  0.14442932  0.01207009  1
  O  O273  1  -0.02760624  0.08011879  0.44246944  1
  O  O274  1  0.01466456  0.60565419  0.00217307  1
  O  O275  1  -0.00730628  0.61592546  0.49189117  1
  O  O276  1  0.50315250  0.10250406  0.01568743  1
  O  O277  1  0.46279198  0.12072863  0.51037401  1
  O  O278  1  0.51842055  0.61333830  0.00692059  1
  O  O279  1  0.50810688  0.62541984  0.50519540  1
  O  O280  1  0.50466811  0.39343726  0.51961878  1
  O  O281  1  0.50315316  0.39144507  0.98641576  1
  O  O282  1  0.52191653  0.87791507  0.46639519  1
  O  O283  1  0.49658355  0.87545765  1.01420070  1
  O  O284  1  0.98467336  0.38311625  0.48680764  1
  O  O285  1  1.00725439  0.38557921  1.01246083  1
  O  O286  1  1.05159875  0.87668926  0.43995944  1
  O  O287  1  1.05663729  0.84604345  0.94319893  1
  O  O288  1  0.49044223  0.51026909  0.39808637  1
  O  O289  1  0.48998755  0.49847664  0.87841265  1
  O  O290  1  0.45745060  1.00248250  0.41280590  1
  O  O291  1  0.48436605  1.00229544  0.89728146  1
  O  O292  1  1.00097336  0.49495952  0.38909749  1
  O  O293  1  1.01096860  0.47862995  0.88889047  1
  O  O294  1  1.00550119  1.02931090  0.39102812  1
  O  O295  1  0.98998609  0.99399505  0.88233199  1
  O  O296  1  -0.01206424  0.01378087  0.12472053  1
  O  O297  1  0.02657505  -0.00489484  0.63573158  1
  O  O298  1  0.00595493  0.50690805  0.11406889  1
  O  O299  1  0.01370921  0.51361795  0.61971620  1
  O  O300  1  0.51064101  0.00016002  0.11550914  1
  O  O301  1  0.45195752  0.01244149  0.62457829  1
  O  O302  1  0.49548494  0.50924681  0.10910435  1
  O  O303  1  0.49247391  0.52038223  0.61864912  1
  O  O304  1  0.23098186  0.38632191  0.24429468  1
  O  O305  1  0.24582145  0.38702910  0.75076603  1
  O  O306  1  0.25199067  0.84973802  0.23602281  1
  O  O307  1  0.24805210  0.88781979  0.73375686  1
  O  O308  1  0.79266740  0.36750514  0.17677694  1
  O  O309  1  0.76345356  0.40495345  0.79485980  1
  O  O310  1  0.77851492  0.86069348  0.24035659  1
  O  O311  1  0.73781533  0.89897627  0.72537902  1
  O  O312  1  0.25001624  0.11980151  0.22213297  1
  O  O313  1  0.21478852  0.04873268  0.77127800  1
  O  O314  1  0.24380900  0.61127058  0.26289293  1
  O  O315  1  0.24302142  0.62299637  0.76778779  1
  O  O316  1  0.73330057  0.13667217  0.23637246  1
  O  O317  1  0.73967124  0.12025457  0.75088202  1
  O  O318  1  0.75196464  0.64111927  0.26650262  1
  O  O319  1  0.81619487  0.58250938  0.78465194  1
  O  O320  1  0.34138016  0.17801419  0.34730760  1
  O  O321  1  0.37119593  0.12019448  0.89861320  1
  O  O322  1  0.35926815  0.60504960  0.38182546  1
  O  O323  1  0.35483115  0.61062852  0.88309455  1
  O  O324  1  0.84669490  0.14196268  0.35146748  1
  O  O325  1  0.85704022  0.12244306  0.86109470  1
  O  O326  1  0.85568883  0.61310307  0.38522746  1
  O  O327  1  0.93471819  0.65611166  0.84597654  1
  O  O328  1  0.11144609  0.38798084  0.14105778  1
  O  O329  1  0.13791677  0.39476440  0.62855053  1
  O  O330  1  0.14672230  0.88706963  0.11903911  1
  O  O331  1  0.14049659  0.89231084  0.61426795  1
  O  O332  1  0.69407499  0.32953199  0.06237246  1
  O  O333  1  0.61811948  0.41348777  0.64647561  1
  O  O334  1  0.63838719  0.86108269  0.12912644  1
  O  O335  1  0.64549195  0.90173480  0.58211083  1
  O  O336  1  0.10722897  0.26955278  0.24687785  1
  O  O337  1  0.15181551  0.23481215  0.78135016  1
  O  O338  1  0.09128080  0.75118947  0.22172816  1
  O  O339  1  0.12590261  0.75408747  0.76066643  1
  O  O340  1  0.66026193  0.29782698  0.25070075  1
  O  O341  1  0.59422267  0.23558045  0.76494029  1
  O  O342  1  0.61314044  0.74035824  0.25374732  1
  O  O343  1  0.61458518  0.79394783  0.70026662  1
  O  O344  1  0.33883619  0.29432559  0.20319382  1
  O  O345  1  0.37377922  0.25673045  0.75228304  1
  O  O346  1  0.38772699  0.73518567  0.23814307  1
  O  O347  1  0.36454801  0.74820823  0.71974493  1
  O  O348  1  0.88102169  0.24603711  0.24469866  1
  O  O349  1  0.87441800  0.23472856  0.75473625  1
  O  O350  1  0.90055574  0.74220772  0.22293678  1
  O  O351  1  0.86615132  0.77034953  0.71678136  1
  O  O352  1  0.38543673  0.49861497  0.49934686  1
  O  O353  1  0.38993581  0.50773010  0.98924089  1
  O  O354  1  0.42576828  0.96231294  0.46370475  1
  O  O355  1  0.38689926  0.97184413  0.99695769  1
  O  O356  1  0.89175978  0.49246195  0.52038652  1
  O  O357  1  0.89080267  0.49481696  1.00070564  1
  O  O358  1  0.92790252  1.04235206  0.49743111  1
  O  O359  1  0.86357251  1.00469657  0.97616359  1
  O  O360  1  0.14050325  0.01252347  0.04067659  1
  O  O361  1  0.12351156  0.01476760  0.50311408  1
  O  O362  1  0.12836939  0.50097086  0.01404222  1
  O  O363  1  0.10898621  0.49601386  0.51290939  1
  O  O364  1  0.61252531  -0.00012786  -0.01492982  1
  O  O365  1  0.68683453  0.05569046  0.40873859  1
  O  O366  1  0.61338277  0.50349394  -0.00439445  1
  O  O367  1  0.60982149  0.51464912  0.51105100  1
  O  O368  1  0.37926902  0.40953621  0.12665030  1
  O  O369  1  0.35956464  0.37250845  0.64117185  1
  O  O370  1  0.37070085  0.84373169  0.11833419  1
  O  O371  1  0.36304763  0.87157063  0.62065855  1
  O  O372  1  0.85472434  0.37126029  0.13103017  1
  O  O373  1  0.86505819  0.37201942  0.62894606  1
  O  O374  1  0.88961440  0.85598929  0.11072607  1
  O  O375  1  0.85560947  0.89256397  0.61227373  1
  O  O376  1  0.16211152  0.14482455  0.35076498  1
  O  O377  1  0.12854957  0.13191001  0.89733293  1
  O  O378  1  0.13703099  0.61643213  0.37621717  1
  O  O379  1  0.13971242  0.61295813  0.89252116  1
  O  O380  1  0.69338313  0.13824584  0.44408397  1
  O  O381  1  0.62934015  0.11420612  0.86870388  1
  O  O382  1  0.62208110  0.62268793  0.38592310  1
  O  O383  1  0.64149292  0.61341036  0.88779665  1
