# generated using pymatgen
data_VZnO4
_symmetry_space_group_name_H-M   'P 1'
_cell_length_a   16.92182214
_cell_length_b   16.89489761
_cell_length_c   16.89849233
_cell_angle_alpha   89.98691482
_cell_angle_beta   89.86008284
_cell_angle_gamma   90.18955272
_symmetry_Int_Tables_number   1
_chemical_formula_structural   VZnO4
_chemical_formula_sum   'V64 Zn64 O256'
_cell_volume   4831.11043516
_cell_formula_units_Z   64
loop_
 _symmetry_equiv_pos_site_id
 _symmetry_equiv_pos_as_xyz
  1  'x, y, z'
loop_
 _atom_site_type_symbol
 _atom_site_label
 _atom_site_symmetry_multiplicity
 _atom_site_fract_x
 _atom_site_fract_y
 _atom_site_fract_z
 _atom_site_occupancy
  V  V0  1  -0.02021063  0.25372648  0.75774836  1
  V  V1  1  -0.00908445  0.60610413  0.59974184  1
  V  V2  1  0.48486055  -0.00790457  0.48486468  1
  V  V3  1  0.37595600  0.36871226  0.51180698  1
  V  V4  1  0.62668615  0.12116630  -0.00115959  1
  V  V5  1  0.24537365  0.12532812  0.36015173  1
  V  V6  1  0.37764986  0.26141917  0.11533954  1
  V  V7  1  0.61405890  0.37687660  0.74385985  1
  V  V8  1  0.24110199  0.61834890  0.38261877  1
  V  V9  1  0.49329787  0.39191982  0.89034900  1
  V  V10  1  0.74435862  0.75167189  -0.00667969  1
  V  V11  1  0.34975561  0.60031059  0.75214763  1
  V  V12  1  0.19920546  0.32836691  0.56432714  1
  V  V13  1  0.88245149  0.74831792  0.13626918  1
  V  V14  1  0.75845120  0.02646001  0.77503391  1
  V  V15  1  -0.01287999  0.36961084  0.38311429  1
  V  V16  1  0.13048578  0.77195100  0.37432877  1
  V  V17  1  0.62752502  0.12032265  0.50978942  1
  V  V18  1  -0.01125532  0.37175011  0.89058348  1
  V  V19  1  0.25250992  0.75906350  0.00380319  1
  V  V20  1  0.87981772  0.76773887  0.60407708  1
  V  V21  1  0.50224084  0.63257534  0.13722027  1
  V  V22  1  0.63584878  0.24301809  0.38122216  1
  V  V23  1  0.75901123  0.37436254  0.12358892  1
  V  V24  1  0.51270647  0.74692197  0.71563139  1
  V  V25  1  0.49345282  -0.00521398  -0.01279818  1
  V  V26  1  0.61659971  0.61903151  -0.00621995  1
  V  V27  1  0.60383045  0.87267085  0.24397223  1
  V  V28  1  0.49719056  0.25193627  0.25081831  1
  V  V29  1  0.50224713  0.85897465  0.87519541  1
  V  V30  1  0.61498366  0.24892163  0.87175191  1
  V  V31  1  0.12728884  0.37346067  0.25622038  1
  V  V32  1  0.51350052  0.51279414  0.51303608  1
  V  V33  1  0.50263342  0.37665545  0.37885579  1
  V  V34  1  0.26299875  0.75743954  0.51007188  1
  V  V35  1  0.37448030  0.50104212  0.36799975  1
  V  V36  1  0.64845466  0.87554387  0.75439550  1
  V  V37  1  0.74837861  0.49335019  0.73501714  1
  V  V38  1  0.12528893  0.51014728  0.12527609  1
  V  V39  1  0.62220816  0.49976040  0.12925265  1
  V  V40  1  0.74958843  0.64889500  0.37217922  1
  V  V41  1  0.13482334  0.50140411  0.61829176  1
  V  V42  1  0.86459609  0.49458089  0.39686537  1
  V  V43  1  0.14840905  0.37632261  0.76380896  1
  V  V44  1  0.49776953  0.11905579  0.13085676  1
  V  V45  1  0.86666157  -0.00166625  0.38437136  1
  V  V46  1  -0.00581549  0.52133226  0.00513862  1
  V  V47  1  0.87893746  0.60719229  0.24284120  1
  V  V48  1  0.88802629  0.87203063  -0.01155281  1
  V  V49  1  0.75354341  0.25541980  -0.00096701  1
  V  V50  1  0.36980463  0.63105189  0.24784552  1
  V  V51  1  0.60141509  0.75358170  0.37472245  1
  V  V52  1  0.76118119  0.35711986  0.61286972  1
  V  V53  1  0.88139175  0.62392593  0.74792398  1
  V  V54  1  0.74492476  0.88003801  0.13160956  1
  V  V55  1  0.75526787  0.60878269  0.87738146  1
  V  V56  1  -0.00336507  0.01918595  0.02164408  1
  V  V57  1  -0.01076945  0.24656282  0.23292853  1
  V  V58  1  0.03420528  0.13544965  0.63252021  1
  V  V59  1  0.25619845  0.12142104  0.88536090  1
  V  V60  1  0.25110693  0.37615230  0.10895112  1
  V  V61  1  0.63070993  0.38057582  0.25175191  1
  V  V62  1  0.47316404  0.12824549  0.63077463  1
  V  V63  1  0.84830336  0.12241308  0.23922441  1
  Zn  Zn64  1  0.17820947  0.19412681  0.17528568  1
  Zn  Zn65  1  0.21225865  0.19587725  0.69943762  1
  Zn  Zn66  1  0.19063535  0.69390668  0.19818581  1
  Zn  Zn67  1  0.19890413  0.65591133  0.66502483  1
  Zn  Zn68  1  0.68062432  0.19193576  0.18374231  1
  Zn  Zn69  1  0.68001060  0.18160144  0.68679009  1
  Zn  Zn70  1  0.69408380  0.69311856  0.19277779  1
  Zn  Zn71  1  0.69422832  0.70208947  0.67659617  1
  Zn  Zn72  1  0.31600795  0.31860991  0.30961668  1
  Zn  Zn73  1  0.32436662  0.31041412  0.81255532  1
  Zn  Zn74  1  0.38605656  0.75605271  0.37058937  1
  Zn  Zn75  1  0.34950665  0.76784817  0.82094119  1
  Zn  Zn76  1  0.81529230  0.30881480  0.30930887  1
  Zn  Zn77  1  0.80825217  0.31430251  0.82041292  1
  Zn  Zn78  1  0.82585246  0.83047018  0.31702897  1
  Zn  Zn79  1  0.82072184  0.80228153  0.81142750  1
  Zn  Zn80  1  0.18115160  0.44277256  0.43012864  1
  Zn  Zn81  1  0.17472347  0.43611162  0.94383068  1
  Zn  Zn82  1  0.21669355  0.93808465  0.44167781  1
  Zn  Zn83  1  0.18263008  0.94933668  0.96848236  1
  Zn  Zn84  1  0.69294483  0.43869104  0.43958940  1
  Zn  Zn85  1  0.67904894  0.43407403  0.93957704  1
  Zn  Zn86  1  0.67460175  0.94617311  0.41135478  1
  Zn  Zn87  1  0.68767529  0.93964655  0.93224769  1
  Zn  Zn88  1  0.32550381  0.06123782  0.07166522  1
  Zn  Zn89  1  0.30687466  0.05606923  0.55134804  1
  Zn  Zn90  1  0.30376285  0.56860426  0.07262121  1
  Zn  Zn91  1  0.33166541  0.56449848  0.56113665  1
  Zn  Zn92  1  0.81079152  0.06136156  0.05132535  1
  Zn  Zn93  1  0.76845409  -0.00307878  0.54722682  1
  Zn  Zn94  1  0.80820644  0.55928366  0.06808775  1
  Zn  Zn95  1  0.78483397  0.57589864  0.56676338  1
  Zn  Zn96  1  0.44223551  0.43959232  0.18357496  1
  Zn  Zn97  1  0.43371046  0.44375640  0.69019770  1
  Zn  Zn98  1  0.44025996  0.94923259  0.21142538  1
  Zn  Zn99  1  0.51382178  0.93432088  0.66798154  1
  Zn  Zn100  1  0.94592874  0.43193914  0.18237159  1
  Zn  Zn101  1  0.93295541  0.42990384  0.68695271  1
  Zn  Zn102  1  0.91244950  0.95381206  0.17231959  1
  Zn  Zn103  1  0.90305647  0.97361600  0.65645542  1
  Zn  Zn104  1  0.05471286  0.06034688  0.30004773  1
  Zn  Zn105  1  0.05503016  0.08337005  0.83408561  1
  Zn  Zn106  1  0.05169860  0.55286621  0.31178481  1
  Zn  Zn107  1  0.04708666  0.53142405  0.80429361  1
  Zn  Zn108  1  0.57069292  0.05903864  0.31245974  1
  Zn  Zn109  1  0.56602515  0.05975089  0.80513408  1
  Zn  Zn110  1  0.56648227  0.56524829  0.31934222  1
  Zn  Zn111  1  0.56166555  0.56396887  0.80519214  1
  Zn  Zn112  1  0.43741197  0.18535785  0.43813577  1
  Zn  Zn113  1  0.44339391  0.19234718  0.94141454  1
  Zn  Zn114  1  0.46813996  0.71743743  0.52890277  1
  Zn  Zn115  1  0.43934137  0.67870085  0.93654691  1
  Zn  Zn116  1  0.96220533  0.15922911  0.42401622  1
  Zn  Zn117  1  0.95166848  0.20475260  0.95878640  1
  Zn  Zn118  1  0.93648766  0.68699765  0.42226031  1
  Zn  Zn119  1  0.92548301  0.68146682  0.94347559  1
  Zn  Zn120  1  0.07214489  0.30234336  0.06786780  1
  Zn  Zn121  1  0.01804223  0.28245533  0.54329068  1
  Zn  Zn122  1  0.05750973  0.78741539  0.05156382  1
  Zn  Zn123  1  0.04840264  0.76072350  0.52871504  1
  Zn  Zn124  1  0.56445451  0.31411734  0.06081444  1
  Zn  Zn125  1  0.55752276  0.30344993  0.56679931  1
  Zn  Zn126  1  0.56381973  0.81025105  0.06108631  1
  Zn  Zn127  1  0.62123976  0.85123172  0.54490558  1
  O  O128  1  0.16175992  0.05382385  0.11444786  1
  O  O129  1  0.13380246  0.12704072  0.64510667  1
  O  O130  1  0.13573306  0.60843895  0.14009692  1
  O  O131  1  0.10032707  0.61024842  0.62583684  1
  O  O132  1  0.60715054  0.13768802  0.10855201  1
  O  O133  1  0.60890915  0.12814711  0.61249351  1
  O  O134  1  0.61862478  0.61935982  0.12383479  1
  O  O135  1  0.68857052  0.60878138  0.62012676  1
  O  O136  1  0.38520020  0.38512835  0.37616101  1
  O  O137  1  0.39612675  0.36578389  0.87364808  1
  O  O138  1  0.33221278  0.87122570  0.33396926  1
  O  O139  1  0.40151898  0.86586567  0.86525371  1
  O  O140  1  0.87531196  0.38393844  0.37123804  1
  O  O141  1  0.88856739  0.37322127  0.88317958  1
  O  O142  1  0.89995886  0.90270851  0.35863478  1
  O  O143  1  0.87596437  0.86354737  0.88964577  1
  O  O144  1  0.25319094  0.02115075  0.35908705  1
  O  O145  1  0.25477036  0.01541509  0.89831792  1
  O  O146  1  0.26892276  0.50023435  0.37716171  1
  O  O147  1  0.27921559  0.50795853  0.91555783  1
  O  O148  1  0.76612974  -0.00591727  0.36527048  1
  O  O149  1  0.75870285  0.00864445  0.87697492  1
  O  O150  1  0.76370534  0.49634840  0.36785556  1
  O  O151  1  0.74867632  0.50697280  0.87906814  1
  O  O152  1  0.24093105  0.48692032  0.12115414  1
  O  O153  1  0.23160270  0.53003889  0.62005525  1
  O  O154  1  0.21242547  1.01359423  0.07437922  1
  O  O155  1  0.20766898  1.01128789  0.52643187  1
  O  O156  1  0.73654982  0.48423806  0.12077720  1
  O  O157  1  0.74880979  0.47604131  0.63460015  1
  O  O158  1  0.75203389  0.97695294  0.10622183  1
  O  O159  1  0.78670130  1.00223168  0.65980302  1
  O  O160  1  0.00045362  0.36426976  0.25588250  1
  O  O161  1  -0.00349874  0.36622434  0.76543950  1
  O  O162  1  0.09323454  0.87985994  0.19457952  1
  O  O163  1  0.03393536  0.92220983  0.78971118  1
  O  O164  1  0.51022441  0.37157187  0.25886994  1
  O  O165  1  0.51277639  0.38141481  0.75520356  1
  O  O166  1  0.50382237  0.86165707  0.22977089  1
  O  O167  1  0.51825477  0.86354349  0.75929622  1
  O  O168  1  0.51162071  0.13546838  0.23633909  1
  O  O169  1  0.49680938  0.10696109  0.72995247  1
  O  O170  1  0.49604050  0.62221383  0.24135538  1
  O  O171  1  0.52543361  0.64933765  0.74235696  1
  O  O172  1  1.01097881  0.14664879  0.23882982  1
  O  O173  1  1.01732601  0.15107437  0.75182307  1
  O  O174  1  0.97798322  0.62509075  0.25810434  1
  O  O175  1  0.98049061  0.60921954  0.75585613  1
  O  O176  1  0.38508441  0.25784116  0.01603858  1
  O  O177  1  0.38010995  0.27093218  0.48907156  1
  O  O178  1  0.35951876  0.75224176  0.00651171  1
  O  O179  1  0.36917378  0.74046464  0.48216313  1
  O  O180  1  0.85170642  0.24421717  -0.00443647  1
  O  O181  1  0.84925259  0.21868386  0.50055079  1
  O  O182  1  0.86366363  0.75453166  0.00748099  1
  O  O183  1  0.88723453  0.75653274  0.50281878  1
  O  O184  1  0.12739583  0.29402401  0.50557388  1
  O  O185  1  0.13384422  0.20990738  1.07504064  1
  O  O186  1  0.15409581  0.74646132  0.48816820  1
  O  O187  1  0.14835142  0.75634499  0.99382130  1
  O  O188  1  0.61819175  0.23867315  0.48732982  1
  O  O189  1  0.62570131  0.24248311  0.99056943  1
  O  O190  1  0.62414386  0.75891003  0.47285855  1
  O  O191  1  0.63898170  0.73222807  1.00847074  1
  O  O192  1  0.49334931  0.25204038  0.13215751  1
  O  O193  1  0.48989292  0.23056495  0.62129564  1
  O  O194  1  0.50251958  0.73077016  0.11925985  1
  O  O195  1  0.52802047  0.75731650  0.61437339  1
  O  O196  1  0.98361706  0.26588826  0.13475897  1
  O  O197  1  1.00267320  0.24987167  0.65201792  1
  O  O198  1  0.98191602  0.74665275  0.12114850  1
  O  O199  1  0.98964750  0.72003096  0.61722475  1
  O  O200  1  -0.01175642  0.26404281  0.36662056  1
  O  O201  1  0.00287971  0.25952112  0.87057523  1
  O  O202  1  0.02956159  0.75593147  0.40782596  1
  O  O203  1  0.02382106  0.73775123  0.87315420  1
  O  O204  1  0.50406142  0.25979708  0.36832115  1
  O  O205  1  0.51114297  0.26091500  0.87905686  1
  O  O206  1  0.50201853  0.74429055  0.37558236  1
  O  O207  1  0.51166836  0.75937013  0.88961001  1
  O  O208  1  0.24869048  0.13294368  0.46560031  1
  O  O209  1  0.26551874  0.12941322  0.98981786  1
  O  O210  1  0.26083568  0.61791843  0.48349969  1
  O  O211  1  0.25032445  0.65115779  1.00901143  1
  O  O212  1  0.72618790  0.10587988  0.51298658  1
  O  O213  1  0.73239337  0.13678276  1.00716812  1
  O  O214  1  0.75470761  0.62654484  0.46935923  1
  O  O215  1  0.74747947  0.62865563  0.99327422  1
  O  O216  1  0.24377172  0.36864791  0.01058052  1
  O  O217  1  0.26488173  0.38254187  0.49619328  1
  O  O218  1  0.25269170  0.86447706  0.00682897  1
  O  O219  1  0.26899431  0.85730792  0.50345444  1
  O  O220  1  0.74112661  0.36651419  0.01095947  1
  O  O221  1  0.74161493  0.36860057  0.51462589  1
  O  O222  1  0.74856757  0.85964422  -0.00010444  1
  O  O223  1  0.71593695  0.90518261  0.50926417  1
  O  O224  1  0.10871633  0.48294554  0.23356043  1
  O  O225  1  0.11787882  0.48436828  0.73403363  1
  O  O226  1  0.13959951  1.00535881  0.26306043  1
  O  O227  1  0.07614248  0.98054299  0.77024714  1
  O  O228  1  0.62331927  0.48892577  0.24693935  1
  O  O229  1  0.63698004  0.48671806  0.75611634  1
  O  O230  1  0.61782314  0.97471343  0.25194909  1
  O  O231  1  0.65012553  0.99348042  0.76181396  1
  O  O232  1  0.37956311  -0.07135441  0.32524298  1
  O  O233  1  0.32768283  -0.08116073  0.69891703  1
  O  O234  1  0.38510066  0.50203029  0.26393889  1
  O  O235  1  0.36767260  0.50098343  0.76254125  1
  O  O236  1  0.88088055  0.01963996  0.25499059  1
  O  O237  1  0.86385626  0.00207368  0.76176133  1
  O  O238  1  0.87340113  0.50778139  0.23409511  1
  O  O239  1  0.85517734  0.50699177  0.74761793  1
  O  O240  1  0.10462552  0.38874036  0.36211826  1
  O  O241  1  0.11183093  0.38671208  0.86542014  1
  O  O242  1  0.14973598  0.87117803  0.37788713  1
  O  O243  1  0.16049992  0.87987866  0.86506970  1
  O  O244  1  0.61834401  0.36802845  0.37041685  1
  O  O245  1  0.61368944  0.36888846  0.86950888  1
  O  O246  1  0.61591014  0.86327623  0.35570917  1
  O  O247  1  0.61847312  0.87993458  0.86336828  1
  O  O248  1  0.38946417  0.14235387  0.12419387  1
  O  O249  1  0.37005675  0.11668551  0.61928214  1
  O  O250  1  0.38941344  0.61028003  0.13736554  1
  O  O251  1  0.37526563  0.61799422  0.65258770  1
  O  O252  1  0.86149427  0.11777560  0.13782161  1
  O  O253  1  0.84933270  0.18611185  0.56546324  1
  O  O254  1  0.86414978  0.63785996  0.13548855  1
  O  O255  1  0.87998841  0.61802170  0.63360254  1
  O  O256  1  0.27062325  0.26445980  0.13616838  1
  O  O257  1  0.24583284  0.24982430  0.60243026  1
  O  O258  1  0.24807057  0.75542825  0.10994571  1
  O  O259  1  0.25674806  0.73624887  0.60893032  1
  O  O260  1  0.73651063  0.26371582  0.11122292  1
  O  O261  1  0.74215308  0.25975798  0.63404604  1
  O  O262  1  0.75790441  0.75634057  0.11305952  1
  O  O263  1  0.78043357  0.75854393  0.62408421  1
  O  O264  1  0.25106612  0.23214356  0.35719377  1
  O  O265  1  0.25326839  0.22647673  0.87846941  1
  O  O266  1  0.24461244  0.72767311  0.37973819  1
  O  O267  1  0.26262229  0.75511737  0.89927566  1
  O  O268  1  0.73345459  0.25790787  0.37281784  1
  O  O269  1  0.73160566  0.26168320  0.89143954  1
  O  O270  1  0.76365038  0.74924528  0.37082489  1
  O  O271  1  0.75344077  0.73592618  0.88968497  1
  O  O272  1  -0.00627493  0.12020347  0.02025666  1
  O  O273  1  0.01074469  0.16531963  0.52960015  1
  O  O274  1  0.00368519  0.62148170  -0.00190432  1
  O  O275  1  -0.01138910  0.60918398  0.50088698  1
  O  O276  1  0.50410838  0.11466118  0.00652651  1
  O  O277  1  0.49631326  0.11793028  0.50478526  1
  O  O278  1  0.51274378  0.62413737  0.00658301  1
  O  O279  1  0.49655385  0.61152151  0.50052950  1
  O  O280  1  0.49499256  0.37886863  0.49231922  1
  O  O281  1  0.50744141  0.38322665  0.99085519  1
  O  O282  1  0.51478335  0.89556759  0.50606344  1
  O  O283  1  0.51615493  0.88711258  0.99042492  1
  O  O284  1  0.98671632  0.37158845  0.48313112  1
  O  O285  1  1.01143076  0.35930480  0.99058314  1
  O  O286  1  1.05499639  0.90064812  0.54134698  1
  O  O287  1  0.98727541  0.86008439  0.99770686  1
  O  O288  1  0.49530884  0.49229937  0.37968332  1
  O  O289  1  0.50328651  0.49216079  0.87206665  1
  O  O290  1  0.49491563  1.00807620  0.37992685  1
  O  O291  1  0.49937516  0.99747254  0.88485187  1
  O  O292  1  0.97525365  0.48722828  0.37006499  1
  O  O293  1  1.00336287  0.48827297  0.89871312  1
  O  O294  1  0.98264067  1.05104341  0.38399681  1
  O  O295  1  0.94930473  1.05425662  0.88015113  1
  O  O296  1  0.00687228  -0.01147850  0.11796289  1
  O  O297  1  -0.00854879  0.04336902  0.63587157  1
  O  O298  1  0.01375111  0.49459649  0.11302611  1
  O  O299  1  -0.00277641  0.50356862  0.62561286  1
  O  O300  1  0.49279102  0.01666074  0.12926852  1
  O  O301  1  0.49159117  0.01607944  0.60162419  1
  O  O302  1  0.51490771  0.50939743  0.12622869  1
  O  O303  1  0.50299124  0.49369438  0.61176009  1
  O  O304  1  0.23042236  0.37388512  0.25861575  1
  O  O305  1  0.24564216  0.38694786  0.78250209  1
  O  O306  1  0.28075630  0.91879654  0.18253998  1
  O  O307  1  0.21394338  0.87780331  0.81400835  1
  O  O308  1  0.73833960  0.36248572  0.23488831  1
  O  O309  1  0.74279423  0.38479580  0.75338257  1
  O  O310  1  0.75540436  0.87527569  0.23163899  1
  O  O311  1  0.74910155  0.87343621  0.76170907  1
  O  O312  1  0.23893231  0.13053877  0.25377347  1
  O  O313  1  0.25036100  0.10388113  0.78157524  1
  O  O314  1  0.26500080  0.62199478  0.25600906  1
  O  O315  1  0.24959381  0.62291623  0.76007236  1
  O  O316  1  0.74799310  0.12799693  0.24809565  1
  O  O317  1  0.74166666  0.12491410  0.76333188  1
  O  O318  1  0.76659997  0.63048018  0.25966408  1
  O  O319  1  0.75079736  0.61152124  0.76671262  1
  O  O320  1  0.35272827  0.12860618  0.35977727  1
  O  O321  1  0.36120836  0.12588447  0.87725184  1
  O  O322  1  0.37119523  0.61177123  0.36275230  1
  O  O323  1  0.38578928  0.65171418  0.84090091  1
  O  O324  1  0.87179529  0.11850865  0.36013622  1
  O  O325  1  0.89992820  0.11283517  0.88474050  1
  O  O326  1  0.86748811  0.61163727  0.36365378  1
  O  O327  1  0.86246886  0.62407985  0.86643796  1
  O  O328  1  0.14104994  0.37827682  0.13267795  1
  O  O329  1  0.15283314  0.38616404  0.64132594  1
  O  O330  1  0.12473301  0.86076899  0.13021511  1
  O  O331  1  0.13264466  0.83584357  0.67908875  1
  O  O332  1  0.62370607  0.38268284  0.13528419  1
  O  O333  1  0.62729211  0.36422695  0.64244344  1
  O  O334  1  0.63646842  0.86369712  0.13303544  1
  O  O335  1  0.62384537  0.89368117  0.65209630  1
  O  O336  1  0.10935932  0.26786890  0.24162287  1
  O  O337  1  0.13765155  0.27498685  0.74958808  1
  O  O338  1  0.12920172  0.74578777  0.27533441  1
  O  O339  1  0.12145228  0.77473810  0.71765062  1
  O  O340  1  0.61529914  0.25977754  0.25904857  1
  O  O341  1  0.62912690  0.26194988  0.76644003  1
  O  O342  1  0.62928066  0.76269635  0.25736555  1
  O  O343  1  0.62952045  0.76593161  0.74394569  1
  O  O344  1  0.39283631  0.26224966  0.24339556  1
  O  O345  1  0.31801585  0.22827629  0.73883440  1
  O  O346  1  0.37895407  0.73022548  0.25622342  1
  O  O347  1  0.41157361  0.76196201  0.72570435  1
  O  O348  1  0.87961099  0.23309828  0.25155788  1
  O  O349  1  0.88075092  0.24493140  0.76271632  1
  O  O350  1  0.87515063  0.75618870  0.23671519  1
  O  O351  1  0.87532536  0.72747355  0.74537102  1
  O  O352  1  0.38944407  0.49057416  0.48856258  1
  O  O353  1  0.33584735  0.51663577  0.96454982  1
  O  O354  1  0.38191008  0.99270190  0.49144840  1
  O  O355  1  0.39493117  0.99484911  1.00870680  1
  O  O356  1  0.85939977  0.50292713  0.49497110  1
  O  O357  1  0.89433720  0.50739214  1.01454281  1
  O  O358  1  0.86894480  1.00177917  0.48740821  1
  O  O359  1  0.89004532  0.98287176  1.00620825  1
  O  O360  1  0.07784608  -0.01131212  -0.03551850  1
  O  O361  1  0.03975429  -0.05135413  0.48838788  1
  O  O362  1  0.11747519  0.50335561  0.01567792  1
  O  O363  1  0.12161101  0.48043987  0.52022548  1
  O  O364  1  0.61829657  0.01723708  -0.00504902  1
  O  O365  1  0.60657976  0.02119217  0.47893128  1
  O  O366  1  0.63147988  0.51467425  0.01182683  1
  O  O367  1  0.61134966  0.49930998  0.48967184  1
  O  O368  1  0.36475214  0.37460396  0.12772017  1
  O  O369  1  0.37848601  0.37674065  0.61159009  1
  O  O370  1  0.33256238  0.97406272  0.17166199  1
  O  O371  1  0.26434360  0.93525113  0.66744352  1
  O  O372  1  0.85672856  0.37740322  0.12836542  1
  O  O373  1  0.86181424  0.36500084  0.62604219  1
  O  O374  1  0.86432966  0.86359343  0.11322479  1
  O  O375  1  0.90771674  0.86253441  0.62776816  1
  O  O376  1  0.14161805  0.12607559  0.36909575  1
  O  O377  1  0.15093251  0.12200857  0.88887175  1
  O  O378  1  0.14307034  0.59704132  0.36993657  1
  O  O379  1  0.07829835  0.69067091  0.85552356  1
  O  O380  1  0.62238371  0.14112347  0.37444409  1
  O  O381  1  0.61199686  0.13920830  0.88603496  1
  O  O382  1  0.63905777  0.64522746  0.35776746  1
  O  O383  1  0.63447058  0.61861220  0.89034535  1
