# generated using pymatgen
data_VZnO4
_symmetry_space_group_name_H-M   'P 1'
_cell_length_a   16.88334817
_cell_length_b   16.90926951
_cell_length_c   16.86689580
_cell_angle_alpha   89.99386842
_cell_angle_beta   90.15757946
_cell_angle_gamma   89.72704471
_symmetry_Int_Tables_number   1
_chemical_formula_structural   VZnO4
_chemical_formula_sum   'V64 Zn64 O256'
_cell_volume   4815.17428249
_cell_formula_units_Z   64
loop_
 _symmetry_equiv_pos_site_id
 _symmetry_equiv_pos_as_xyz
  1  'x, y, z'
loop_
 _atom_site_type_symbol
 _atom_site_label
 _atom_site_symmetry_multiplicity
 _atom_site_fract_x
 _atom_site_fract_y
 _atom_site_fract_z
 _atom_site_occupancy
  V  V0  1  0.87683561  0.50273563  0.37693130  1
  V  V1  1  0.75082329  -0.00328078  0.75503971  1
  V  V2  1  0.35661101  0.74313971  0.61413256  1
  V  V3  1  0.64242807  0.00037871  0.12944811  1
  V  V4  1  0.10841007  0.48310772  0.14018774  1
  V  V5  1  0.11687341  0.14218133  0.51715480  1
  V  V6  1  0.50418307  0.40909336  0.35703187  1
  V  V7  1  0.87472984  0.37303998  0.51119029  1
  V  V8  1  0.87428374  0.88180696  0.48234396  1
  V  V9  1  0.62715457  0.24580631  0.36857483  1
  V  V10  1  0.65200476  0.35806258  0.23541753  1
  V  V11  1  0.12920601  0.86068638  0.24803127  1
  V  V12  1  0.02240893  -0.01161217  -0.00411806  1
  V  V13  1  0.26770947  0.61366788  0.38517578  1
  V  V14  1  0.63772703  0.50007220  0.12327281  1
  V  V15  1  0.11743214  0.65333009  0.49036421  1
  V  V16  1  0.62153828  0.11996168  0.50166053  1
  V  V17  1  0.11730931  0.49900695  0.61250278  1
  V  V18  1  0.24784398  0.25157847  0.00050773  1
  V  V19  1  0.50028973  -0.02096864  0.00622608  1
  V  V20  1  0.24981882  0.12534514  0.87077239  1
  V  V21  1  0.73576805  0.13214006  0.88161509  1
  V  V22  1  0.35003098  0.50275896  0.87864369  1
  V  V23  1  0.91581470  0.12221111  0.22828300  1
  V  V24  1  0.00071211  0.63815354  0.63278477  1
  V  V25  1  0.74159362  0.73947747  0.48644808  1
  V  V26  1  0.34559628  0.36150206  0.54823699  1
  V  V27  1  0.51038302  0.15213581  0.63506406  1
  V  V28  1  0.88158414  -0.00828032  0.88493231  1
  V  V29  1  0.25736406  -0.00520682  0.73251018  1
  V  V30  1  0.87653622  0.75004557  0.63634223  1
  V  V31  1  0.00235638  0.52703417  -0.00609428  1
  V  V32  1  0.73496113  0.25372566  0.00766479  1
  V  V33  1  0.77015254  0.63074035  0.87607324  1
  V  V34  1  -0.00378936  0.36062482  0.36383781  1
  V  V35  1  0.49004586  0.23844177  0.24880075  1
  V  V36  1  0.88234503  0.13303021  0.74505884  1
  V  V37  1  0.11151680  0.87853507  0.73882107  1
  V  V38  1  0.36210993  0.37764297  0.01486624  1
  V  V39  1  0.78497569  0.50243282  0.75147182  1
  V  V40  1  0.22917418  0.50490149  0.74546162  1
  V  V41  1  0.01035179  -0.00311295  0.49750126  1
  V  V42  1  0.37785547  0.62968097  0.74818847  1
  V  V43  1  0.74874570  0.87239949  0.62428962  1
  V  V44  1  0.11341065  0.75621980  0.87104665  1
  V  V45  1  0.61028400  0.86913146  0.76351891  1
  V  V46  1  0.75529490  0.10700351  0.37203003  1
  V  V47  1  0.61188271  -0.00651351  0.62414898  1
  V  V48  1  0.12401602  0.25884290  0.85159056  1
  V  V49  1  0.75774788  0.51805286  0.25506633  1
  V  V50  1  0.04424571  0.12170857  0.10913744  1
  V  V51  1  0.75809744  0.76118252  0.00779847  1
  V  V52  1  0.49191480  0.13373250  0.11247634  1
  V  V53  1  0.26368793  0.77535174  -0.01593469  1
  V  V54  1  0.60709843  0.73941443  0.88423749  1
  V  V55  1  0.50100549  0.51122544  0.01229182  1
  V  V56  1  0.49678987  0.85368473  0.36520462  1
  V  V57  1  0.64039971  0.86289595  0.24995083  1
  V  V58  1  0.25709790  0.13543588  0.37278966  1
  V  V59  1  0.37751423  0.89548188  0.49774805  1
  V  V60  1  0.38942676  -0.01290899  0.87362132  1
  V  V61  1  0.74142483  0.26420507  0.51015702  1
  V  V62  1  0.38895708  0.14153401  0.75242615  1
  V  V63  1  0.90455294  0.33091139  0.00480339  1
  Zn  Zn64  1  0.21668322  0.16336927  0.17946485  1
  Zn  Zn65  1  0.20129530  0.18633351  0.67076444  1
  Zn  Zn66  1  0.18252676  0.66177744  0.19217718  1
  Zn  Zn67  1  0.18698199  0.69011219  0.69225509  1
  Zn  Zn68  1  0.68983531  0.17036343  0.18423238  1
  Zn  Zn69  1  0.72576389  0.16762475  0.66818156  1
  Zn  Zn70  1  0.68194537  0.68521800  0.18879819  1
  Zn  Zn71  1  0.69164911  0.69017682  0.69806888  1
  Zn  Zn72  1  0.33749037  0.30519884  0.35535225  1
  Zn  Zn73  1  0.30519827  0.32295388  0.80668045  1
  Zn  Zn74  1  0.32463198  0.80725004  0.31504988  1
  Zn  Zn75  1  0.31694852  0.81042703  0.80412857  1
  Zn  Zn76  1  0.82538186  0.29238738  0.31810865  1
  Zn  Zn77  1  0.81780427  0.31528848  0.82174711  1
  Zn  Zn78  1  0.82574480  0.79630511  0.31041385  1
  Zn  Zn79  1  0.80602876  0.81173249  0.81941503  1
  Zn  Zn80  1  0.20235927  0.43863700  0.43858994  1
  Zn  Zn81  1  0.16699651  0.43561566  0.93585909  1
  Zn  Zn82  1  0.19179790  0.93259992  0.43752558  1
  Zn  Zn83  1  0.19940895  0.93244391  0.92187532  1
  Zn  Zn84  1  0.67449607  0.44129324  0.42906195  1
  Zn  Zn85  1  0.81760692  0.45199889  0.93535587  1
  Zn  Zn86  1  0.67811782  0.92524677  0.43662503  1
  Zn  Zn87  1  0.68676621  0.93879186  0.94251527  1
  Zn  Zn88  1  0.32284971  0.06638805  0.05342636  1
  Zn  Zn89  1  0.32114996  0.08784458  0.55352650  1
  Zn  Zn90  1  0.27242081  0.55581116  0.06086610  1
  Zn  Zn91  1  0.30720859  0.56288380  0.56013749  1
  Zn  Zn92  1  0.82286330  0.07524228  0.06115777  1
  Zn  Zn93  1  0.81259752  0.05992350  0.55950813  1
  Zn  Zn94  1  0.81963638  0.57846130  0.06092746  1
  Zn  Zn95  1  0.81071114  0.56199646  0.56189726  1
  Zn  Zn96  1  0.45012885  0.40118548  0.16912924  1
  Zn  Zn97  1  0.40290347  0.44604540  0.67467472  1
  Zn  Zn98  1  0.46043027  0.97212723  0.22139648  1
  Zn  Zn99  1  0.42706236  0.93071255  0.68342341  1
  Zn  Zn100  1  0.93408573  0.42572718  0.18032924  1
  Zn  Zn101  1  0.93739548  0.44942134  0.67425752  1
  Zn  Zn102  1  0.95699224  0.95651567  0.19530846  1
  Zn  Zn103  1  0.93411948  0.94633196  0.67888031  1
  Zn  Zn104  1  0.07538541  0.05670145  0.32295438  1
  Zn  Zn105  1  0.06416784  0.05603612  0.80120542  1
  Zn  Zn106  1  0.09276794  0.52429354  0.34917765  1
  Zn  Zn107  1  0.05594426  0.57750148  0.81678176  1
  Zn  Zn108  1  0.57080003  0.05589987  0.31280999  1
  Zn  Zn109  1  0.56329917  0.05845143  0.81519368  1
  Zn  Zn110  1  0.52072859  0.56672434  0.22700186  1
  Zn  Zn111  1  0.54379191  0.56849883  0.83286168  1
  Zn  Zn112  1  0.43792321  0.18931475  0.44309303  1
  Zn  Zn113  1  0.43284519  0.19077609  0.93920589  1
  Zn  Zn114  1  0.43854573  0.67138605  0.42993911  1
  Zn  Zn115  1  0.42811476  0.68175807  0.94529509  1
  Zn  Zn116  1  0.93562093  0.18432281  0.44247351  1
  Zn  Zn117  1  0.95065069  0.16994467  0.92660073  1
  Zn  Zn118  1  0.93140090  0.69514130  0.43646693  1
  Zn  Zn119  1  0.94138288  0.70461589  0.94307968  1
  Zn  Zn120  1  0.08754717  0.31098307  0.06614628  1
  Zn  Zn121  1  0.08996675  0.34851019  0.51270629  1
  Zn  Zn122  1  0.07522322  0.82104525  0.05548712  1
  Zn  Zn123  1  0.06059701  0.82342629  0.56288016  1
  Zn  Zn124  1  0.55813632  0.31903630  0.05598216  1
  Zn  Zn125  1  0.52918418  0.31186799  0.52730043  1
  Zn  Zn126  1  0.56905236  0.80969968  0.07195445  1
  Zn  Zn127  1  0.55943032  0.81592491  0.54914464  1
  O  O128  1  0.14439731  0.10335380  0.11512011  1
  O  O129  1  0.12237197  0.11947483  0.61532748  1
  O  O130  1  -0.00166612  0.63270843  0.19531229  1
  O  O131  1  0.11216359  0.63524627  0.61518845  1
  O  O132  1  0.60992396  0.10428157  0.13068793  1
  O  O133  1  0.62041951  0.11328676  0.62675973  1
  O  O134  1  0.60998613  0.59716566  0.16045941  1
  O  O135  1  0.58290535  0.66613610  0.63457548  1
  O  O136  1  0.40255726  0.39543303  0.35900636  1
  O  O137  1  0.36849640  0.39959515  0.87577897  1
  O  O138  1  0.38794868  0.87531280  0.38222322  1
  O  O139  1  0.38282533  0.88956239  0.86459989  1
  O  O140  1  0.87992277  0.37382509  0.38081419  1
  O  O141  1  0.88478556  0.36659145  0.90091389  1
  O  O142  1  0.86314873  0.88172240  0.38435664  1
  O  O143  1  0.86948797  0.89349024  0.86723011  1
  O  O144  1  0.23066892  0.02180454  0.37992918  1
  O  O145  1  0.27282775  0.01240193  0.86894913  1
  O  O146  1  0.21857487  0.51854530  0.36450091  1
  O  O147  1  0.24540983  0.50702959  0.87112691  1
  O  O148  1  0.73503309  0.01005617  0.38718209  1
  O  O149  1  0.75454246  0.00551131  0.87175848  1
  O  O150  1  0.75456826  0.49185212  0.35790193  1
  O  O151  1  0.75944226  0.52170767  0.86947362  1
  O  O152  1  0.18556113  0.56060659  0.13438554  1
  O  O153  1  0.22791821  0.51136499  0.63465009  1
  O  O154  1  0.30363000  0.97858788  0.13658005  1
  O  O155  1  0.26874145  1.01499097  0.63691263  1
  O  O156  1  0.74282037  0.51330001  0.12738357  1
  O  O157  1  0.76302537  0.51405470  0.65154046  1
  O  O158  1  0.74036528  1.01118065  0.11620663  1
  O  O159  1  0.73858978  0.99054035  0.63518856  1
  O  O160  1  -0.00813379  0.36568823  0.26355326  1
  O  O161  1  -0.00456853  0.34619625  0.72883209  1
  O  O162  1  0.02264392  0.87089841  0.24464686  1
  O  O163  1  0.01227354  0.89457846  0.74488541  1
  O  O164  1  0.51631534  0.35739297  0.25204273  1
  O  O165  1  0.63609424  0.41663151  0.65825191  1
  O  O166  1  0.49959766  0.86899266  0.25817619  1
  O  O167  1  0.51250164  0.87802197  0.74637742  1
  O  O168  1  0.50356310  0.13530694  0.23995793  1
  O  O169  1  0.50305208  0.13085384  0.74571091  1
  O  O170  1  0.41889330  0.61629118  0.24674508  1
  O  O171  1  0.47825605  0.61072111  0.75016398  1
  O  O172  1  1.02369918  0.11056163  0.22873036  1
  O  O173  1  0.98088415  0.11087776  0.74224008  1
  O  O174  1  0.92353416  0.62676853  0.18977228  1
  O  O175  1  1.00326159  0.63876545  0.73223607  1
  O  O176  1  0.36809943  0.27191128  -0.01070482  1
  O  O177  1  0.41345517  0.29413172  0.49857396  1
  O  O178  1  0.36238226  0.75399395  -0.00070446  1
  O  O179  1  0.38936741  0.72960837  0.51822164  1
  O  O180  1  0.88058816  0.23107790  -0.00341125  1
  O  O181  1  0.85039264  0.26071633  0.50038932  1
  O  O182  1  0.85983311  0.75468548  0.00299335  1
  O  O183  1  0.86155715  0.76616953  0.50865720  1
  O  O184  1  0.11315614  0.24082693  0.51507179  1
  O  O185  1  0.14690675  0.25106029  0.97607876  1
  O  O186  1  0.12550966  0.75307248  0.49801400  1
  O  O187  1  0.13991724  0.77708418  0.97656901  1
  O  O188  1  0.62395429  0.24621842  0.48657190  1
  O  O189  1  0.63417888  0.26336694  0.99493956  1
  O  O190  1  0.64142562  0.75809416  0.49855718  1
  O  O191  1  0.62617758  0.75553277  0.98736761  1
  O  O192  1  0.50716589  0.24347029  0.13500475  1
  O  O193  1  0.52224951  0.25075519  0.63128795  1
  O  O194  1  0.48032023  0.74904410  0.13207177  1
  O  O195  1  0.53233127  0.72280102  0.62696258  1
  O  O196  1  1.03892762  0.22223407  0.11849904  1
  O  O197  1  1.00532596  0.28752569  0.68603925  1
  O  O198  1  1.01899613  0.76956182  0.13418268  1
  O  O199  1  0.98356343  0.75399402  0.62364854  1
  O  O200  1  -0.00269592  0.26217716  0.38610824  1
  O  O201  1  0.02871510  0.22651464  0.86334442  1
  O  O202  1  -0.07771962  0.74246696  0.33382203  1
  O  O203  1  0.01303854  0.76476115  0.87896210  1
  O  O204  1  0.51362040  0.24103501  0.36256072  1
  O  O205  1  0.50726306  0.28055113  0.87663732  1
  O  O206  1  0.49166584  0.75201439  0.36758637  1
  O  O207  1  0.50682427  0.74171804  0.88356203  1
  O  O208  1  0.22391302  0.11891397  0.49466233  1
  O  O209  1  0.27043022  0.13740165  0.97888245  1
  O  O210  1  0.23161400  0.62301374  0.49064223  1
  O  O211  1  0.23424499  0.66753502  1.02777858  1
  O  O212  1  0.73119068  0.13601382  0.50448855  1
  O  O213  1  0.75273389  0.13242072  0.98650648  1
  O  O214  1  0.75157812  0.64127238  0.50885317  1
  O  O215  1  0.75316406  0.63405899  0.98325845  1
  O  O216  1  0.25400387  0.36423137  -0.01080039  1
  O  O217  1  0.25160032  0.36458160  0.50649859  1
  O  O218  1  0.26199027  0.87642404  0.00022960  1
  O  O219  1  0.27800360  0.87748986  0.48885606  1
  O  O220  1  0.76789597  0.35048196  -0.00345035  1
  O  O221  1  0.74016967  0.36567990  0.49117498  1
  O  O222  1  0.74522596  0.86197952  0.00042286  1
  O  O223  1  0.75263259  0.87039545  0.50971841  1
  O  O224  1  0.09134553  0.49761920  0.23873815  1
  O  O225  1  0.12501165  0.51534367  0.74230868  1
  O  O226  1  0.12967225  0.96821313  0.25713035  1
  O  O227  1  0.14938632  0.99241807  0.75058335  1
  O  O228  1  0.65559827  0.47264474  0.23974269  1
  O  O229  1  0.59968353  0.42708998  0.82333544  1
  O  O230  1  0.62869969  0.98814113  0.23644801  1
  O  O231  1  0.62991653  0.98952428  0.74409400  1
  O  O232  1  0.33766231  -0.01551031  0.20461803  1
  O  O233  1  0.38056746  0.00878149  0.75894076  1
  O  O234  1  0.36550423  0.57782495  0.19963209  1
  O  O235  1  0.35737777  0.50982736  0.75994656  1
  O  O236  1  0.88862285  0.02682572  0.25468669  1
  O  O237  1  0.86053660  0.00290801  0.75376061  1
  O  O238  1  0.86105450  0.49028340  0.25402305  1
  O  O239  1  0.88623122  0.50654468  0.75721743  1
  O  O240  1  0.09709368  0.39101445  0.39955057  1
  O  O241  1  0.12630483  0.35909883  0.86254706  1
  O  O242  1  0.12966354  0.85968928  0.35593474  1
  O  O243  1  0.13803911  0.87207256  0.84885223  1
  O  O244  1  0.62863833  0.36295225  0.34792769  1
  O  O245  1  0.63390104  0.39411008  0.87878057  1
  O  O246  1  0.60897081  0.87754066  0.36014770  1
  O  O247  1  0.62147781  0.87366517  0.86637183  1
  O  O248  1  0.39087810  0.13067172  0.12128269  1
  O  O249  1  0.40489428  0.12970691  0.63940992  1
  O  O250  1  0.35157287  0.61635145  0.13252258  1
  O  O251  1  0.37002765  0.62975115  0.63518784  1
  O  O252  1  0.89844037  0.12818581  0.12721705  1
  O  O253  1  0.84232820  0.12792523  0.64508010  1
  O  O254  1  0.88880301  0.65543105  0.12243461  1
  O  O255  1  0.88673222  0.64222708  0.61605167  1
  O  O256  1  0.24696984  0.23910376  0.10008826  1
  O  O257  1  0.27723175  0.19552492  0.58613036  1
  O  O258  1  0.22999433  0.71905958  0.09319927  1
  O  O259  1  0.25821965  0.74918946  0.61627236  1
  O  O260  1  0.74418278  0.23210542  0.10707047  1
  O  O261  1  0.72383805  0.26180479  0.60969747  1
  O  O262  1  0.73574662  0.73639551  0.10472250  1
  O  O263  1  0.75430466  0.75820098  0.62443009  1
  O  O264  1  0.25315324  0.24236649  0.38177055  1
  O  O265  1  0.25144211  0.23816097  0.87135247  1
  O  O266  1  0.28292678  0.72437921  0.37885792  1
  O  O267  1  0.25326723  0.75892047  0.88073812  1
  O  O268  1  0.73669694  0.23727356  0.38478214  1
  O  O269  1  0.74804034  0.23536386  0.87786845  1
  O  O270  1  0.75382444  0.74464303  0.38688280  1
  O  O271  1  0.73863751  0.74399832  0.88364383  1
  O  O272  1  0.01543861  0.10967488  0.00490681  1
  O  O273  1  0.01372099  0.11403566  0.49274671  1
  O  O274  1  0.00551616  0.62695509  0.00264669  1
  O  O275  1  0.00810672  0.64502219  0.50879886  1
  O  O276  1  0.50359693  0.13448020  0.00996369  1
  O  O277  1  0.51319511  0.13659987  0.52044612  1
  O  O278  1  0.47918598  0.60852461  0.02268972  1
  O  O279  1  0.52124608  0.60291380  0.49463862  1
  O  O280  1  0.53778317  0.40229257  0.45658737  1
  O  O281  1  0.47338949  0.39266073  1.01641094  1
  O  O282  1  0.49570940  0.87589202  0.47788630  1
  O  O283  1  0.49304631  0.88187377  1.01235168  1
  O  O284  1  0.97493044  0.36980232  0.49991269  1
  O  O285  1  1.00486173  0.34610914  0.99749395  1
  O  O286  1  0.98187274  0.87971310  0.49691685  1
  O  O287  1  1.00060184  0.88941278  1.00133932  1
  O  O288  1  0.52075743  0.50341922  0.32707044  1
  O  O289  1  0.48344728  0.50471925  0.90692899  1
  O  O290  1  0.48088403  0.99241955  0.33293719  1
  O  O291  1  0.49859961  1.00014837  0.89073922  1
  O  O292  1  0.97931840  0.48550384  0.37235888  1
  O  O293  1  1.00897015  0.50945938  0.89303514  1
  O  O294  1  0.99884282  1.00473608  0.39075851  1
  O  O295  1  0.99015918  1.00746700  0.88264627  1
  O  O296  1  0.00981283  0.00487816  0.10578033  1
  O  O297  1  -0.01686564  0.00517100  0.59842219  1
  O  O298  1  0.00366604  0.49236086  0.11190337  1
  O  O299  1  0.00706162  0.52468081  0.62416315  1
  O  O300  1  0.49184959  0.01082536  0.11403882  1
  O  O301  1  0.51272488  0.00061251  0.63270119  1
  O  O302  1  0.50699591  0.49256123  0.13173341  1
  O  O303  1  0.51519930  0.46388255  0.69556678  1
  O  O304  1  0.16644985  0.30476531  0.27908162  1
  O  O305  1  0.24465478  0.40463579  0.75310095  1
  O  O306  1  0.23428593  0.85414046  0.25733421  1
  O  O307  1  0.27086254  0.89386461  0.73935124  1
  O  O308  1  0.75043329  0.34514403  0.24068136  1
  O  O309  1  0.76475640  0.40273976  0.76844736  1
  O  O310  1  0.73987131  0.86049874  0.26270764  1
  O  O311  1  0.73749284  0.88081253  0.74372773  1
  O  O312  1  0.26568349  0.12960326  0.27048153  1
  O  O313  1  0.27354462  0.11813346  0.75672489  1
  O  O314  1  0.24996930  0.64268213  0.28165022  1
  O  O315  1  0.25892713  0.61619098  0.74854440  1
  O  O316  1  0.74795150  0.12197905  0.27115614  1
  O  O317  1  0.74676026  0.11228789  0.76460926  1
  O  O318  1  0.75243267  0.61708349  0.25437526  1
  O  O319  1  0.74303335  0.61586632  0.76557484  1
  O  O320  1  0.35457877  0.12404055  0.41424499  1
  O  O321  1  0.38498474  0.11935157  0.86244678  1
  O  O322  1  0.36365255  0.58664373  0.40545593  1
  O  O323  1  0.37304444  0.61312429  0.86519830  1
  O  O324  1  0.85073314  0.11873475  0.40446062  1
  O  O325  1  0.86591398  0.10952820  0.86094590  1
  O  O326  1  0.87521394  0.60036733  0.38796118  1
  O  O327  1  0.86816743  0.64593274  0.86898480  1
  O  O328  1  0.14204774  0.38713640  0.13100004  1
  O  O329  1  0.10851354  0.39960286  0.61525737  1
  O  O330  1  0.14307152  0.87168236  0.14448913  1
  O  O331  1  0.13019940  0.87201651  0.63859028  1
  O  O332  1  0.62618688  0.38294941  0.13152025  1
  O  O333  1  0.56209708  0.41260506  0.64754873  1
  O  O334  1  0.62411434  0.88655300  0.13816553  1
  O  O335  1  0.62693025  0.88227924  0.62990873  1
  O  O336  1  0.13081812  0.24956574  0.24776445  1
  O  O337  1  0.14916241  0.24380210  0.75258024  1
  O  O338  1  0.12126654  0.75606186  0.24289824  1
  O  O339  1  0.12807962  0.76802408  0.75388786  1
  O  O340  1  0.62412424  0.24891015  0.25011274  1
  O  O341  1  0.54352880  0.27341206  0.81265115  1
  O  O342  1  0.61772415  0.76448752  0.23867640  1
  O  O343  1  0.62733997  0.76331570  0.76579232  1
  O  O344  1  0.39282316  0.25601796  0.25837563  1
  O  O345  1  0.37800107  0.23929466  0.76209634  1
  O  O346  1  0.37346496  0.76313165  0.21001327  1
  O  O347  1  0.37391167  0.73800202  0.73409432  1
  O  O348  1  0.88698285  0.20865114  0.27465697  1
  O  O349  1  0.87064707  0.23184709  0.76096415  1
  O  O350  1  0.86925816  0.81025033  0.17454434  1
  O  O351  1  0.86562730  0.75576787  0.73532676  1
  O  O352  1  0.37539171  0.46323636  0.55385211  1
  O  O353  1  0.34837399  0.49560040  0.99555590  1
  O  O354  1  0.38263178  0.99271256  0.51723558  1
  O  O355  1  0.38924160  1.00291113  0.98423953  1
  O  O356  1  0.85336836  0.48114341  0.48586310  1
  O  O357  1  0.89263346  0.50798174  1.00526366  1
  O  O358  1  0.86791106  0.98384322  0.50065731  1
  O  O359  1  0.87728199  1.00352511  0.98632037  1
  O  O360  1  0.12174698  -0.00943654  -0.01679658  1
  O  O361  1  0.11079408  -0.02031544  0.50416264  1
  O  O362  1  0.10910765  0.49471430  0.01334273  1
  O  O363  1  0.12487062  0.51560131  0.51223251  1
  O  O364  1  0.60940518  -0.00996843  0.01522037  1
  O  O365  1  0.62625806  0.00555083  0.51681450  1
  O  O366  1  0.60900019  0.50399469  0.01985382  1
  O  O367  1  0.63011768  0.52748167  0.50026793  1
  O  O368  1  0.35183117  0.38375743  0.11601080  1
  O  O369  1  0.35225778  0.34260173  0.64772306  1
  O  O370  1  0.42333528  0.79729373  0.15963900  1
  O  O371  1  0.39428209  0.85191927  0.60646018  1
  O  O372  1  0.88315561  0.36451935  0.10043591  1
  O  O373  1  0.86929744  0.38267832  0.61095240  1
  O  O374  1  0.87675482  0.87604960  0.14167936  1
  O  O375  1  0.86118454  0.86839782  0.62411731  1
  O  O376  1  0.13951372  0.12749602  0.38435476  1
  O  O377  1  0.15016703  0.11898656  0.86275700  1
  O  O378  1  0.10893179  0.63273922  0.39013662  1
  O  O379  1  0.12704681  0.65508443  0.86318192  1
  O  O380  1  0.62806534  0.12652396  0.38439857  1
  O  O381  1  0.63628721  0.11945832  0.87701288  1
  O  O382  1  0.58895636  0.58331306  0.46003357  1
  O  O383  1  0.62441987  0.63720852  0.87219975  1
