# generated using pymatgen
data_VZnO4
_symmetry_space_group_name_H-M   'P 1'
_cell_length_a   16.97816700
_cell_length_b   16.91166319
_cell_length_c   16.95125232
_cell_angle_alpha   89.74517256
_cell_angle_beta   89.79514376
_cell_angle_gamma   90.52116967
_symmetry_Int_Tables_number   1
_chemical_formula_structural   VZnO4
_chemical_formula_sum   'V64 Zn64 O256'
_cell_volume   4866.91552947
_cell_formula_units_Z   64
loop_
 _symmetry_equiv_pos_site_id
 _symmetry_equiv_pos_as_xyz
  1  'x, y, z'
loop_
 _atom_site_type_symbol
 _atom_site_label
 _atom_site_symmetry_multiplicity
 _atom_site_fract_x
 _atom_site_fract_y
 _atom_site_fract_z
 _atom_site_occupancy
  V  V0  1  0.26022923  0.12998820  0.35053414  1
  V  V1  1  -0.01160323  0.49730038  0.00927513  1
  V  V2  1  0.50542145  0.53529604  0.00193776  1
  V  V3  1  0.11393763  0.75440191  0.35373759  1
  V  V4  1  0.00507252  0.13233942  0.61856575  1
  V  V5  1  0.87043008  0.87785125  -0.03035263  1
  V  V6  1  0.50069189  0.63014263  0.64013195  1
  V  V7  1  0.87783530  0.63628034  0.25635532  1
  V  V8  1  0.24467826  0.75317454  0.00110689  1
  V  V9  1  0.76351880  0.74093751  0.53220401  1
  V  V10  1  0.38797100  0.87073218  -0.00068114  1
  V  V11  1  0.74555511  0.64475215  0.38319618  1
  V  V12  1  0.46010251  0.14307480  0.62898402  1
  V  V13  1  0.75664582  0.74391213  0.00828439  1
  V  V14  1  0.00083345  0.48909063  0.49442102  1
  V  V15  1  0.38180570  0.75030079  0.63446150  1
  V  V16  1  0.25584226  0.25757258  0.50172888  1
  V  V17  1  0.11212861  0.64177533  0.52786429  1
  V  V18  1  0.38026012  0.24020446  0.12881386  1
  V  V19  1  0.74384012  0.91654399  0.63437394  1
  V  V20  1  0.77130455  0.61207405  0.85860189  1
  V  V21  1  0.13359305  0.12211782  0.49193012  1
  V  V22  1  0.00351145  -0.01153840  -0.01571673  1
  V  V23  1  0.50275258  0.36949159  0.35757755  1
  V  V24  1  0.38085871  -0.00944513  0.85638151  1
  V  V25  1  0.61794537  0.21832824  0.37721364  1
  V  V26  1  0.49381350  0.29386674  0.74636992  1
  V  V27  1  0.60416262  0.86991455  0.75569994  1
  V  V28  1  0.25743336  0.87674090  0.62769840  1
  V  V29  1  0.12205649  0.13114615  0.00160286  1
  V  V30  1  0.13617693  0.48267005  0.61837566  1
  V  V31  1  0.36792738  0.38179955  0.50101367  1
  V  V32  1  0.24891741  0.11353476  0.86441371  1
  V  V33  1  0.50495472  0.75913019  0.25077313  1
  V  V34  1  -0.01633940  0.38231439  0.86124230  1
  V  V35  1  0.75507722  0.35458665  0.11607556  1
  V  V36  1  -0.00551477  0.38031690  0.35897647  1
  V  V37  1  0.10764977  0.75041247  0.85839201  1
  V  V38  1  0.11358872  0.61809573  -0.00574385  1
  V  V39  1  0.39490452  0.39047900  -0.00494898  1
  V  V40  1  0.25297563  -0.01743099  0.23367839  1
  V  V41  1  0.14105597  0.37354125  0.74894857  1
  V  V42  1  0.01773124  0.23920531  0.75695201  1
  V  V43  1  0.23141252  0.38098421  0.12418209  1
  V  V44  1  0.24881581  0.61745686  0.85240867  1
  V  V45  1  0.84709182  0.14293476  0.78228487  1
  V  V46  1  0.78811627  0.13013818  0.41956624  1
  V  V47  1  0.37768181  -0.01027070  0.37668447  1
  V  V48  1  0.25976360  0.74882822  0.49381852  1
  V  V49  1  0.36888655  0.50315323  0.35165827  1
  V  V50  1  0.24989999  0.62325014  0.35029369  1
  V  V51  1  0.25839288  0.25337293  -0.01355056  1
  V  V52  1  0.75513826  0.48319276  0.27756812  1
  V  V53  1  0.12175894  -0.02031266  0.12425104  1
  V  V54  1  0.62657957  0.50337149  0.12935121  1
  V  V55  1  0.12790766  0.26146145  0.34994262  1
  V  V56  1  0.61332339  0.30499535  0.88688620  1
  V  V57  1  0.49706167  0.51616276  0.49042326  1
  V  V58  1  -0.02022356  0.91522126  0.38761881  1
  V  V59  1  0.12832322  0.00179817  0.61785879  1
  V  V60  1  0.75350711  0.01015033  0.24809442  1
  V  V61  1  0.09936320  0.88135658  0.74422014  1
  V  V62  1  0.62116717  0.72394868  0.86323566  1
  V  V63  1  0.62196376  0.49207508  0.62928117  1
  Zn  Zn64  1  0.18955897  0.18812064  0.17005292  1
  Zn  Zn65  1  0.19622255  0.19144383  0.68288574  1
  Zn  Zn66  1  0.17238723  0.66219808  0.18132643  1
  Zn  Zn67  1  0.17330234  0.69637550  0.67907379  1
  Zn  Zn68  1  0.73019657  0.20014559  0.24773029  1
  Zn  Zn69  1  0.68426697  0.22933191  0.74023846  1
  Zn  Zn70  1  0.73348821  0.65934657  0.17068180  1
  Zn  Zn71  1  0.68504978  0.66345791  0.69228084  1
  Zn  Zn72  1  0.31180448  0.32093226  0.30044823  1
  Zn  Zn73  1  0.32074994  0.32331611  0.81660661  1
  Zn  Zn74  1  0.30930365  0.81021157  0.30341169  1
  Zn  Zn75  1  0.30461570  0.80863707  0.81500395  1
  Zn  Zn76  1  0.79162550  0.27351758  0.54577975  1
  Zn  Zn77  1  0.79858950  0.28449733  0.91592922  1
  Zn  Zn78  1  0.82101581  0.82418865  0.32516818  1
  Zn  Zn79  1  0.78769067  0.81742913  0.80983206  1
  Zn  Zn80  1  0.18109011  0.44505748  0.42854159  1
  Zn  Zn81  1  0.17727225  0.43731401  0.92738304  1
  Zn  Zn82  1  0.19668234  0.93299570  0.42900026  1
  Zn  Zn83  1  0.18639539  0.93279241  0.92833319  1
  Zn  Zn84  1  0.67687591  0.42831209  0.44622100  1
  Zn  Zn85  1  0.70852383  0.44840620  0.97389922  1
  Zn  Zn86  1  0.83138874  0.94520163  0.49401727  1
  Zn  Zn87  1  0.65469154  0.88085535  0.96260206  1
  Zn  Zn88  1  0.31668343  0.05664551  0.04767771  1
  Zn  Zn89  1  0.30943595  0.06459349  0.55322051  1
  Zn  Zn90  1  0.30371376  0.56515214  0.05452895  1
  Zn  Zn91  1  0.30814261  0.56452581  0.56887251  1
  Zn  Zn92  1  0.84979841  0.04639215  0.09677032  1
  Zn  Zn93  1  0.78585718  0.08750125  0.61141084  1
  Zn  Zn94  1  0.82009802  0.55805291  0.06602810  1
  Zn  Zn95  1  0.81170799  0.54660379  0.55384819  1
  Zn  Zn96  1  0.43216511  0.43347252  0.17249484  1
  Zn  Zn97  1  0.41116733  0.46115949  0.68010574  1
  Zn  Zn98  1  0.42302261  0.94269668  0.17926525  1
  Zn  Zn99  1  0.43488444  0.94455580  0.67101205  1
  Zn  Zn100  1  0.92641093  0.43804873  0.19094385  1
  Zn  Zn101  1  0.94811159  0.36375108  0.62782715  1
  Zn  Zn102  1  0.95410855  0.94646542  0.21208049  1
  Zn  Zn103  1  0.90268434  0.95533881  0.70843588  1
  Zn  Zn104  1  0.08086038  0.05469113  0.31519046  1
  Zn  Zn105  1  0.07661953  0.05722074  0.80851022  1
  Zn  Zn106  1  0.06524617  0.56058038  0.30087487  1
  Zn  Zn107  1  0.05943195  0.55500985  0.79942406  1
  Zn  Zn108  1  0.58734349  0.01542941  0.36498139  1
  Zn  Zn109  1  0.54891615  0.03882446  0.76468564  1
  Zn  Zn110  1  0.57697660  0.55779101  0.31354140  1
  Zn  Zn111  1  0.60049228  0.51210766  0.83954848  1
  Zn  Zn112  1  0.43584549  0.18513133  0.43479119  1
  Zn  Zn113  1  0.42387538  0.19994704  0.88482066  1
  Zn  Zn114  1  0.42676756  0.68909310  0.43155414  1
  Zn  Zn115  1  0.42404685  0.68274273  0.92553342  1
  Zn  Zn116  1  0.94924812  0.23291606  0.46313032  1
  Zn  Zn117  1  0.94879095  0.16504590  0.92468517  1
  Zn  Zn118  1  0.93135291  0.68650462  0.43650499  1
  Zn  Zn119  1  0.93299555  0.68832606  0.93569408  1
  Zn  Zn120  1  0.05534456  0.31949997  0.05047945  1
  Zn  Zn121  1  0.08114944  0.30903276  0.55145711  1
  Zn  Zn122  1  0.06743032  0.81326142  0.04669107  1
  Zn  Zn123  1  0.08040573  0.81892910  0.54144843  1
  Zn  Zn124  1  0.56687802  0.31535646  0.07758273  1
  Zn  Zn125  1  0.54212451  0.31594944  0.55630815  1
  Zn  Zn126  1  0.54149893  0.74431467  0.03296447  1
  Zn  Zn127  1  0.58562444  0.80118205  0.57390613  1
  O  O128  1  0.13066740  0.11107275  0.10405655  1
  O  O129  1  0.14362127  0.11740932  0.60903484  1
  O  O130  1  0.10608193  0.63608941  0.09048719  1
  O  O131  1  0.13325027  0.59399910  0.62473235  1
  O  O132  1  0.59767905  0.08824162  0.12103342  1
  O  O133  1  0.59402550  0.14412294  0.73776644  1
  O  O134  1  0.64228093  0.60598067  0.12820581  1
  O  O135  1  0.60435365  0.61802281  0.62190659  1
  O  O136  1  0.37485937  0.39143240  0.37187087  1
  O  O137  1  0.36162664  0.39114046  0.90003222  1
  O  O138  1  0.35542999  0.88997264  0.37193698  1
  O  O139  1  0.36635988  0.88280127  0.87819772  1
  O  O140  1  0.90031869  0.37156777  0.37612722  1
  O  O141  1  0.89066635  0.34661652  0.87492936  1
  O  O142  1  0.87857567  0.89395638  0.40428795  1
  O  O143  1  0.87117501  0.88089939  0.87168740  1
  O  O144  1  0.24799486  0.01329763  0.35470006  1
  O  O145  1  0.25336211  0.00832740  0.87540528  1
  O  O146  1  0.25751603  0.51178887  0.36739336  1
  O  O147  1  0.23076065  0.51745001  0.86527463  1
  O  O148  1  0.77707186  0.03032471  0.43751232  1
  O  O149  1  0.65981320  0.00376184  0.93757226  1
  O  O150  1  0.75139054  0.48158849  0.37985063  1
  O  O151  1  0.75620917  0.51716701  0.89478728  1
  O  O152  1  0.24330320  0.47721688  0.09081724  1
  O  O153  1  0.23382879  0.47497413  0.60139133  1
  O  O154  1  0.24279592  1.00096986  0.12845500  1
  O  O155  1  0.24650983  0.98220135  0.61250107  1
  O  O156  1  0.73658294  0.48248633  0.09266262  1
  O  O157  1  0.71893205  0.49822826  0.59675881  1
  O  O158  1  0.74553897  1.02795705  0.14642556  1
  O  O159  1  0.69864735  1.00443467  0.62018483  1
  O  O160  1  0.00330010  0.38952283  0.25793861  1
  O  O161  1  -0.00275281  0.34877653  0.74743337  1
  O  O162  1  -0.00412884  0.88102421  0.29141786  1
  O  O163  1  0.00119079  0.89421480  0.73733328  1
  O  O164  1  0.48424134  0.37396432  0.25988859  1
  O  O165  1  0.46400350  0.39048311  0.74566239  1
  O  O166  1  0.49204292  0.86278318  0.23640392  1
  O  O167  1  0.50715548  0.87573379  0.73573476  1
  O  O168  1  0.53571109  0.06466219  0.15508288  1
  O  O169  1  0.51268570  0.16845902  0.74209183  1
  O  O170  1  0.51749423  0.65554413  0.26228446  1
  O  O171  1  0.48984398  0.61981670  0.73428696  1
  O  O172  1  0.96958904  0.13114589  0.23129167  1
  O  O173  1  1.03276722  0.13200523  0.73200404  1
  O  O174  1  0.97557425  0.61660785  0.25739972  1
  O  O175  1  0.98749948  0.60918160  0.71771409  1
  O  O176  1  0.36328060  0.26325460  -0.00722854  1
  O  O177  1  0.36203384  0.26668556  0.48179660  1
  O  O178  1  0.35238550  0.75933701  -0.01782518  1
  O  O179  1  0.36310801  0.75293858  0.50011854  1
  O  O180  1  0.91289528  0.22292531  0.05324059  1
  O  O181  1  0.90126296  0.29865910  0.54266633  1
  O  O182  1  0.87038373  0.76946209  -0.00793854  1
  O  O183  1  0.86265163  0.75327070  0.49854388  1
  O  O184  1  0.14523648  0.24645753  0.47875007  1
  O  O185  1  0.12018565  0.23266940  0.99992436  1
  O  O186  1  0.14197831  0.73773125  0.47120188  1
  O  O187  1  0.12349942  0.74274749  0.97764620  1
  O  O188  1  0.62928460  0.27582598  0.48680117  1
  O  O189  1  0.61446051  0.27192277  0.98148391  1
  O  O190  1  0.66222709  0.75420894  0.51059568  1
  O  O191  1  0.64609044  0.75872843  0.98389444  1
  O  O192  1  0.48022976  0.25437314  0.11455374  1
  O  O193  1  0.48463713  0.25882240  0.63958704  1
  O  O194  1  0.52192956  0.74719412  0.14988049  1
  O  O195  1  0.49265382  0.74376916  0.61752625  1
  O  O196  1  0.96942441  0.25222107  0.10305352  1
  O  O197  1  1.02199516  0.24000250  0.63167031  1
  O  O198  1  0.98701667  0.75971726  0.12876580  1
  O  O199  1  1.08027967  0.71664488  0.59527171  1
  O  O200  1  0.02276021  0.26635754  0.37524577  1
  O  O201  1  0.01275070  0.23959671  0.85989891  1
  O  O202  1  0.01636569  0.74171542  0.37708514  1
  O  O203  1  0.01001187  0.75461857  0.87552817  1
  O  O204  1  0.50777548  0.26291201  0.38461150  1
  O  O205  1  0.51370280  0.26926858  0.86408435  1
  O  O206  1  0.48705678  0.76362623  0.35620711  1
  O  O207  1  0.52283299  0.72427291  0.88483070  1
  O  O208  1  0.24961047  0.14105407  0.48231902  1
  O  O209  1  0.23970166  0.13544718  0.99163610  1
  O  O210  1  0.23613212  0.63967907  0.51148963  1
  O  O211  1  0.22670333  0.63021555  0.97853922  1
  O  O212  1  0.76858804  0.16146740  0.52331581  1
  O  O213  1  0.69939778  0.04982573  0.97952882  1
  O  O214  1  0.76365099  0.63370277  0.49272528  1
  O  O215  1  0.76969822  0.64382127  0.99546624  1
  O  O216  1  0.22871826  0.35358727  -0.01017717  1
  O  O217  1  0.25630053  0.36691495  0.48164613  1
  O  O218  1  0.23832127  0.85619925  -0.00573608  1
  O  O219  1  0.23526384  0.85477595  0.51142741  1
  O  O220  1  0.75864779  0.34454224  0.00766868  1
  O  O221  1  0.69752695  0.32695780  0.49810653  1
  O  O222  1  0.76809619  0.87163183  -0.00626381  1
  O  O223  1  0.76088099  0.86340439  0.54567967  1
  O  O224  1  0.14131631  0.55483102  0.21906214  1
  O  O225  1  0.11958465  0.48269755  0.72924064  1
  O  O226  1  0.13553590  1.00262710  0.23206739  1
  O  O227  1  0.13073423  0.98545766  0.73574488  1
  O  O228  1  0.64591889  0.50125958  0.23996272  1
  O  O229  1  0.62076870  0.50208160  0.72948604  1
  O  O230  1  0.65681254  0.99864386  0.27979241  1
  O  O231  1  0.63521855  0.96555037  0.76714991  1
  O  O232  1  0.35613365  0.00103026  0.24992765  1
  O  O233  1  0.36231534  -0.01546335  0.75839032  1
  O  O234  1  0.37804440  0.50212393  0.25365262  1
  O  O235  1  0.32902550  0.53276245  0.68024906  1
  O  O236  1  0.88617043  0.03198822  0.20425406  1
  O  O237  1  0.88960060  0.05283809  0.77399535  1
  O  O238  1  0.85488255  0.50770908  0.24953955  1
  O  O239  1  0.92353068  0.56850128  0.69495571  1
  O  O240  1  0.14238595  0.36226170  0.35632433  1
  O  O241  1  0.10536294  0.38078307  0.84987799  1
  O  O242  1  0.14302747  0.85307519  0.36611501  1
  O  O243  1  0.12450721  0.86861657  0.85074988  1
  O  O244  1  0.60045437  0.38730744  0.36506037  1
  O  O245  1  0.62919701  0.40700224  0.88883304  1
  O  O246  1  0.60436291  0.93926521  0.46015668  1
  O  O247  1  0.63431373  0.84457490  0.85715349  1
  O  O248  1  0.36584196  0.14131898  0.10790414  1
  O  O249  1  0.36033003  0.13304874  0.63080070  1
  O  O250  1  0.35797726  0.64586919  0.10656144  1
  O  O251  1  0.38656076  0.64600646  0.61162637  1
  O  O252  1  0.86064277  0.17269452  0.08657795  1
  O  O253  1  0.90848997  0.12512568  0.61580922  1
  O  O254  1  0.84715386  0.62864155  0.15070769  1
  O  O255  1  0.88492600  0.60505291  0.63856350  1
  O  O256  1  0.25625347  0.25826381  0.10494441  1
  O  O257  1  0.24855303  0.25382473  0.60019231  1
  O  O258  1  0.23326400  0.73255867  0.09864767  1
  O  O259  1  0.26174277  0.75532226  0.61388277  1
  O  O260  1  0.74328314  0.25958055  0.15297301  1
  O  O261  1  0.75382627  0.30126608  0.66065806  1
  O  O262  1  0.74456908  0.75488731  0.10649539  1
  O  O263  1  0.76622053  0.72012051  0.63044315  1
  O  O264  1  0.24631288  0.24133367  0.36420632  1
  O  O265  1  0.25534983  0.23592223  0.88276112  1
  O  O266  1  0.26385407  0.73489236  0.38129455  1
  O  O267  1  0.22946602  0.74164508  0.87458787  1
  O  O268  1  0.72648506  0.21697817  0.38303733  1
  O  O269  1  0.70464907  0.26066540  0.85372589  1
  O  O270  1  0.74623859  0.74558696  0.37356322  1
  O  O271  1  0.74765622  0.73386208  0.87249973  1
  O  O272  1  0.01258269  0.10610288  -0.00499796  1
  O  O273  1  0.02800729  0.14547234  0.50959524  1
  O  O274  1  0.00254747  0.60887978  -0.01902417  1
  O  O275  1  0.01731143  0.61181199  0.49216604  1
  O  O276  1  0.49167000  0.13900637  -0.00760565  1
  O  O277  1  0.48457886  0.14564342  0.53111120  1
  O  O278  1  0.49282999  0.63754494  0.01675376  1
  O  O279  1  0.49517910  0.61722017  0.48443421  1
  O  O280  1  0.47878228  0.38511157  0.48078960  1
  O  O281  1  0.49289366  0.38084406  0.99661242  1
  O  O282  1  0.51991437  0.90053455  0.55604304  1
  O  O283  1  0.48542295  0.84397637  0.99424327  1
  O  O284  1  1.02859619  0.38360141  0.47704614  1
  O  O285  1  1.00893676  0.39126330  0.97219682  1
  O  O286  1  1.02473934  0.88557540  0.47476870  1
  O  O287  1  0.98802363  0.88056201  0.99604006  1
  O  O288  1  0.48690023  0.49946994  0.37386071  1
  O  O289  1  0.50413875  0.53000796  0.90215932  1
  O  O290  1  0.47602580  0.99767122  0.35486749  1
  O  O291  1  0.48085641  1.01035179  0.85480853  1
  O  O292  1  1.02054558  0.48949831  0.38075580  1
  O  O293  1  0.97932789  0.48188050  0.84695672  1
  O  O294  1  0.99686298  1.01650292  0.37844619  1
  O  O295  1  1.00868116  0.99698076  0.88530518  1
  O  O296  1  0.01867342  -0.00894841  0.11812519  1
  O  O297  1  0.02585022  0.01943931  0.61874142  1
  O  O298  1  -0.00406902  0.48742757  0.10723796  1
  O  O299  1  0.01258825  0.46672996  0.60028181  1
  O  O300  1  0.49119798  0.00946371  0.11329647  1
  O  O301  1  0.49106442  0.04455264  0.65996198  1
  O  O302  1  0.51864602  0.49655892  0.12689697  1
  O  O303  1  0.49202568  0.51862042  0.60639348  1
  O  O304  1  0.25349171  0.38046466  0.22238250  1
  O  O305  1  0.23944404  0.37332433  0.75788960  1
  O  O306  1  0.24997780  0.88337487  0.23923341  1
  O  O307  1  0.24181415  0.86306239  0.72725712  1
  O  O308  1  0.75000227  0.39082657  0.24166870  1
  O  O309  1  0.78653635  0.36705844  0.69806088  1
  O  O310  1  0.79330420  0.91745658  0.26605587  1
  O  O311  1  0.79794976  0.89048181  0.72511051  1
  O  O312  1  0.24833622  0.12426262  0.25062486  1
  O  O313  1  0.23829245  0.12907181  0.76658052  1
  O  O314  1  0.26386085  0.63931600  0.25455767  1
  O  O315  1  0.23445609  0.63871834  0.75421296  1
  O  O316  1  0.77552873  0.10641431  0.29681645  1
  O  O317  1  0.76205777  0.14222522  0.72245582  1
  O  O318  1  0.75368446  0.61180748  0.27408632  1
  O  O319  1  0.75678557  0.60645117  0.75892421  1
  O  O320  1  0.36172732  0.12382745  0.36773581  1
  O  O321  1  0.35830731  0.10693526  0.88071492  1
  O  O322  1  0.36312557  0.61117513  0.37579316  1
  O  O323  1  0.34841729  0.62742231  0.86745693  1
  O  O324  1  0.88413695  0.15487075  0.41069824  1
  O  O325  1  0.84284402  0.17070748  0.88725265  1
  O  O326  1  0.85905361  0.62342747  0.37005158  1
  O  O327  1  0.87098278  0.63145790  0.86210951  1
  O  O328  1  0.13192839  0.35943201  0.12145033  1
  O  O329  1  0.12705519  0.37186432  0.63566443  1
  O  O330  1  0.12574817  0.87995936  0.11979117  1
  O  O331  1  0.12840278  0.88216229  0.62989907  1
  O  O332  1  0.64138767  0.38439943  0.12477394  1
  O  O333  1  0.59664630  0.39565663  0.61718963  1
  O  O334  1  0.64311196  0.90767578  0.14041566  1
  O  O335  1  0.65335055  0.85357648  0.65901323  1
  O  O336  1  0.12506409  0.23791429  0.25286405  1
  O  O337  1  0.12585825  0.26146514  0.74546830  1
  O  O338  1  0.12735990  0.73929382  0.25482094  1
  O  O339  1  0.11042261  0.76602317  0.74971749  1
  O  O340  1  0.61857182  0.22352081  0.27721602  1
  O  O341  1  0.59783039  0.30667197  0.75454876  1
  O  O342  1  0.60503759  0.78023886  0.27107598  1
  O  O343  1  0.62361839  0.74013824  0.75863910  1
  O  O344  1  0.36653628  0.25113652  0.22786853  1
  O  O345  1  0.39637040  0.24976350  0.77943626  1
  O  O346  1  0.39930983  0.75155179  0.24340148  1
  O  O347  1  0.37207008  0.75425347  0.73216740  1
  O  O348  1  0.93898725  0.19254443  0.25320930  1
  O  O349  1  0.90597737  0.21947869  0.74536793  1
  O  O350  1  0.86780276  0.73856887  0.26426714  1
  O  O351  1  0.91095249  0.74607833  0.73526521  1
  O  O352  1  0.37647374  0.49497369  0.48851562  1
  O  O353  1  0.39802484  0.49819211  1.01814353  1
  O  O354  1  0.36770826  1.00697310  0.47665185  1
  O  O355  1  0.37466055  0.97991914  0.98500964  1
  O  O356  1  0.90115658  0.49938393  0.49888002  1
  O  O357  1  0.88968675  0.50195794  0.99536565  1
  O  O358  1  0.84591769  0.97708853  0.60746788  1
  O  O359  1  0.89115131  0.98776162  1.00530501  1
  O  O360  1  0.11667313  -0.00681136  0.00508751  1
  O  O361  1  0.14292792  0.01419336  0.49871729  1
  O  O362  1  0.10908660  0.51275093  -0.01607238  1
  O  O363  1  0.12207462  0.51105900  0.50574323  1
  O  O364  1  0.60463760  -0.09744594  0.07818962  1
  O  O365  1  0.55253802  -0.03887442  0.51527821  1
  O  O366  1  0.60699956  0.50850430  0.01302477  1
  O  O367  1  0.59624092  0.49594130  0.49652894  1
  O  O368  1  0.36258622  0.36610256  0.10275605  1
  O  O369  1  0.37162622  0.38001446  0.59844354  1
  O  O370  1  0.37418869  0.87607998  0.10021729  1
  O  O371  1  0.36396049  0.86737587  0.61905214  1
  O  O372  1  0.85324493  0.37634854  0.12946121  1
  O  O373  1  0.83695610  0.40801610  0.65434794  1
  O  O374  1  0.93484821  0.80709414  0.15041625  1
  O  O375  1  0.92559593  0.76455660  0.66689759  1
  O  O376  1  0.13932723  0.13453505  0.37514963  1
  O  O377  1  0.13788923  0.11092575  0.89036125  1
  O  O378  1  0.14520520  0.63182334  0.36905510  1
  O  O379  1  0.11568158  0.63771828  0.86253577  1
  O  O380  1  0.59386858  0.12456748  0.40299506  1
  O  O381  1  0.55324527  0.10479765  0.97692891  1
  O  O382  1  0.64703848  0.61457046  0.38216888  1
  O  O383  1  0.64529640  0.62323807  0.87103912  1
