# generated using pymatgen
data_VZnO4
_symmetry_space_group_name_H-M   'P 1'
_cell_length_a   16.88856479
_cell_length_b   16.95848839
_cell_length_c   16.87696872
_cell_angle_alpha   90.13463318
_cell_angle_beta   89.93177961
_cell_angle_gamma   89.65711432
_symmetry_Int_Tables_number   1
_chemical_formula_structural   VZnO4
_chemical_formula_sum   'V64 Zn64 O256'
_cell_volume   4833.53688373
_cell_formula_units_Z   64
loop_
 _symmetry_equiv_pos_site_id
 _symmetry_equiv_pos_as_xyz
  1  'x, y, z'
loop_
 _atom_site_type_symbol
 _atom_site_label
 _atom_site_symmetry_multiplicity
 _atom_site_fract_x
 _atom_site_fract_y
 _atom_site_fract_z
 _atom_site_occupancy
  V  V0  1  0.75286895  0.62422079  0.86877413  1
  V  V1  1  0.86315997  0.88234628  0.49781199  1
  V  V2  1  0.13283290  0.50748374  0.62986460  1
  V  V3  1  0.88735885  0.63233889  0.74546557  1
  V  V4  1  0.87022714  0.13360222  0.75594664  1
  V  V5  1  0.01270999  0.76705206  0.75827741  1
  V  V6  1  0.90592805  0.87339622  0.00432299  1
  V  V7  1  0.24704712  0.13860621  0.87121343  1
  V  V8  1  0.00812299  0.85751442  0.37290039  1
  V  V9  1  0.51772646  0.24656875  0.25225870  1
  V  V10  1  0.37429409  0.49184184  0.86917961  1
  V  V11  1  0.88455535  0.13145660  0.24740173  1
  V  V12  1  0.49563289  0.51608731  0.49285880  1
  V  V13  1  0.74620709  -0.01376142  0.75804673  1
  V  V14  1  0.00833732  0.49528506  0.00841444  1
  V  V15  1  0.36046255  0.36326997  -0.00085429  1
  V  V16  1  0.49186296  0.12062421  0.12662512  1
  V  V17  1  0.26257634  0.36530084  0.62192404  1
  V  V18  1  0.60884402  0.54943636  0.63601474  1
  V  V19  1  -0.01857027  0.37138020  0.37902937  1
  V  V20  1  0.61884306  0.62966036  -0.00052118  1
  V  V21  1  0.24714085  0.62600489  0.87092499  1
  V  V22  1  0.13176504  0.35478817  0.74359665  1
  V  V23  1  0.40063614  0.61776211  0.24371970  1
  V  V24  1  0.39053182  0.75025058  0.11644900  1
  V  V25  1  0.86781881  0.62091795  0.25560916  1
  V  V26  1  -0.00525818  0.14497921  0.11358715  1
  V  V27  1  0.86485667  0.36839336  0.00263310  1
  V  V28  1  0.37454170  -0.01598032  0.87434536  1
  V  V29  1  0.76383871  0.75941319  0.00755096  1
  V  V30  1  0.35535415  0.86449554  0.47780169  1
  V  V31  1  0.63532359  0.48751609  0.12951047  1
  V  V32  1  0.86684289  0.75596002  0.61937377  1
  V  V33  1  0.37250017  0.35979535  0.47413789  1
  V  V34  1  0.12320946  0.11228569  0.50684399  1
  V  V35  1  -0.01474828  0.50179523  0.50782164  1
  V  V36  1  0.38229731  0.13968432  0.75399800  1
  V  V37  1  0.87976844  0.49633776  0.86405314  1
  V  V38  1  0.64214285  0.12586151  -0.00190407  1
  V  V39  1  0.36082618  0.02311257  0.36240440  1
  V  V40  1  0.62561118  -0.01874343  0.63112605  1
  V  V41  1  0.11678932  -0.01045592  0.12516318  1
  V  V42  1  0.50150487  0.12716741  0.62515559  1
  V  V43  1  -0.00378985  0.15465869  0.63252719  1
  V  V44  1  0.13697027  0.26249841  0.39135489  1
  V  V45  1  0.49735605  0.87582522  0.35560939  1
  V  V46  1  0.63904639  -0.01473439  0.12663972  1
  V  V47  1  0.12602269  0.62685605  0.00799713  1
  V  V48  1  0.62858943  0.77475076  0.85900409  1
  V  V49  1  0.13139034  0.63484059  0.49975390  1
  V  V50  1  0.62771410  0.11711192  0.49399734  1
  V  V51  1  0.61487526  0.28190912  0.83983211  1
  V  V52  1  0.48935576  -0.01058806  0.00080604  1
  V  V53  1  0.89515234  0.00460112  0.37876406  1
  V  V54  1  0.75369587  0.24493623  0.50836692  1
  V  V55  1  0.75179237  -0.00989223  0.26353253  1
  V  V56  1  0.13284794  0.14595486  0.00020787  1
  V  V57  1  0.36862675  0.25346307  0.13087031  1
  V  V58  1  0.00666511  0.36090410  0.86076308  1
  V  V59  1  0.24237523  0.62057498  0.35500809  1
  V  V60  1  0.24370793  0.86188291  0.14019025  1
  V  V61  1  0.52518361  0.37148651  0.36933395  1
  V  V62  1  0.89325112  -0.00971183  0.87451054  1
  V  V63  1  0.51130651  0.47487415  -0.00452924  1
  Zn  Zn64  1  0.16642228  0.23948492  0.18355501  1
  Zn  Zn65  1  0.20255946  0.17003282  0.66676708  1
  Zn  Zn66  1  0.23360912  0.65280668  0.15098070  1
  Zn  Zn67  1  0.18404743  0.67707038  0.70453308  1
  Zn  Zn68  1  0.67985847  0.15500882  0.20421047  1
  Zn  Zn69  1  0.68821676  0.17752198  0.69121464  1
  Zn  Zn70  1  0.69064521  0.67916220  0.17140460  1
  Zn  Zn71  1  0.65169943  0.76449028  0.64496971  1
  Zn  Zn72  1  0.30556138  0.20333564  0.30761213  1
  Zn  Zn73  1  0.31596029  0.31650180  0.80805593  1
  Zn  Zn74  1  0.31163721  0.79685342  0.30548688  1
  Zn  Zn75  1  0.29915840  0.80782362  0.95074931  1
  Zn  Zn76  1  0.81270919  0.28857182  0.34978112  1
  Zn  Zn77  1  0.81171709  0.28025629  0.86586781  1
  Zn  Zn78  1  0.86152289  0.83092442  0.27709131  1
  Zn  Zn79  1  0.81551104  0.81129398  0.81947954  1
  Zn  Zn80  1  0.18285603  0.44311136  0.43644569  1
  Zn  Zn81  1  0.18912833  0.43403140  0.93029412  1
  Zn  Zn82  1  0.18480993  0.94606470  0.41593757  1
  Zn  Zn83  1  0.25532892  0.99015654  1.00576821  1
  Zn  Zn84  1  0.68910384  0.43324230  0.53036274  1
  Zn  Zn85  1  0.68665556  0.43659000  0.91933897  1
  Zn  Zn86  1  0.68252515  0.93631171  0.44087679  1
  Zn  Zn87  1  0.69559437  0.94743281  0.94154009  1
  Zn  Zn88  1  0.25800688  0.04241825  0.22291970  1
  Zn  Zn89  1  0.31048325  0.05436390  0.55595931  1
  Zn  Zn90  1  0.34122076  0.57973119  0.02802575  1
  Zn  Zn91  1  0.29356085  0.53054543  0.51507843  1
  Zn  Zn92  1  0.82127657  0.05027313  0.06296131  1
  Zn  Zn93  1  0.80885985  0.06464551  0.57401863  1
  Zn  Zn94  1  0.81226885  0.55322839  0.05110289  1
  Zn  Zn95  1  0.79680328  0.57285454  0.57103241  1
  Zn  Zn96  1  0.45243880  0.43226284  0.18023043  1
  Zn  Zn97  1  0.42953465  0.46532129  0.66754697  1
  Zn  Zn98  1  0.42487885  0.93680278  0.18640921  1
  Zn  Zn99  1  0.41524116  0.97221056  0.66677196  1
  Zn  Zn100  1  1.06520234  0.41685691  0.19618468  1
  Zn  Zn101  1  0.95079861  0.44727991  0.69140745  1
  Zn  Zn102  1  0.94866822  0.94503225  0.18988692  1
  Zn  Zn103  1  0.92941612  0.92999340  0.69238625  1
  Zn  Zn104  1  0.10944702  0.11917185  0.28523541  1
  Zn  Zn105  1  0.06221485  0.07261451  0.81002288  1
  Zn  Zn106  1  0.05733964  0.55451540  0.32817569  1
  Zn  Zn107  1  0.06558503  0.56129849  0.81405001  1
  Zn  Zn108  1  0.55467954  0.04728289  0.30972573  1
  Zn  Zn109  1  0.56099841  0.05983977  0.81626862  1
  Zn  Zn110  1  0.56978417  0.55580890  0.31556473  1
  Zn  Zn111  1  0.54850809  0.57999638  0.81835268  1
  Zn  Zn112  1  0.44604684  0.18112266  0.43919875  1
  Zn  Zn113  1  0.45115144  0.18650281  0.93753670  1
  Zn  Zn114  1  0.42527778  0.69525982  0.41411861  1
  Zn  Zn115  1  0.43717169  0.69070714  0.91827499  1
  Zn  Zn116  1  0.94686408  0.18299610  0.44572493  1
  Zn  Zn117  1  0.94121550  0.18090269  0.93520864  1
  Zn  Zn118  1  0.94385182  0.68761089  0.44712066  1
  Zn  Zn119  1  0.94926131  0.68653038  0.93734789  1
  Zn  Zn120  1  0.05410512  0.31485632  0.05264360  1
  Zn  Zn121  1  0.06169496  0.31847396  0.55755562  1
  Zn  Zn122  1  0.11628213  0.83904007  0.00881063  1
  Zn  Zn123  1  0.03993655  0.80547100  0.56042913  1
  Zn  Zn124  1  0.57258277  0.30384902  0.06723406  1
  Zn  Zn125  1  0.54657420  0.29163024  0.54857317  1
  Zn  Zn126  1  0.56840566  0.81069214  0.05730139  1
  Zn  Zn127  1  0.54261686  0.81180708  0.49954700  1
  O  O128  1  0.10889531  0.15088063  0.11277755  1
  O  O129  1  0.09925288  0.12610193  0.63313774  1
  O  O130  1  0.13388470  0.61437527  0.10810705  1
  O  O131  1  0.13438011  0.61304369  0.62070041  1
  O  O132  1  0.61748585  0.10599913  0.12021633  1
  O  O133  1  0.61156024  0.11424847  0.62349649  1
  O  O134  1  0.63005955  0.61499388  0.10282034  1
  O  O135  1  0.61696963  0.64615889  0.63506180  1
  O  O136  1  0.37263794  0.36947409  0.37760668  1
  O  O137  1  0.37557743  0.37944971  0.88681119  1
  O  O138  1  0.37329792  0.87389882  0.36676444  1
  O  O139  1  0.36333759  0.88702571  0.88813685  1
  O  O140  1  0.87956774  0.37025724  0.38126764  1
  O  O141  1  0.88535704  0.38842603  0.85812463  1
  O  O142  1  0.87878690  0.88527110  0.38391575  1
  O  O143  1  0.88061214  0.88382007  0.88213664  1
  O  O144  1  0.25596343  0.00811742  0.35024631  1
  O  O145  1  0.27503803  0.02298295  0.89335827  1
  O  O146  1  0.25847257  0.52016932  0.39902546  1
  O  O147  1  0.26815866  0.49490423  0.87433846  1
  O  O148  1  0.75278546  -0.00206454  0.36509827  1
  O  O149  1  0.76280336  -0.00068440  0.86361116  1
  O  O150  1  0.69600901  0.58961636  0.42834710  1
  O  O151  1  0.76956185  0.51375276  0.87819747  1
  O  O152  1  0.23707632  0.44930265  0.14913330  1
  O  O153  1  0.23791086  0.48735074  0.61621352  1
  O  O154  1  0.25106015  0.97358474  0.12506834  1
  O  O155  1  0.29448282  0.94946513  0.61867654  1
  O  O156  1  0.73541480  0.49792913  0.11134442  1
  O  O157  1  0.71183656  0.51137799  0.61309469  1
  O  O158  1  0.74118710  0.98922230  0.12592867  1
  O  O159  1  0.73889729  1.00033935  0.64229326  1
  O  O160  1  -0.00272055  0.38000375  0.27926867  1
  O  O161  1  0.01351544  0.37411729  0.75267939  1
  O  O162  1  -0.02617965  0.86669054  0.26790428  1
  O  O163  1  -0.00093361  0.86723922  0.75718323  1
  O  O164  1  0.50451542  0.36059891  0.25816581  1
  O  O165  1  0.52923238  0.37983683  0.69493826  1
  O  O166  1  0.49279561  0.87235230  0.25429675  1
  O  O167  1  0.43272747  0.80591773  0.71857547  1
  O  O168  1  0.50705980  0.13252166  0.23732866  1
  O  O169  1  0.48932214  0.12014724  0.74622518  1
  O  O170  1  0.49913827  0.62971447  0.25834279  1
  O  O171  1  0.47926867  0.66971081  0.81139358  1
  O  O172  1  0.99305877  0.12772839  0.23041991  1
  O  O173  1  0.98872001  0.12841902  0.74216052  1
  O  O174  1  0.97087449  0.60781970  0.26002739  1
  O  O175  1  0.98957040  0.62827055  0.75051170  1
  O  O176  1  0.38545465  0.26027530  0.00540782  1
  O  O177  1  0.38271010  0.26119277  0.49456717  1
  O  O178  1  0.37896199  0.74287825  0.00780174  1
  O  O179  1  0.36757987  0.76413888  0.48803797  1
  O  O180  1  0.87086935  0.26640151  -0.03351812  1
  O  O181  1  0.85337414  0.22829758  0.49151662  1
  O  O182  1  0.87516855  0.76217975  -0.00830116  1
  O  O183  1  0.87259643  0.75119155  0.51395607  1
  O  O184  1  0.12367369  0.24199748  0.49965000  1
  O  O185  1  0.11644834  0.24299951  0.98429966  1
  O  O186  1  0.11379078  0.73243069  0.51485373  1
  O  O187  1  0.11299043  0.72541967  0.99756284  1
  O  O188  1  0.62569772  0.22436514  0.50300852  1
  O  O189  1  0.63344994  0.22480991  1.01805772  1
  O  O190  1  0.62633486  0.75674607  0.53454222  1
  O  O191  1  0.64038840  0.74047981  0.99470620  1
  O  O192  1  0.50092491  0.23899356  0.13439536  1
  O  O193  1  0.49226961  0.22623347  0.62590442  1
  O  O194  1  0.48997141  0.75143964  0.11931780  1
  O  O195  1  0.46398859  0.74716490  0.67966966  1
  O  O196  1  0.97697230  0.24126011  0.10813422  1
  O  O197  1  0.99185447  0.25344116  0.62767140  1
  O  O198  1  1.06227529  0.75341805  0.19195321  1
  O  O199  1  0.97739496  0.75728518  0.64362372  1
  O  O200  1  0.00336181  0.26828118  0.39798390  1
  O  O201  1  -0.00042256  0.26371145  0.86763157  1
  O  O202  1  0.00130635  0.75639382  0.37741178  1
  O  O203  1  0.00676238  0.74319100  0.85752338  1
  O  O204  1  0.50191693  0.25200367  0.35841239  1
  O  O205  1  0.52734757  0.24846697  0.88327789  1
  O  O206  1  0.50294374  0.77303924  0.38404015  1
  O  O207  1  0.52677517  0.75972107  0.87982776  1
  O  O208  1  0.22198206  0.12315268  0.55085598  1
  O  O209  1  0.23729667  0.13947641  0.98888767  1
  O  O210  1  0.23580034  0.63078570  0.50349494  1
  O  O211  1  0.23321499  0.60720685  0.99308249  1
  O  O212  1  0.73304115  0.11836770  0.50396274  1
  O  O213  1  0.74195572  0.10873846  1.00738855  1
  O  O214  1  0.73403594  0.63539684  0.47994992  1
  O  O215  1  0.75867595  0.63672817  0.98841618  1
  O  O216  1  0.26173526  0.37093003  -0.00050968  1
  O  O217  1  0.26733755  0.38125247  0.50912652  1
  O  O218  1  0.22509733  0.87523824  0.00258907  1
  O  O219  1  0.25447545  0.87797655  0.47699631  1
  O  O220  1  0.76592766  0.38460480  -0.01755465  1
  O  O221  1  0.74409368  0.34792123  0.50039486  1
  O  O222  1  0.75726230  0.86065107  -0.00461453  1
  O  O223  1  0.76398464  0.86977699  0.48850909  1
  O  O224  1  0.10735546  0.50853719  0.24141020  1
  O  O225  1  0.12067880  0.49791176  0.73318285  1
  O  O226  1  0.13636283  1.02327175  0.22235278  1
  O  O227  1  0.13594228  1.00266128  0.74363246  1
  O  O228  1  0.62447701  0.50878452  0.22862246  1
  O  O229  1  0.59835651  0.52447723  0.73353825  1
  O  O230  1  0.64260350  1.00695578  0.24075870  1
  O  O231  1  0.63874659  1.00188990  0.75061101  1
  O  O232  1  0.36644038  0.01154476  0.24977621  1
  O  O233  1  0.38211666  -0.00383101  0.77264692  1
  O  O234  1  0.39224241  0.51873186  0.22329753  1
  O  O235  1  0.39364522  0.49664970  0.77130853  1
  O  O236  1  0.87326194  0.00397953  0.26531063  1
  O  O237  1  0.86981232  0.00007647  0.75985504  1
  O  O238  1  0.84701541  0.52538263  0.28753002  1
  O  O239  1  0.88044627  0.51480268  0.75604196  1
  O  O240  1  0.11649636  0.36699505  0.39090070  1
  O  O241  1  0.11644810  0.37743618  0.85687727  1
  O  O242  1  0.10580548  0.87796082  0.37104966  1
  O  O243  1  0.15632503  0.93858073  0.78850272  1
  O  O244  1  0.62036410  0.36632916  0.37528850  1
  O  O245  1  0.61964066  0.38569788  0.84608769  1
  O  O246  1  0.59562683  0.89983010  0.37887790  1
  O  O247  1  0.63452434  0.87224973  0.87750433  1
  O  O248  1  0.39180918  0.13922337  0.11774858  1
  O  O249  1  0.38768977  0.09765347  0.64123942  1
  O  O250  1  0.35806013  0.63619457  0.12614915  1
  O  O251  1  0.34902306  0.69503202  0.62051529  1
  O  O252  1  0.88912193  0.11118840  0.13216843  1
  O  O253  1  0.88999243  0.11548979  0.63997562  1
  O  O254  1  0.86921978  0.59685057  0.15385025  1
  O  O255  1  0.86550811  0.63833650  0.64008147  1
  O  O256  1  0.27098891  0.25268649  0.12530861  1
  O  O257  1  0.25194887  0.26711686  0.62422465  1
  O  O258  1  0.24390406  0.76094432  0.11487030  1
  O  O259  1  0.29405864  0.73707844  0.64419084  1
  O  O260  1  0.75392080  0.33231320  0.18249275  1
  O  O261  1  0.74591600  0.23140938  0.61029460  1
  O  O262  1  0.75359470  0.74763867  0.10717765  1
  O  O263  1  0.77012529  0.76268087  0.64123747  1
  O  O264  1  0.23785272  0.25990739  0.38192658  1
  O  O265  1  0.25475779  0.23778140  0.86936105  1
  O  O266  1  0.25006759  0.72124522  0.36618053  1
  O  O267  1  0.26099031  0.72477939  0.88108290  1
  O  O268  1  0.73220928  0.22984476  0.39426081  1
  O  O269  1  0.70611086  0.25120512  0.87642962  1
  O  O270  1  0.67067119  0.77190139  0.30863089  1
  O  O271  1  0.74500854  0.74209228  0.88293034  1
  O  O272  1  0.00987991  0.12287596  0.00592313  1
  O  O273  1  0.00654862  0.12324701  0.52528609  1
  O  O274  1  0.00908919  0.60449563  -0.00329495  1
  O  O275  1  0.01284506  0.61111319  0.49504093  1
  O  O276  1  0.50979213  0.11477432  0.01516381  1
  O  O277  1  0.50491959  0.11614170  0.51615253  1
  O  O278  1  0.51988692  0.63214099  -0.00883497  1
  O  O279  1  0.48476668  0.61121059  0.46966797  1
  O  O280  1  0.49376827  0.36615543  0.47910353  1
  O  O281  1  0.51351563  0.37557988  0.99194268  1
  O  O282  1  0.46703388  0.89015305  0.48448204  1
  O  O283  1  0.50256273  0.89096956  1.00689319  1
  O  O284  1  0.99410219  0.39266765  0.50273458  1
  O  O285  1  0.99232349  0.38049117  0.97670269  1
  O  O286  1  0.98086272  0.86794364  0.48405678  1
  O  O287  1  1.00451018  0.86598921  0.99170337  1
  O  O288  1  0.50946864  0.48089576  0.38129213  1
  O  O289  1  0.48916621  0.50784247  0.89368295  1
  O  O290  1  0.46882981  0.99115867  0.35800395  1
  O  O291  1  0.48783497  1.00359337  0.89199333  1
  O  O292  1  0.99589853  0.48852328  0.39729241  1
  O  O293  1  0.99008684  0.49378060  0.87384898  1
  O  O294  1  0.99150626  0.98917280  0.37766192  1
  O  O295  1  0.99268303  0.99757115  0.86665464  1
  O  O296  1  0.01510105  0.00703309  0.12268298  1
  O  O297  1  0.03864567  -0.03642573  0.62803014  1
  O  O298  1  0.00217081  0.47610551  0.10524052  1
  O  O299  1  0.01679400  0.49671569  0.61619562  1
  O  O300  1  0.49824478  0.00842761  0.12243289  1
  O  O301  1  0.51953575  0.00236152  0.64115287  1
  O  O302  1  0.51450518  0.49736419  0.10015266  1
  O  O303  1  0.49839480  0.53101273  0.60889374  1
  O  O304  1  0.24567349  0.44871643  0.22080281  1
  O  O305  1  0.23881554  0.37430644  0.74152762  1
  O  O306  1  0.23892108  0.86085232  0.23979602  1
  O  O307  1  0.21118335  0.89564097  0.76140676  1
  O  O308  1  0.74988426  0.36303629  0.24837607  1
  O  O309  1  0.79251828  0.36992724  0.67772528  1
  O  O310  1  0.76916814  0.89134073  0.24783229  1
  O  O311  1  0.76032800  0.88678997  0.75169528  1
  O  O312  1  0.22727664  0.15195649  0.24160486  1
  O  O313  1  0.26566483  0.12366966  0.75895251  1
  O  O314  1  0.23535393  0.60599689  0.25526125  1
  O  O315  1  0.25363544  0.61640085  0.76867955  1
  O  O316  1  0.77289810  0.10304868  0.23764910  1
  O  O317  1  0.76698997  0.10935595  0.74660807  1
  O  O318  1  0.76220873  0.63707021  0.25066861  1
  O  O319  1  0.76811346  0.63138561  0.76898577  1
  O  O320  1  0.37160435  0.12752217  0.36937803  1
  O  O321  1  0.37500720  0.12972494  0.86447298  1
  O  O322  1  0.36481890  0.62376486  0.34538174  1
  O  O323  1  0.35972319  0.60021007  0.90608785  1
  O  O324  1  0.89435609  0.11172731  0.36313159  1
  O  O325  1  0.88364380  0.10828773  0.86395589  1
  O  O326  1  0.86845318  0.65287069  0.35740997  1
  O  O327  1  0.87583488  0.61700805  0.86876775  1
  O  O328  1  0.11911981  0.33615544  0.14091009  1
  O  O329  1  0.13351910  0.37963474  0.63306033  1
  O  O330  1  0.12639712  0.88368525  0.12450454  1
  O  O331  1  0.08950707  0.91002879  0.61588707  1
  O  O332  1  0.62386638  0.38691199  0.12253187  1
  O  O333  1  0.58241360  0.37008443  0.64263528  1
  O  O334  1  0.61774304  0.88774148  0.12868521  1
  O  O335  1  0.62295120  0.88337122  0.63522776  1
  O  O336  1  0.10869963  0.23864757  0.28905846  1
  O  O337  1  0.13131285  0.25780831  0.74077372  1
  O  O338  1  0.10470067  0.73300324  0.24678076  1
  O  O339  1  0.11172075  0.75578577  0.73182009  1
  O  O340  1  0.61829039  0.24256892  0.24244285  1
  O  O341  1  0.61720414  0.24831257  0.74275881  1
  O  O342  1  0.62963709  0.74522926  0.25326972  1
  O  O343  1  0.63575089  0.76125888  0.76040848  1
  O  O344  1  0.38760491  0.25074803  0.23438533  1
  O  O345  1  0.37791828  0.23793344  0.74593263  1
  O  O346  1  0.37077345  0.73125842  0.22737171  1
  O  O347  1  0.36484592  0.79590166  0.75233259  1
  O  O348  1  0.86429664  0.22729214  0.26046780  1
  O  O349  1  0.86030005  0.23214686  0.76879246  1
  O  O350  1  0.87530015  0.72568561  0.23456986  1
  O  O351  1  0.88414436  0.74144885  0.75368886  1
  O  O352  1  0.39525636  0.47596016  0.50778402  1
  O  O353  1  0.39141764  0.47537112  1.00076849  1
  O  O354  1  0.35722797  0.99942308  0.46713949  1
  O  O355  1  0.38674782  1.00108398  1.00030163  1
  O  O356  1  0.88558820  0.51618459  0.52200639  1
  O  O357  1  0.88760015  0.49079927  0.98528784  1
  O  O358  1  0.86657786  0.99306610  0.48892475  1
  O  O359  1  0.87904381  0.98520679  0.98513553  1
  O  O360  1  0.13934225  0.02647323  0.02863087  1
  O  O361  1  0.12624892  0.01350059  0.49372515  1
  O  O362  1  0.11137857  0.49192352  -0.00812543  1
  O  O363  1  0.11913813  0.51002621  0.51286828  1
  O  O364  1  0.61820707  0.00073303  0.01492434  1
  O  O365  1  0.63278402  0.00225062  0.52395996  1
  O  O366  1  0.61951519  0.50813507  -0.00789444  1
  O  O367  1  0.59940679  0.49969002  0.51413815  1
  O  O368  1  0.38728491  0.36218467  0.11141175  1
  O  O369  1  0.36260832  0.37979624  0.63684294  1
  O  O370  1  0.36033347  0.85644437  0.12830919  1
  O  O371  1  0.35561815  0.89731163  0.59627768  1
  O  O372  1  0.87640672  0.36710873  0.09794024  1
  O  O373  1  0.85729198  0.37280566  0.64309574  1
  O  O374  1  0.89322040  0.88531487  0.10374720  1
  O  O375  1  0.87774171  0.87332195  0.60716786  1
  O  O376  1  0.12318085  0.13528118  0.40244430  1
  O  O377  1  0.13954648  0.11953237  0.88146163  1
  O  O378  1  0.13172688  0.61946522  0.38816984  1
  O  O379  1  0.13997384  0.61117180  0.88258374  1
  O  O380  1  0.60918538  0.09996546  0.39663654  1
  O  O381  1  0.62138315  0.10898040  0.89951337  1
  O  O382  1  0.63947788  0.62676843  0.38697121  1
  O  O383  1  0.64400465  0.62281822  0.88312498  1
