# generated using pymatgen
data_VZnO4
_symmetry_space_group_name_H-M   'P 1'
_cell_length_a   16.89850963
_cell_length_b   16.87766583
_cell_length_c   16.89661999
_cell_angle_alpha   90.00717086
_cell_angle_beta   90.13966052
_cell_angle_gamma   89.95407282
_symmetry_Int_Tables_number   1
_chemical_formula_structural   VZnO4
_chemical_formula_sum   'V64 Zn64 O256'
_cell_volume   4819.02512868
_cell_formula_units_Z   64
loop_
 _symmetry_equiv_pos_site_id
 _symmetry_equiv_pos_as_xyz
  1  'x, y, z'
loop_
 _atom_site_type_symbol
 _atom_site_label
 _atom_site_symmetry_multiplicity
 _atom_site_fract_x
 _atom_site_fract_y
 _atom_site_fract_z
 _atom_site_occupancy
  V  V0  1  0.23546153  0.74135677  0.02741425  1
  V  V1  1  0.37050308  0.13176429  0.76935093  1
  V  V2  1  0.23089118  0.63425891  0.87643002  1
  V  V3  1  0.37103942  0.62817984  0.75388363  1
  V  V4  1  0.09151432  0.12166779  0.51126539  1
  V  V5  1  0.87357765  0.62909583  0.24217268  1
  V  V6  1  0.37503957  0.60705772  0.24472211  1
  V  V7  1  0.87846123  0.88281242  0.49147355  1
  V  V8  1  0.11774301  0.61982261  0.50189213  1
  V  V9  1  0.37993191  0.25194127  0.61864804  1
  V  V10  1  0.62885268  0.75234204  0.36758041  1
  V  V11  1  0.74564861  0.74199383  0.50245458  1
  V  V12  1  0.24855700  0.48953906  0.74208587  1
  V  V13  1  0.62970014  0.87538129  0.75804512  1
  V  V14  1  0.61945986  0.88871856  0.24181500  1
  V  V15  1  0.13018773  0.37083971  0.73911484  1
  V  V16  1  0.76706455  0.00579394  0.25741139  1
  V  V17  1  0.26192228  0.39453966  0.13530821  1
  V  V18  1  0.00540473  0.74406194  0.24980116  1
  V  V19  1  0.62526289  0.39857265  0.74634559  1
  V  V20  1  0.87630410  0.85332917  0.00132633  1
  V  V21  1  0.02174712  0.87265904  0.38379337  1
  V  V22  1  -0.00815605  0.47619580  0.51194026  1
  V  V23  1  0.25585033  0.28365269  -0.00791747  1
  V  V24  1  -0.00292854  0.01391281  0.01405378  1
  V  V25  1  0.14134869  0.12506237  0.01019153  1
  V  V26  1  0.36115129  0.76073800  0.62310599  1
  V  V27  1  0.50728248  0.87610777  0.38951001  1
  V  V28  1  0.87883463  0.73021638  0.63246233  1
  V  V29  1  0.55919722  0.26780876  0.28835398  1
  V  V30  1  0.75762277  0.01201827  0.75847207  1
  V  V31  1  0.49985035  0.63287723  0.61927918  1
  V  V32  1  0.62015255  0.23723659  0.85848885  1
  V  V33  1  0.00884862  0.48609414  -0.03340302  1
  V  V34  1  0.62813367  0.51237083  0.61969376  1
  V  V35  1  0.74789004  0.38147750  0.12144736  1
  V  V36  1  0.01408594  0.86169081  0.88341190  1
  V  V37  1  0.11651555  0.83796653  0.72659455  1
  V  V38  1  0.38164522  0.23368087  0.11245634  1
  V  V39  1  0.87051151  0.47736641  0.37920722  1
  V  V40  1  0.87502021  0.00885296  0.87921428  1
  V  V41  1  -0.00967920  0.23919458  0.74771518  1
  V  V42  1  0.48693233  0.50611676  0.48776030  1
  V  V43  1  0.75679338  0.87385960  0.63022645  1
  V  V44  1  0.52098409  0.60692666  0.13213724  1
  V  V45  1  0.62345643  0.00945386  0.62423821  1
  V  V46  1  0.56922647  0.05551602  0.44245099  1
  V  V47  1  0.50637229  0.39023636  0.88548919  1
  V  V48  1  0.10468751  0.49555335  0.11313511  1
  V  V49  1  0.49920295  0.75393548  0.75676868  1
  V  V50  1  0.12362437  0.25745154  0.87689946  1
  V  V51  1  0.37962841  0.50258264  0.88904695  1
  V  V52  1  0.10526884  0.25884482  0.37665449  1
  V  V53  1  0.48061281  0.88274772  0.88334365  1
  V  V54  1  0.61814918  0.12077833  0.01647646  1
  V  V55  1  0.64184493  0.74463204  0.88817255  1
  V  V56  1  0.14793124  0.86478820  0.24288165  1
  V  V57  1  0.76856533  0.87393196  0.12372833  1
  V  V58  1  0.75649290  0.24917826  -0.01013489  1
  V  V59  1  0.88732849  0.24807848  0.14981857  1
  V  V60  1  0.75568613  0.62118649  0.37409360  1
  V  V61  1  0.36859207  0.88476037  0.50866284  1
  V  V62  1  0.36221846  0.86920314  0.03199519  1
  V  V63  1  0.37192125  0.01829504  0.37934112  1
  Zn  Zn64  1  0.07163960  0.18927850  0.19838470  1
  Zn  Zn65  1  0.19838804  0.18603142  0.68354380  1
  Zn  Zn66  1  0.18309887  0.66370389  0.21412266  1
  Zn  Zn67  1  0.18301050  0.66922289  0.67477536  1
  Zn  Zn68  1  0.70045637  0.19137161  0.18745299  1
  Zn  Zn69  1  0.60469691  0.21831061  0.65458354  1
  Zn  Zn70  1  0.69224283  0.69313239  0.18443473  1
  Zn  Zn71  1  0.68805970  0.68936045  0.69315985  1
  Zn  Zn72  1  0.24933996  0.25858236  0.23798979  1
  Zn  Zn73  1  0.32290409  0.31031852  0.81462177  1
  Zn  Zn74  1  0.33236837  0.79655294  0.32144898  1
  Zn  Zn75  1  0.29916147  0.81879132  0.80701717  1
  Zn  Zn76  1  0.77362599  0.30597097  0.30487339  1
  Zn  Zn77  1  0.79082185  0.29501889  0.78418442  1
  Zn  Zn78  1  0.81298949  0.81403507  0.30637792  1
  Zn  Zn79  1  0.82170982  0.81057829  0.81923760  1
  Zn  Zn80  1  0.15724066  0.46280134  0.41163363  1
  Zn  Zn81  1  0.18110380  0.45272750  0.92609375  1
  Zn  Zn82  1  0.19055712  0.94933251  0.44903128  1
  Zn  Zn83  1  0.18294843  0.92995600  0.97436233  1
  Zn  Zn84  1  0.67495591  0.45248090  0.44622383  1
  Zn  Zn85  1  0.69931820  0.43709068  0.93554624  1
  Zn  Zn86  1  0.70426133  0.93628376  0.43569914  1
  Zn  Zn87  1  0.68888942  0.93761898  0.94387353  1
  Zn  Zn88  1  0.35307926  0.07746964  -0.01600645  1
  Zn  Zn89  1  0.43961492  0.07326448  0.57542379  1
  Zn  Zn90  1  0.31094899  0.57129062  0.06804047  1
  Zn  Zn91  1  0.30996675  0.56332570  0.56405044  1
  Zn  Zn92  1  0.80479482  0.06879689  0.07260350  1
  Zn  Zn93  1  0.82546624  0.05915154  0.57199919  1
  Zn  Zn94  1  0.82926791  0.57076317  0.04531105  1
  Zn  Zn95  1  0.84119617  0.51502107  0.59963075  1
  Zn  Zn96  1  0.45219385  0.42932700  0.19383697  1
  Zn  Zn97  1  0.43822153  0.44150636  0.69663640  1
  Zn  Zn98  1  0.43789897  0.94024430  0.20044614  1
  Zn  Zn99  1  0.43922751  0.94343489  0.69688292  1
  Zn  Zn100  1  0.89878650  0.45524826  0.16467344  1
  Zn  Zn101  1  0.94644329  0.41967121  0.69713448  1
  Zn  Zn102  1  0.95280174  0.93350977  0.19860373  1
  Zn  Zn103  1  0.93774653  0.91682982  0.70103300  1
  Zn  Zn104  1  0.09197982  0.04089020  0.32811342  1
  Zn  Zn105  1  0.06029271  0.06952706  0.83941308  1
  Zn  Zn106  1  0.02962092  0.57669941  0.35448030  1
  Zn  Zn107  1  0.00568607  0.61165999  0.66645617  1
  Zn  Zn108  1  0.52783284  0.09611705  0.18182667  1
  Zn  Zn109  1  0.54153633  0.05243977  0.80718048  1
  Zn  Zn110  1  0.56438825  0.57191027  0.30714543  1
  Zn  Zn111  1  0.56188000  0.56960633  0.81364113  1
  Zn  Zn112  1  0.45156031  0.20565590  0.43508453  1
  Zn  Zn113  1  0.44666902  0.20475054  0.93605388  1
  Zn  Zn114  1  0.45028723  0.67056830  0.41116813  1
  Zn  Zn115  1  0.42654662  0.69828798  0.94182840  1
  Zn  Zn116  1  0.97174237  0.15545251  0.39645238  1
  Zn  Zn117  1  0.94337486  0.19101108  0.92942554  1
  Zn  Zn118  1  0.93692774  0.69339707  0.44362697  1
  Zn  Zn119  1  1.01635831  0.64743256  0.86216464  1
  Zn  Zn120  1  0.05538732  0.32125554  0.06537341  1
  Zn  Zn121  1  0.06121160  0.29841937  0.56807208  1
  Zn  Zn122  1  0.05963269  0.80692931  0.06966270  1
  Zn  Zn123  1  0.05853315  0.79379655  0.55564055  1
  Zn  Zn124  1  0.57025861  0.31364131  0.05758413  1
  Zn  Zn125  1  0.51075394  0.34750752  0.56986082  1
  Zn  Zn126  1  0.55749548  0.81377130  0.05912387  1
  Zn  Zn127  1  0.56723914  0.81456359  0.56826734  1
  O  O128  1  0.12432571  0.14030114  0.10845816  1
  O  O129  1  0.12619124  0.14256685  0.60664961  1
  O  O130  1  0.12192416  0.57632627  0.17133278  1
  O  O131  1  0.10451625  0.61476972  0.61300427  1
  O  O132  1  0.61973152  0.13800820  0.11924104  1
  O  O133  1  0.63182183  0.10763309  0.63708256  1
  O  O134  1  0.62285300  0.61830691  0.13898203  1
  O  O135  1  0.60790638  0.62637145  0.63648672  1
  O  O136  1  0.32228272  0.42060838  0.38144077  1
  O  O137  1  0.39084433  0.39404753  0.87163775  1
  O  O138  1  0.38800501  0.87308107  0.39508814  1
  O  O139  1  0.38351006  0.88237528  0.85359950  1
  O  O140  1  0.83960741  0.38363267  0.36860789  1
  O  O141  1  0.84289517  0.44645573  0.84791409  1
  O  O142  1  0.86645188  0.87034874  0.39202319  1
  O  O143  1  0.88523118  0.87809507  0.89024356  1
  O  O144  1  0.27181385  0.01078739  0.39532204  1
  O  O145  1  0.22455132  -0.00283463  0.86862204  1
  O  O146  1  0.27473997  0.48421313  0.39164680  1
  O  O147  1  0.26238947  0.51420470  0.86743414  1
  O  O148  1  0.75287782  -0.00020735  0.35885636  1
  O  O149  1  0.76213356  -0.00603557  0.86844961  1
  O  O150  1  0.75154354  0.51760984  0.38424561  1
  O  O151  1  0.78875884  0.49461241  0.88592956  1
  O  O152  1  0.23813865  0.49518219  0.11256079  1
  O  O153  1  0.26407180  0.49639240  0.64453001  1
  O  O154  1  0.25652230  1.00849715  0.14843991  1
  O  O155  1  0.25889448  1.03349848  0.60550356  1
  O  O156  1  0.79401052  0.47669125  0.09861347  1
  O  O157  1  0.72517208  0.51829742  0.61113598  1
  O  O158  1  0.75293959  0.98201090  0.13137004  1
  O  O159  1  0.75046185  0.99189247  0.63935741  1
  O  O160  1  0.01746425  0.39320346  0.25312353  1
  O  O161  1  0.02426292  0.36089167  0.75179782  1
  O  O162  1  0.02002259  0.86182930  0.26324289  1
  O  O163  1  0.02276743  0.88247070  0.77036108  1
  O  O164  1  0.51620590  0.34747381  0.24043676  1
  O  O165  1  0.51469714  0.39174817  0.76649038  1
  O  O166  1  0.51400530  0.87841466  0.27304779  1
  O  O167  1  0.51107653  0.87181428  0.76031407  1
  O  O168  1  0.52183699  0.18130793  0.25024170  1
  O  O169  1  0.43852112  0.04332270  0.75410374  1
  O  O170  1  0.49995852  0.63054343  0.23483012  1
  O  O171  1  0.48825275  0.63672894  0.74482864  1
  O  O172  1  1.00899371  0.09743486  0.24933018  1
  O  O173  1  1.01187847  0.14039697  0.76498637  1
  O  O174  1  0.98652521  0.63500560  0.26616561  1
  O  O175  1  0.96759946  0.61166788  0.76951947  1
  O  O176  1  0.36018495  0.26061130  -0.00441853  1
  O  O177  1  0.38009322  0.23983277  0.51769520  1
  O  O178  1  0.34930928  0.76327865  -0.00542097  1
  O  O179  1  0.37933078  0.76511130  0.52134773  1
  O  O180  1  0.85485829  0.24427974  -0.02796276  1
  O  O181  1  0.80878064  0.18270329  0.45892559  1
  O  O182  1  0.87666514  0.75775359  -0.00133083  1
  O  O183  1  0.86141741  0.75668751  0.51235677  1
  O  O184  1  0.11081768  0.23778507  0.48553267  1
  O  O185  1  0.14010566  0.25328602  0.99517726  1
  O  O186  1  0.11092392  0.71990624  0.48761582  1
  O  O187  1  0.13588135  0.74736140  1.00792655  1
  O  O188  1  0.67492352  0.30836544  0.52786086  1
  O  O189  1  0.63065410  0.23856255  0.97976103  1
  O  O190  1  0.64182557  0.75985363  0.49554547  1
  O  O191  1  0.62967160  0.76393375  0.98611561  1
  O  O192  1  0.47843882  0.26273655  0.10193589  1
  O  O193  1  0.50624065  0.24476329  0.61193596  1
  O  O194  1  0.49514210  0.71501672  0.08774763  1
  O  O195  1  0.49894046  0.74908648  0.64068447  1
  O  O196  1  0.99698684  0.25739985  0.14328652  1
  O  O197  1  0.99464344  0.24778626  0.64776889  1
  O  O198  1  0.99731145  0.75262309  0.14934992  1
  O  O199  1  0.98021737  0.73006099  0.61625406  1
  O  O200  1  0.00625360  0.26383800  0.36007414  1
  O  O201  1  0.01842667  0.25753479  0.87325580  1
  O  O202  1  -0.01105561  0.76481537  0.36631236  1
  O  O203  1  0.00033175  0.76301007  0.88104938  1
  O  O204  1  0.53132296  0.26788538  0.38712208  1
  O  O205  1  0.51723821  0.27730002  0.87827383  1
  O  O206  1  0.52619072  0.75731550  0.38574629  1
  O  O207  1  0.50057777  0.76098333  0.86693192  1
  O  O208  1  0.24299599  0.15039693  0.47999743  1
  O  O209  1  0.24050781  0.11571077  1.00343773  1
  O  O210  1  0.22082651  0.61030183  0.52086010  1
  O  O211  1  0.25376833  0.63579152  0.98463435  1
  O  O212  1  0.76760709  0.14461677  0.52145880  1
  O  O213  1  0.73552195  0.14058558  1.00503622  1
  O  O214  1  0.74945249  0.64081859  0.48839090  1
  O  O215  1  0.72427070  0.60074803  0.99016989  1
  O  O216  1  0.25042566  0.38405850  -0.00562648  1
  O  O217  1  0.30919862  0.36073741  0.42480466  1
  O  O218  1  0.24902578  0.85616903  0.02656967  1
  O  O219  1  0.26958022  0.88254691  0.50479713  1
  O  O220  1  0.74738983  0.35621146  -0.00344141  1
  O  O221  1  0.72871734  0.35988784  0.49512161  1
  O  O222  1  0.76758203  0.88072918  0.01021466  1
  O  O223  1  0.76008586  0.86824891  0.51316802  1
  O  O224  1  0.07069814  0.44297384  0.26021028  1
  O  O225  1  0.14269931  0.48108476  0.74765408  1
  O  O226  1  0.14494211  0.96515039  0.26595820  1
  O  O227  1  0.17312713  1.01035110  0.81543875  1
  O  O228  1  0.62100976  0.47002121  0.28430855  1
  O  O229  1  0.62478419  0.50805030  0.73863658  1
  O  O230  1  0.63710011  0.98654325  0.24910638  1
  O  O231  1  0.63674837  0.99246220  0.74592301  1
  O  O232  1  0.37960803  -0.00761542  0.28186494  1
  O  O233  1  0.23828301  -0.01620511  0.65392102  1
  O  O234  1  0.39932083  0.51020210  0.26366980  1
  O  O235  1  0.37002177  0.51306818  0.75873905  1
  O  O236  1  0.86614989  -0.01839462  0.24972914  1
  O  O237  1  0.86617764  -0.01587232  0.76696884  1
  O  O238  1  0.87921899  0.51677632  0.26834595  1
  O  O239  1  0.88058066  0.48321568  0.79232787  1
  O  O240  1  0.14056537  0.35435885  0.38252655  1
  O  O241  1  0.13580151  0.36319795  0.86734201  1
  O  O242  1  0.12303179  0.86812734  0.39348999  1
  O  O243  1  0.11172856  0.87407384  0.90048538  1
  O  O244  1  0.62002825  0.41942710  0.34287740  1
  O  O245  1  0.61791375  0.40117036  0.86442821  1
  O  O246  1  0.62690865  0.86983692  0.37372632  1
  O  O247  1  0.62409265  0.86780990  0.86918874  1
  O  O248  1  0.38056729  0.13549827  0.08582966  1
  O  O249  1  0.39184938  0.14200295  0.64925381  1
  O  O250  1  0.38553475  0.61776596  0.14047474  1
  O  O251  1  0.38148398  0.64146498  0.63546858  1
  O  O252  1  0.87304776  0.15305193  0.11229116  1
  O  O253  1  0.92421749  0.07766876  0.64320964  1
  O  O254  1  0.86839139  0.62109833  0.14268438  1
  O  O255  1  0.85673504  0.63200747  0.62640572  1
  O  O256  1  0.25942404  0.27598338  0.10412029  1
  O  O257  1  0.28076913  0.25516817  0.64195563  1
  O  O258  1  0.24112841  0.71767755  0.12328321  1
  O  O259  1  0.26341407  0.74737423  0.63284271  1
  O  O260  1  0.75755904  0.26153235  0.10812140  1
  O  O261  1  0.70213732  0.26890304  0.58955386  1
  O  O262  1  0.74431481  0.77455799  0.12710404  1
  O  O263  1  0.75051602  0.75447196  0.61839072  1
  O  O264  1  0.25348934  0.19641410  0.42470752  1
  O  O265  1  0.24672540  0.25680132  0.88873521  1
  O  O266  1  0.24431516  0.73334697  0.40314234  1
  O  O267  1  0.24822559  0.73335769  0.86495117  1
  O  O268  1  0.76285309  0.20209558  0.40115552  1
  O  O269  1  0.72846319  0.25288828  0.87347812  1
  O  O270  1  0.74621478  0.75136324  0.38747723  1
  O  O271  1  0.74145354  0.75033021  0.87121944  1
  O  O272  1  0.00201475  0.11647022  -0.00066316  1
  O  O273  1  -0.01246439  0.12776161  0.50465718  1
  O  O274  1  -0.01904847  0.60380938  -0.02736622  1
  O  O275  1  0.00290971  0.60524401  0.47855199  1
  O  O276  1  0.52069605  0.13221759  -0.01142012  1
  O  O277  1  0.51319042  0.12145029  0.49888374  1
  O  O278  1  0.50120364  0.65615708  0.02526642  1
  O  O279  1  0.49119441  0.64511554  0.51980943  1
  O  O280  1  0.50237199  0.40703035  0.47417197  1
  O  O281  1  0.51610601  0.39128591  0.98420405  1
  O  O282  1  0.50114667  0.87153399  0.49535025  1
  O  O283  1  0.47226618  0.85888583  0.98911264  1
  O  O284  1  0.98616203  0.37672086  0.52348678  1
  O  O285  1  0.99595806  0.38733129  0.99118876  1
  O  O286  1  0.98684592  0.86293381  0.49164163  1
  O  O287  1  0.99045343  0.88008648  1.00071450  1
  O  O288  1  0.49320373  0.55582144  0.39615908  1
  O  O289  1  0.48821862  0.50619215  0.87661122  1
  O  O290  1  0.50125061  0.99207000  0.38971138  1
  O  O291  1  0.51047604  0.97746438  0.88819614  1
  O  O292  1  0.97772376  0.47483706  0.38971078  1
  O  O293  1  1.02799244  0.48617288  0.87169586  1
  O  O294  1  1.00238293  0.97098385  0.37137832  1
  O  O295  1  0.99002602  0.98936268  0.88773743  1
  O  O296  1  -0.00591216  -0.00283339  0.11205662  1
  O  O297  1  -0.02386387  0.02216067  0.64399027  1
  O  O298  1  0.00130634  0.49103682  0.11319973  1
  O  O299  1  -0.03083668  0.50828045  0.61480048  1
  O  O300  1  0.49488709  0.00641186  0.13349401  1
  O  O301  1  0.52220436  -0.00715110  0.62273277  1
  O  O302  1  0.50737510  0.50739094  0.12334714  1
  O  O303  1  0.49690766  0.52329745  0.61835021  1
  O  O304  1  0.24760201  0.37791893  0.23327777  1
  O  O305  1  0.25269171  0.38439464  0.75991528  1
  O  O306  1  0.24467955  0.83598200  0.26328665  1
  O  O307  1  0.20929476  0.86633191  0.75833413  1
  O  O308  1  0.75621064  0.38661571  0.22151489  1
  O  O309  1  0.72578992  0.38028076  0.74988354  1
  O  O310  1  0.74300611  0.88074205  0.24000085  1
  O  O311  1  0.74451029  0.87601148  0.74572968  1
  O  O312  1  0.25782384  0.06387599  0.19478237  1
  O  O313  1  0.27219010  0.12039873  0.75298791  1
  O  O314  1  0.27410532  0.61083348  0.25555023  1
  O  O315  1  0.25376100  0.61476514  0.75589732  1
  O  O316  1  0.75735756  0.10370616  0.23343977  1
  O  O317  1  0.76010429  0.10755060  0.75059369  1
  O  O318  1  0.76197575  0.63607907  0.26416504  1
  O  O319  1  0.75721692  0.60771276  0.75977139  1
  O  O320  1  0.39222382  0.11673410  0.38586704  1
  O  O321  1  0.38229871  0.12481135  0.87908909  1
  O  O322  1  0.27092771  0.66595837  0.41276296  1
  O  O323  1  0.37450884  0.62196699  0.86614066  1
  O  O324  1  0.94290511  0.11966529  0.28907064  1
  O  O325  1  0.88184299  0.10659978  0.87275502  1
  O  O326  1  0.86176660  0.62571209  0.37432829  1
  O  O327  1  0.81630538  0.62815200  0.79918384  1
  O  O328  1  0.13285217  0.39155319  0.12106184  1
  O  O329  1  0.13669707  0.35489963  0.64122176  1
  O  O330  1  0.13176744  0.86509465  0.14339758  1
  O  O331  1  0.10835467  0.86384355  0.62889639  1
  O  O332  1  0.64600130  0.38203533  0.10834056  1
  O  O333  1  0.60419657  0.40385410  0.63572330  1
  O  O334  1  0.61277985  0.87010967  0.14074031  1
  O  O335  1  0.63803925  0.88123321  0.63639668  1
  O  O336  1  0.14839078  0.22880504  0.27624016  1
  O  O337  1  0.13525673  0.25321969  0.76482667  1
  O  O338  1  0.11319139  0.74488350  0.25959872  1
  O  O339  1  0.11035320  0.73787086  0.73515998  1
  O  O340  1  0.66683214  0.26102737  0.27546326  1
  O  O341  1  0.62098826  0.27249376  0.75751264  1
  O  O342  1  0.63726810  0.76581455  0.26538976  1
  O  O343  1  0.61871316  0.75923561  0.75737037  1
  O  O344  1  0.35595114  0.23250136  0.21296444  1
  O  O345  1  0.39137691  0.23473253  0.76357379  1
  O  O346  1  0.38721259  0.69508727  0.32009110  1
  O  O347  1  0.38085793  0.74914832  0.74476978  1
  O  O348  1  0.85881594  0.24807682  0.24647741  1
  O  O349  1  0.89157890  0.25509422  0.77051003  1
  O  O350  1  0.88188795  0.73837551  0.25392859  1
  O  O351  1  0.86973415  0.75804949  0.73097784  1
  O  O352  1  0.38835591  0.51167149  0.50698766  1
  O  O353  1  0.37197631  0.51172827  0.98620536  1
  O  O354  1  0.38954487  0.98872840  0.50509937  1
  O  O355  1  0.35168280  0.96545810  0.99975585  1
  O  O356  1  0.87175925  0.49481920  0.48559151  1
  O  O357  1  0.91264278  0.55084691  0.96503815  1
  O  O358  1  0.87263920  0.98233575  0.50321951  1
  O  O359  1  0.88276201  1.00164670  0.99265757  1
  O  O360  1  0.11128733  0.01522950  -0.00003847  1
  O  O361  1  0.12189086  0.02407787  0.49973793  1
  O  O362  1  0.11342645  0.50930379  0.00433746  1
  O  O363  1  0.09495670  0.48709417  0.51139667  1
  O  O364  1  0.63588096  0.02281749  -0.00542575  1
  O  O365  1  0.63825344  0.00142052  0.51232340  1
  O  O366  1  0.67044950  0.54659540  -0.01092007  1
  O  O367  1  0.60460541  0.51404293  0.51363081  1
  O  O368  1  0.36366374  0.39088322  0.12631574  1
  O  O369  1  0.40469342  0.35865373  0.62887104  1
  O  O370  1  0.38247275  0.86549123  0.12986218  1
  O  O371  1  0.38108147  0.87183434  0.62585435  1
  O  O372  1  0.87325661  0.34991063  0.11855650  1
  O  O373  1  0.84382420  0.41559897  0.65834021  1
  O  O374  1  0.87453040  0.87201829  0.11675832  1
  O  O375  1  0.86984138  0.86746188  0.61938514  1
  O  O376  1  0.10000231  0.13371423  0.39151912  1
  O  O377  1  0.12569093  0.14577915  0.89709577  1
  O  O378  1  0.13515751  0.57665048  0.39447065  1
  O  O379  1  0.13304261  0.62396863  0.87280606  1
  O  O380  1  0.61961266  0.10639914  0.37957583  1
  O  O381  1  0.60566826  0.13912285  0.84471652  1
  O  O382  1  0.64217934  0.64289319  0.36487917  1
  O  O383  1  0.61784997  0.64676804  0.87185445  1
