# generated using pymatgen
data_VZnO4
_symmetry_space_group_name_H-M   'P 1'
_cell_length_a   16.82438235
_cell_length_b   17.03226201
_cell_length_c   17.01255928
_cell_angle_alpha   89.62935106
_cell_angle_beta   89.58844334
_cell_angle_gamma   90.00525940
_symmetry_Int_Tables_number   1
_chemical_formula_structural   VZnO4
_chemical_formula_sum   'V64 Zn64 O256'
_cell_volume   4874.84503759
_cell_formula_units_Z   64
loop_
 _symmetry_equiv_pos_site_id
 _symmetry_equiv_pos_as_xyz
  1  'x, y, z'
loop_
 _atom_site_type_symbol
 _atom_site_label
 _atom_site_symmetry_multiplicity
 _atom_site_fract_x
 _atom_site_fract_y
 _atom_site_fract_z
 _atom_site_occupancy
  V  V0  1  -0.00086587  0.61618271  0.63364661  1
  V  V1  1  0.24599050  0.49572064  0.24535826  1
  V  V2  1  0.49012383  0.74847166  0.75697348  1
  V  V3  1  0.24686081  0.00395048  0.26086205  1
  V  V4  1  0.52030158  0.00302025  0.00680226  1
  V  V5  1  0.09561697  0.74372221  0.37775691  1
  V  V6  1  0.01337011  0.23783088  0.75891677  1
  V  V7  1  0.50418883  0.14229805  0.62055914  1
  V  V8  1  0.12990035  -0.00312808  0.60288582  1
  V  V9  1  0.38417193  0.13610740  0.25492638  1
  V  V10  1  0.87495903  0.46228187  0.88435658  1
  V  V11  1  0.59612572  0.63929609  -0.01705784  1
  V  V12  1  0.24923271  0.89146803  0.13610355  1
  V  V13  1  0.74502788  0.00820708  0.24553643  1
  V  V14  1  0.38895555  0.63424023  0.23966822  1
  V  V15  1  0.38745382  0.50544268  0.88338786  1
  V  V16  1  0.25540209  0.24135891  0.50496390  1
  V  V17  1  0.13085843  0.87023887  0.76034266  1
  V  V18  1  0.24196685  0.75605654  0.49762277  1
  V  V19  1  0.11837881  0.74270177  0.87772622  1
  V  V20  1  0.01759183  0.29706806  0.25161635  1
  V  V21  1  0.63190757  0.62247804  0.50052827  1
  V  V22  1  0.60726719  0.48518563  0.63202107  1
  V  V23  1  0.64455925  0.39806404  0.25030362  1
  V  V24  1  0.52153587  0.01484837  0.49826897  1
  V  V25  1  0.62249233  0.52339577  0.11583950  1
  V  V26  1  0.90583839  0.86486861  0.01076862  1
  V  V27  1  0.23635847  0.13221497  0.37847824  1
  V  V28  1  0.50153195  0.38924864  0.39203989  1
  V  V29  1  0.73643975  0.75613893  0.53928960  1
  V  V30  1  0.76396071  0.65267600  0.85444937  1
  V  V31  1  0.87400968  0.12444079  0.74896986  1
  V  V32  1  0.50139537  0.34701681  0.88190455  1
  V  V33  1  0.23898557  0.73551991  0.03341025  1
  V  V34  1  -0.01627133  0.60200305  0.12098156  1
  V  V35  1  0.88703244  0.25338443  0.61001755  1
  V  V36  1  0.74087988  0.00749041  0.72710803  1
  V  V37  1  0.23803031  0.49366615  0.75240351  1
  V  V38  1  0.50331627  0.77524915  0.25637215  1
  V  V39  1  0.23775277  0.61727256  0.88759455  1
  V  V40  1  0.12378836  0.36187165  0.75528941  1
  V  V41  1  0.49063579  0.63620983  0.61535277  1
  V  V42  1  0.37063016  0.61741555  0.74460691  1
  V  V43  1  0.25336786  0.63580192  0.37511916  1
  V  V44  1  0.26134859  0.87501717  0.61625425  1
  V  V45  1  0.38022232  0.50538009  0.38881463  1
  V  V46  1  0.01505579  0.12495143  0.60335055  1
  V  V47  1  0.62707052  0.25165377  0.38579812  1
  V  V48  1  0.63293719  0.85955779  0.74055398  1
  V  V49  1  0.36631251  0.38773215  0.01618109  1
  V  V50  1  -0.00802158  0.38875109  0.41631254  1
  V  V51  1  0.26919195  0.00019948  0.76593420  1
  V  V52  1  0.76447477  0.25292058  0.48830474  1
  V  V53  1  0.74345859  0.76227861  0.00935383  1
  V  V54  1  -0.01937654  0.74080765  0.23733691  1
  V  V55  1  0.39405233  0.87292357  0.49140819  1
  V  V56  1  0.38912096  0.00625449  0.37479127  1
  V  V57  1  0.01542449  0.08515341  0.12847837  1
  V  V58  1  0.75489850  0.37445262  0.63192841  1
  V  V59  1  0.50812462  0.26646114  0.24446182  1
  V  V60  1  0.87980367  -0.03121102  0.85457888  1
  V  V61  1  0.37948466  0.14186577  0.74790372  1
  V  V62  1  0.35438139  0.26032686  0.13175853  1
  V  V63  1  0.26317625  0.37242653  0.61999366  1
  Zn  Zn64  1  0.17824681  0.18366912  0.19981358  1
  Zn  Zn65  1  0.19882166  0.17961547  0.68283465  1
  Zn  Zn66  1  0.15154075  0.64275186  0.20039424  1
  Zn  Zn67  1  0.19325277  0.69105671  0.68862051  1
  Zn  Zn68  1  0.70800966  0.21228411  0.20179523  1
  Zn  Zn69  1  0.71716798  0.13249843  0.61147546  1
  Zn  Zn70  1  0.68018772  0.69772524  0.17304429  1
  Zn  Zn71  1  0.67514870  0.67287304  0.68764039  1
  Zn  Zn72  1  0.31244615  0.31995837  0.32478041  1
  Zn  Zn73  1  0.32111429  0.32077401  0.81400402  1
  Zn  Zn74  1  0.32110906  0.81737290  0.31317573  1
  Zn  Zn75  1  0.34350007  0.83108534  0.78897194  1
  Zn  Zn76  1  0.83219648  0.32456720  0.30144375  1
  Zn  Zn77  1  0.81300699  0.29952790  0.80719676  1
  Zn  Zn78  1  0.81857156  0.83290042  0.30570806  1
  Zn  Zn79  1  0.81829531  0.80456104  0.73246546  1
  Zn  Zn80  1  0.18858299  0.46669841  0.45794347  1
  Zn  Zn81  1  0.18960719  0.30294218  0.94454118  1
  Zn  Zn82  1  0.05566457  0.93983259  0.41803687  1
  Zn  Zn83  1  0.25486209  0.88477474  0.92407821  1
  Zn  Zn84  1  0.69033510  0.43706392  0.45392489  1
  Zn  Zn85  1  0.66406773  0.45835558  0.92436557  1
  Zn  Zn86  1  0.71384488  0.93037682  0.44338399  1
  Zn  Zn87  1  0.68807900  0.93469761  0.90558935  1
  Zn  Zn88  1  0.33109826  0.06489621  0.07615582  1
  Zn  Zn89  1  0.32388950  0.06197667  0.56170773  1
  Zn  Zn90  1  0.31114495  0.56598598  0.06660470  1
  Zn  Zn91  1  0.29908967  0.56324292  0.56370177  1
  Zn  Zn92  1  0.84377912  0.00377875  0.07263528  1
  Zn  Zn93  1  0.86140481  0.09060628  0.50072846  1
  Zn  Zn94  1  0.81171639  0.56845006  0.04189583  1
  Zn  Zn95  1  0.74868760  0.49511786  0.75522542  1
  Zn  Zn96  1  0.44083688  0.45189950  0.19718634  1
  Zn  Zn97  1  0.43712313  0.42352626  0.70235198  1
  Zn  Zn98  1  0.43035596  0.93214386  0.18713537  1
  Zn  Zn99  1  0.45559034  0.94005573  0.67362221  1
  Zn  Zn100  1  0.98986590  0.39937901  0.12815328  1
  Zn  Zn101  1  0.93271164  0.42542936  0.70291792  1
  Zn  Zn102  1  1.06394655  0.92847602  0.22728520  1
  Zn  Zn103  1  0.94367506  0.93337918  0.67749508  1
  Zn  Zn104  1  -0.05536343  0.06020733  0.31440519  1
  Zn  Zn105  1  0.05266562  0.03204510  0.77680407  1
  Zn  Zn106  1  0.02998096  0.51790919  0.27292642  1
  Zn  Zn107  1  0.05250190  0.55008675  0.82283049  1
  Zn  Zn108  1  0.56624392  0.07865672  0.30929345  1
  Zn  Zn109  1  0.56096441  0.08762675  0.81162258  1
  Zn  Zn110  1  0.56912220  0.57078280  0.31339345  1
  Zn  Zn111  1  0.56842340  0.57042667  0.80578439  1
  Zn  Zn112  1  0.43498387  0.19887097  0.44274087  1
  Zn  Zn113  1  0.36055555  0.19989094  0.92716856  1
  Zn  Zn114  1  0.45109935  0.68768561  0.42815734  1
  Zn  Zn115  1  0.40649632  0.73218436  0.93328249  1
  Zn  Zn116  1  0.95445204  0.21462092  0.40106642  1
  Zn  Zn117  1  0.97008445  0.12224076  0.91745097  1
  Zn  Zn118  1  0.88564199  0.70423441  0.40406030  1
  Zn  Zn119  1  0.92799576  0.68825382  0.94037504  1
  Zn  Zn120  1  0.06127338  0.23105504  0.06248746  1
  Zn  Zn121  1  0.08204545  0.31548250  0.56381188  1
  Zn  Zn122  1  0.07594407  0.80678394  0.08380099  1
  Zn  Zn123  1  0.06184607  0.81197597  0.57101118  1
  Zn  Zn124  1  0.54585863  0.36399705  0.07915717  1
  Zn  Zn125  1  0.56444444  0.31038055  0.56566802  1
  Zn  Zn126  1  0.56194307  0.81665074  0.06862165  1
  Zn  Zn127  1  0.58393382  0.83715856  0.55778380  1
  O  O128  1  0.11031755  0.14267429  0.12008882  1
  O  O129  1  0.12736534  0.10718460  0.62292273  1
  O  O130  1  0.08316403  0.60971477  0.10610419  1
  O  O131  1  0.10452453  0.62146086  0.65129372  1
  O  O132  1  0.63317659  0.14745535  0.16199895  1
  O  O133  1  0.60579453  0.14190588  0.62696325  1
  O  O134  1  0.61255059  0.62574483  0.11009168  1
  O  O135  1  0.60163644  0.60954892  0.62463683  1
  O  O136  1  0.38866282  0.39511263  0.37291145  1
  O  O137  1  0.38164028  0.39509394  0.88646312  1
  O  O138  1  0.37676904  0.89371624  0.38485985  1
  O  O139  1  0.35275506  0.83187670  0.89873324  1
  O  O140  1  0.89553601  0.38697451  0.38087210  1
  O  O141  1  0.87244706  0.36011964  0.87972561  1
  O  O142  1  0.81586022  0.89337348  0.39993506  1
  O  O143  1  0.89101652  0.87628643  0.83065896  1
  O  O144  1  0.26913293  0.01753232  0.36628253  1
  O  O145  1  0.26278224  -0.01512545  0.86428121  1
  O  O146  1  0.26361314  0.51937782  0.37487135  1
  O  O147  1  0.25181175  0.50903376  0.86181298  1
  O  O148  1  0.73347732  0.00262926  0.35417044  1
  O  O149  1  0.77208127  -0.01057823  0.84473137  1
  O  O150  1  0.76878777  0.50295264  0.38963711  1
  O  O151  1  0.75570583  0.49425211  0.87137329  1
  O  O152  1  0.25745772  0.50165110  0.14562787  1
  O  O153  1  0.26126930  0.48538227  0.64824169  1
  O  O154  1  0.25822170  0.99719170  0.13754334  1
  O  O155  1  0.24200071  0.98966200  0.61154511  1
  O  O156  1  0.72180511  0.50691362  0.10307996  1
  O  O157  1  0.75379862  0.47503806  0.63468404  1
  O  O158  1  0.74843578  1.01414912  0.14229494  1
  O  O159  1  0.74847966  1.01589428  0.62732128  1
  O  O160  1  0.01507176  0.40268033  0.25219411  1
  O  O161  1  0.01399191  0.35103922  0.74134269  1
  O  O162  1  -0.00856885  0.83847908  0.24179332  1
  O  O163  1  0.03342911  0.89073337  0.75444196  1
  O  O164  1  0.50598900  0.37412578  0.26470930  1
  O  O165  1  0.49292443  0.37006157  0.78238378  1
  O  O166  1  0.49135759  0.87507160  0.26174893  1
  O  O167  1  0.45492864  0.84481336  0.74447479  1
  O  O168  1  0.49542292  0.15557824  0.26105561  1
  O  O169  1  0.49101343  0.12659536  0.73297866  1
  O  O170  1  0.49067898  0.62376349  0.24859653  1
  O  O171  1  0.49129593  0.62946372  0.73839819  1
  O  O172  1  0.99307730  0.11058731  0.22395055  1
  O  O173  1  0.99850870  0.12969057  0.73335705  1
  O  O174  1  0.97707830  0.61341140  0.23096120  1
  O  O175  1  0.99157828  0.61795924  0.73984579  1
  O  O176  1  0.37233679  0.26085272  0.02927776  1
  O  O177  1  0.35227060  0.26915788  0.47705197  1
  O  O178  1  0.33884791  0.72482814  0.02351147  1
  O  O179  1  0.39630297  0.77366300  0.48732815  1
  O  O180  1  0.73943547  0.13338603  0.01349572  1
  O  O181  1  0.87450734  0.25298674  0.49695002  1
  O  O182  1  0.85894316  0.77405852  -0.01689224  1
  O  O183  1  0.82062961  0.75696939  0.48068457  1
  O  O184  1  0.15690778  0.26786502  0.49114336  1
  O  O185  1  0.09782880  0.31543122  1.00447619  1
  O  O186  1  0.13748626  0.75335010  0.49485948  1
  O  O187  1  0.13650347  0.74576404  0.98350099  1
  O  O188  1  0.63857345  0.25865998  0.49012271  1
  O  O189  1  0.63415319  0.27059766  1.01531510  1
  O  O190  1  0.62466506  0.73322562  0.52053775  1
  O  O191  1  0.62876531  0.74212976  1.00678360  1
  O  O192  1  0.50553878  0.26997540  0.14529831  1
  O  O193  1  0.48656776  0.24093539  0.60660682  1
  O  O194  1  0.49492285  0.76718829  0.14185102  1
  O  O195  1  0.49097277  0.73414725  0.62905140  1
  O  O196  1  0.99816842  0.29133977  0.14442870  1
  O  O197  1  1.00779565  0.23664297  0.62152911  1
  O  O198  1  0.98843236  0.73217742  0.13527471  1
  O  O199  1  1.00730658  0.72035600  0.62271383  1
  O  O200  1  0.03089443  0.29792349  0.38412209  1
  O  O201  1  0.00674959  0.22356012  0.85570768  1
  O  O202  1  0.00135812  0.72480839  0.40746019  1
  O  O203  1  0.01831115  0.73474694  0.88082326  1
  O  O204  1  0.51181351  0.27122623  0.37828985  1
  O  O205  1  0.47609508  0.25139003  0.89115927  1
  O  O206  1  0.51125975  0.74589127  0.35428634  1
  O  O207  1  0.49103983  0.73960442  0.85466195  1
  O  O208  1  0.25927345  0.13384096  0.49051038  1
  O  O209  1  0.27495251  0.13285218  1.00275444  1
  O  O210  1  0.28178445  0.65771911  0.48953399  1
  O  O211  1  0.23559168  0.61806052  0.99144265  1
  O  O212  1  0.75688332  0.14606378  0.50149533  1
  O  O213  1  0.77084480  0.07185309  0.98901069  1
  O  O214  1  0.73087028  0.64038498  0.51940971  1
  O  O215  1  0.75066110  0.65735774  0.97258284  1
  O  O216  1  0.26925379  0.37638550  -0.00046868  1
  O  O217  1  0.25163417  0.38710299  0.52031797  1
  O  O218  1  0.23599630  0.85062823  0.03370731  1
  O  O219  1  0.26844984  0.86080638  0.50105732  1
  O  O220  1  0.70324423  0.27629119  0.03840300  1
  O  O221  1  0.75131523  0.36054924  0.51726736  1
  O  O222  1  0.73098245  0.85596041  -0.02707819  1
  O  O223  1  0.70213908  0.85678943  0.52925058  1
  O  O224  1  0.14614287  0.53462253  0.25131821  1
  O  O225  1  0.13151430  0.48192709  0.75753142  1
  O  O226  1  0.14952133  1.01037186  0.25528321  1
  O  O227  1  0.15265407  0.98696372  0.74532215  1
  O  O228  1  0.62233730  0.50363153  0.23566434  1
  O  O229  1  0.62735339  0.50054049  0.73407815  1
  O  O230  1  0.63880064  1.01116288  0.25080097  1
  O  O231  1  0.64630352  1.03027170  0.75293763  1
  O  O232  1  0.38179480  0.01906562  0.25422597  1
  O  O233  1  0.36886494  -0.01049981  0.74132580  1
  O  O234  1  0.36617053  0.51497852  0.26022022  1
  O  O235  1  0.36941885  0.50353804  0.76666522  1
  O  O236  1  0.84948061  0.01339141  0.25971954  1
  O  O237  1  0.87584548  0.01175701  0.73964997  1
  O  O238  1  0.80084105  0.59161630  0.22217929  1
  O  O239  1  0.86359713  0.47976654  0.77066747  1
  O  O240  1  0.09749952  0.43908013  0.39219412  1
  O  O241  1  0.13317894  0.35766884  0.85238389  1
  O  O242  1  0.10692441  0.84261084  0.37185755  1
  O  O243  1  0.14764024  0.85547602  0.86644657  1
  O  O244  1  0.61558150  0.38942818  0.37277994  1
  O  O245  1  0.60265214  0.36769053  0.90194287  1
  O  O246  1  0.64467818  0.84168225  0.37037203  1
  O  O247  1  0.60847907  0.89364505  0.83052323  1
  O  O248  1  0.37400431  0.14945288  0.14433462  1
  O  O249  1  0.38686344  0.11872684  0.63461507  1
  O  O250  1  0.37347009  0.62260076  0.14255603  1
  O  O251  1  0.38589938  0.60499684  0.63136226  1
  O  O252  1  0.90675020  0.09079636  0.09926227  1
  O  O253  1  0.89935328  0.13177178  0.61286611  1
  O  O254  1  0.83033020  0.62218953  0.15459638  1
  O  O255  1  0.89683306  0.62690830  0.62372098  1
  O  O256  1  0.25647407  0.25978696  0.14600048  1
  O  O257  1  0.25602568  0.25359826  0.61189979  1
  O  O258  1  0.21526699  0.71330540  0.12734957  1
  O  O259  1  0.24602112  0.76097080  0.61038700  1
  O  O260  1  0.79701929  0.27051606  0.20565289  1
  O  O261  1  0.77178789  0.24833155  0.60979428  1
  O  O262  1  0.75102468  0.76202717  0.10833529  1
  O  O263  1  0.75104310  0.74761645  0.64161530  1
  O  O264  1  0.24988004  0.23511776  0.37104959  1
  O  O265  1  0.26793858  0.25247867  0.88537944  1
  O  O266  1  0.25508894  0.75075183  0.38290557  1
  O  O267  1  0.23953708  0.71946137  0.87160330  1
  O  O268  1  0.74471673  0.26670436  0.38506656  1
  O  O269  1  0.73784665  0.23381993  0.87693893  1
  O  O270  1  0.68968549  0.78915410  0.34399218  1
  O  O271  1  0.77009951  0.74890268  0.82338600  1
  O  O272  1  0.00184245  0.13791522  0.02082287  1
  O  O273  1  0.01988463  0.12797538  0.50754063  1
  O  O274  1  -0.07468757  0.62708190  0.03580292  1
  O  O275  1  0.01549446  0.59909886  0.53442219  1
  O  O276  1  0.53916116  0.09835047  0.03371258  1
  O  O277  1  0.49898969  0.12247775  0.50267772  1
  O  O278  1  0.49885125  0.65369907  -0.01832014  1
  O  O279  1  0.50346959  0.62723673  0.51249802  1
  O  O280  1  0.50594292  0.38066565  0.48950094  1
  O  O281  1  0.47558303  0.37377706  0.99094829  1
  O  O282  1  0.49892261  0.89633028  0.50190052  1
  O  O283  1  0.51398180  0.89439948  0.99522848  1
  O  O284  1  0.99771817  0.37983427  0.51670371  1
  O  O285  1  0.85892111  0.25683228  1.03565100  1
  O  O286  1  0.99059599  0.87102091  0.49760635  1
  O  O287  1  1.00572077  0.85241704  1.00768630  1
  O  O288  1  0.49245786  0.49769054  0.37378614  1
  O  O289  1  0.48599462  0.51656198  0.87393128  1
  O  O290  1  0.49729986  1.01742432  0.38119514  1
  O  O291  1  0.51543555  1.02397081  0.90494413  1
  O  O292  1  1.03098885  0.49455825  0.39207423  1
  O  O293  1  0.97545264  0.49164544  0.87653768  1
  O  O294  1  1.01016633  0.97149354  0.32377671  1
  O  O295  1  0.97992826  1.01875629  0.86300593  1
  O  O296  1  0.03624715  -0.01146252  0.12857585  1
  O  O297  1  0.02089463  0.00980754  0.63444320  1
  O  O298  1  -0.03677037  0.50165011  0.12043241  1
  O  O299  1  -0.00519243  0.51221983  0.64461847  1
  O  O300  1  0.50836659  -0.01866100  0.11165922  1
  O  O301  1  0.50519472  0.01713120  0.60215623  1
  O  O302  1  0.52338970  0.47411409  0.11884679  1
  O  O303  1  0.50585354  0.48631170  0.63115396  1
  O  O304  1  0.24652600  0.39897824  0.27041667  1
  O  O305  1  0.24643650  0.38180226  0.74951349  1
  O  O306  1  0.26013954  0.89832170  0.25512182  1
  O  O307  1  0.25482485  0.88265743  0.73335049  1
  O  O308  1  0.74100519  0.39863734  0.27348123  1
  O  O309  1  0.74479717  0.34929793  0.73074004  1
  O  O310  1  0.75231326  0.90426636  0.24173836  1
  O  O311  1  0.73322885  0.89260839  0.72607130  1
  O  O312  1  0.26060193  0.12274922  0.26011041  1
  O  O313  1  0.26512962  0.10564286  0.74234459  1
  O  O314  1  0.26581647  0.63307069  0.26906269  1
  O  O315  1  0.25205497  0.60714965  0.74312659  1
  O  O316  1  0.75164779  0.11441958  0.25318302  1
  O  O317  1  0.77226668  0.12393330  0.72796951  1
  O  O318  1  0.74045445  0.63239456  0.25251002  1
  O  O319  1  0.73700645  0.61323578  0.76112313  1
  O  O320  1  0.37607464  0.12520199  0.36681101  1
  O  O321  1  0.38266059  0.12006748  0.84749255  1
  O  O322  1  0.37869567  0.61784846  0.36855058  1
  O  O323  1  0.35666420  0.61440398  0.86991214  1
  O  O324  1  0.90180858  0.11800623  0.39788291  1
  O  O325  1  0.87125127  0.13066149  0.84845668  1
  O  O326  1  0.86915892  0.58844322  0.38348891  1
  O  O327  1  0.86155495  0.62723633  0.86628171  1
  O  O328  1  0.11381016  0.42533297  0.05745246  1
  O  O329  1  0.14836203  0.36620776  0.64383886  1
  O  O330  1  0.14487689  0.86190979  0.15759929  1
  O  O331  1  0.13548282  0.88242141  0.63060253  1
  O  O332  1  0.63988653  0.37397563  0.15144500  1
  O  O333  1  0.63270605  0.38162430  0.62230566  1
  O  O334  1  0.62934753  0.88967759  0.11316272  1
  O  O335  1  0.57630966  0.89334959  0.66213185  1
  O  O336  1  0.10697783  0.25137709  0.25643121  1
  O  O337  1  0.12128421  0.24516384  0.74287173  1
  O  O338  1  0.08591809  0.71776199  0.27179314  1
  O  O339  1  0.13410680  0.76229936  0.75714621  1
  O  O340  1  0.62175532  0.27510928  0.26885019  1
  O  O341  1  0.67271336  0.21114887  0.83971677  1
  O  O342  1  0.60419692  0.75769366  0.22722391  1
  O  O343  1  0.60339865  0.75561791  0.74064457  1
  O  O344  1  0.38732949  0.25893703  0.24848065  1
  O  O345  1  0.36672416  0.23988141  0.74495690  1
  O  O346  1  0.38795189  0.74134610  0.25598320  1
  O  O347  1  0.37167447  0.72157952  0.74829632  1
  O  O348  1  0.92895960  0.25240403  0.28764712  1
  O  O349  1  0.89337915  0.23710026  0.73268662  1
  O  O350  1  0.88156657  0.74094425  0.29060153  1
  O  O351  1  0.89844801  0.83607538  0.66238069  1
  O  O352  1  0.37246195  0.50933070  0.48635535  1
  O  O353  1  0.37029664  0.49857029  0.99328067  1
  O  O354  1  0.38735787  0.99884014  0.48707192  1
  O  O355  1  0.41326042  1.01169855  1.00834204  1
  O  O356  1  0.82084320  0.54491838  0.42995007  1
  O  O357  1  0.85353593  0.48286791  0.98227619  1
  O  O358  1  0.92748649  0.98806980  0.48622550  1
  O  O359  1  0.87466424  0.95839395  0.96328527  1
  O  O360  1  0.20651336  0.09335496  -0.03231830  1
  O  O361  1  0.11743484  -0.01333647  0.50635895  1
  O  O362  1  0.11394551  0.47914002  0.00890136  1
  O  O363  1  0.18932030  0.54768268  0.53232374  1
  O  O364  1  0.62469468  -0.01087672  -0.00511215  1
  O  O365  1  0.61972631  0.00039838  0.48281936  1
  O  O366  1  0.61132236  0.52962313  0.00077526  1
  O  O367  1  0.63438204  0.51093536  0.52539860  1
  O  O368  1  0.37752786  0.37509740  0.12331813  1
  O  O369  1  0.36283940  0.37003180  0.63756454  1
  O  O370  1  0.34832832  0.86598440  0.13857710  1
  O  O371  1  0.37004851  0.88792546  0.60225976  1
  O  O372  1  0.85404796  0.32735738  0.04776521  1
  O  O373  1  0.87100765  0.36009040  0.62998382  1
  O  O374  1  0.87706036  0.89211539  0.10153083  1
  O  O375  1  0.92728554  0.92021403  0.52655237  1
  O  O376  1  0.14137724  0.11781802  0.37859872  1
  O  O377  1  0.15221499  0.13960158  0.94559746  1
  O  O378  1  0.15257142  0.63947519  0.38624534  1
  O  O379  1  0.12941882  0.62613146  0.86340318  1
  O  O380  1  0.62332759  0.15492158  0.37241667  1
  O  O381  1  0.63357033  0.15294234  0.87809146  1
  O  O382  1  0.62496224  0.61292103  0.40121530  1
  O  O383  1  0.62952151  0.63193677  0.88177545  1
