# generated using pymatgen
data_VZnO4
_symmetry_space_group_name_H-M   'P 1'
_cell_length_a   17.01345460
_cell_length_b   16.93001435
_cell_length_c   17.00461937
_cell_angle_alpha   90.15806726
_cell_angle_beta   89.95488938
_cell_angle_gamma   90.37123319
_symmetry_Int_Tables_number   1
_chemical_formula_structural   VZnO4
_chemical_formula_sum   'V64 Zn64 O256'
_cell_volume   4897.85417314
_cell_formula_units_Z   64
loop_
 _symmetry_equiv_pos_site_id
 _symmetry_equiv_pos_as_xyz
  1  'x, y, z'
loop_
 _atom_site_type_symbol
 _atom_site_label
 _atom_site_symmetry_multiplicity
 _atom_site_fract_x
 _atom_site_fract_y
 _atom_site_fract_z
 _atom_site_occupancy
  V  V0  1  0.61632514  0.35609735  0.25538839  1
  V  V1  1  0.09972589  0.35639183  0.23982840  1
  V  V2  1  0.00310160  0.87293757  0.37269898  1
  V  V3  1  0.49525194  -0.00248891  -0.00039576  1
  V  V4  1  0.21795090  -0.04898521  0.67945650  1
  V  V5  1  0.12840773  0.49117824  0.63201964  1
  V  V6  1  0.76216025  0.74249305  0.49764116  1
  V  V7  1  0.24067786  0.87037884  0.13478558  1
  V  V8  1  0.01660433  0.01448688  0.50418393  1
  V  V9  1  0.36782430  0.25252839  0.64813622  1
  V  V10  1  0.22271243  0.25641682  -0.00377404  1
  V  V11  1  0.86870070  0.49445064  0.37393620  1
  V  V12  1  0.39042517  0.73012540  0.11671689  1
  V  V13  1  0.74100856  0.47462865  0.75381943  1
  V  V14  1  0.02888880  0.35437853  0.40421969  1
  V  V15  1  -0.02949998  0.39857343  0.88822309  1
  V  V16  1  0.37272568  0.63444533  0.27343898  1
  V  V17  1  -0.00381415  0.49560109  0.50730590  1
  V  V18  1  0.84585171  0.12482618  0.26034463  1
  V  V19  1  0.61399595  -0.01263317  0.14049050  1
  V  V20  1  0.63335655  0.01265943  0.64210728  1
  V  V21  1  0.37295991  0.47621701  0.37222040  1
  V  V22  1  0.37904763  0.86116289  -0.00611762  1
  V  V23  1  0.51046602  0.27367180  0.79314570  1
  V  V24  1  0.86328857  0.62293177  0.76879969  1
  V  V25  1  0.26339662  0.37426679  0.12745191  1
  V  V26  1  0.85493377  0.37364845  0.51208748  1
  V  V27  1  0.50631578  0.13989845  0.66027306  1
  V  V28  1  0.64152565  0.11314352  0.00274963  1
  V  V29  1  0.85217214  0.00254807  0.39407702  1
  V  V30  1  0.65425727  0.75480209  0.87332892  1
  V  V31  1  0.26790072  0.12884783  0.87828417  1
  V  V32  1  0.62125917  0.12359879  0.49014437  1
  V  V33  1  0.74866827  0.50326578  0.25093383  1
  V  V34  1  0.01489145  0.13916062  0.62128004  1
  V  V35  1  -0.00688533  0.24787041  0.76982247  1
  V  V36  1  0.75733061  0.24289956  -0.00473844  1
  V  V37  1  0.36232613  0.83833075  0.52684835  1
  V  V38  1  0.64156612  0.49767483  0.10239339  1
  V  V39  1  0.39253932  0.37737975  -0.01576383  1
  V  V40  1  0.49968276  0.73637781  0.73523591  1
  V  V41  1  0.01399609  0.89124441  0.86875674  1
  V  V42  1  0.25034890  0.14221709  0.35436958  1
  V  V43  1  0.63432279  0.88589054  0.74571825  1
  V  V44  1  0.73915213  0.24225822  0.48970574  1
  V  V45  1  0.49270513  0.86982047  0.86535997  1
  V  V46  1  0.25891117  0.60580668  0.87268636  1
  V  V47  1  0.47706444  0.00731541  0.51633585  1
  V  V48  1  0.12423315  0.75034269  0.86804524  1
  V  V49  1  0.11947902  0.09773546  -0.00521137  1
  V  V50  1  0.10694385  0.62100377  -0.00024983  1
  V  V51  1  0.88756399  0.77684749  0.14218095  1
  V  V52  1  0.85736794  0.24440674  0.63845418  1
  V  V53  1  -0.01258521  0.61905949  0.63235251  1
  V  V54  1  -0.00037574  0.75441672  0.74235022  1
  V  V55  1  0.76683307  0.35073893  0.13739407  1
  V  V56  1  0.12915916  0.37941007  0.76709614  1
  V  V57  1  0.00239493  0.11537584  0.14556887  1
  V  V58  1  0.11338551  0.50663292  0.14079188  1
  V  V59  1  0.73934167  0.87164803  0.16342974  1
  V  V60  1  0.86758899  0.89439856  -0.03502976  1
  V  V61  1  0.62274930  0.51114629  0.61250731  1
  V  V62  1  0.24701226  0.74976627  -0.00968142  1
  V  V63  1  0.38119671  0.36845578  0.51930384  1
  Zn  Zn64  1  0.18149489  0.18607330  0.16959740  1
  Zn  Zn65  1  0.18415826  0.19660408  0.70677530  1
  Zn  Zn66  1  0.21442803  0.67035144  0.16777008  1
  Zn  Zn67  1  0.17061728  0.65047541  0.70621230  1
  Zn  Zn68  1  0.67241336  0.17591952  0.18556429  1
  Zn  Zn69  1  0.66831152  0.31194484  0.68694688  1
  Zn  Zn70  1  0.75271363  0.65866375  0.13472765  1
  Zn  Zn71  1  0.67879209  0.68941254  0.69307968  1
  Zn  Zn72  1  0.36348685  0.30224215  0.26751403  1
  Zn  Zn73  1  0.31931220  0.31732847  0.82417097  1
  Zn  Zn74  1  0.36027951  0.84072182  0.28802406  1
  Zn  Zn75  1  0.31558226  0.79843753  0.79006058  1
  Zn  Zn76  1  0.81602160  0.30967982  0.31827279  1
  Zn  Zn77  1  0.81236002  0.30492479  0.82389933  1
  Zn  Zn78  1  0.82831381  0.82730476  0.31806125  1
  Zn  Zn79  1  0.83544524  0.84350975  0.77153510  1
  Zn  Zn80  1  0.19846853  0.39273258  0.43313516  1
  Zn  Zn81  1  0.16635514  0.43676743  0.94690305  1
  Zn  Zn82  1  0.18928625  0.90927317  0.32507399  1
  Zn  Zn83  1  0.20602869  0.94170522  0.84795819  1
  Zn  Zn84  1  0.67793608  0.43268090  0.43177254  1
  Zn  Zn85  1  0.75904333  0.43585987  0.94671917  1
  Zn  Zn86  1  0.66833668  0.92869725  0.46643413  1
  Zn  Zn87  1  0.66272969  0.90353688  0.96146623  1
  Zn  Zn88  1  0.27069690  0.01689864  0.01380176  1
  Zn  Zn89  1  0.32719702  0.05895921  0.61619050  1
  Zn  Zn90  1  0.29676886  0.55107604  0.05135751  1
  Zn  Zn91  1  0.27474130  0.53684490  0.51206670  1
  Zn  Zn92  1  0.81543869  0.04605945  0.08135542  1
  Zn  Zn93  1  0.81367378  0.06566580  0.56978721  1
  Zn  Zn94  1  0.95759337  0.61252023  0.10822980  1
  Zn  Zn95  1  0.80679147  0.55383834  0.58016876  1
  Zn  Zn96  1  0.46064146  0.41311959  0.13130730  1
  Zn  Zn97  1  0.49649222  0.41174007  0.67661389  1
  Zn  Zn98  1  0.39679022  0.95929701  0.15522869  1
  Zn  Zn99  1  0.43892163  0.93042198  0.67762411  1
  Zn  Zn100  1  0.94167668  0.43565484  0.19361925  1
  Zn  Zn101  1  0.92412327  0.43460518  0.69890871  1
  Zn  Zn102  1  0.93343013  0.95186524  0.20434996  1
  Zn  Zn103  1  0.96811478  0.91907678  0.64209353  1
  Zn  Zn104  1  0.06209184  0.05491553  0.31750417  1
  Zn  Zn105  1  0.08706516  0.07486947  0.80080828  1
  Zn  Zn106  1  0.20208923  0.56219778  0.32433152  1
  Zn  Zn107  1  0.05312922  0.55825220  0.81846608  1
  Zn  Zn108  1  0.50048548  -0.00816426  0.30768301  1
  Zn  Zn109  1  0.55741736  0.06263263  0.82736288  1
  Zn  Zn110  1  0.52708612  0.51244892  0.25055753  1
  Zn  Zn111  1  0.59175444  0.56921927  0.81563620  1
  Zn  Zn112  1  0.40898377  0.16226517  0.47542636  1
  Zn  Zn113  1  0.43965254  0.20206557  0.97872591  1
  Zn  Zn114  1  0.49199232  0.60490747  0.41811927  1
  Zn  Zn115  1  0.43697448  0.68792983  0.91122247  1
  Zn  Zn116  1  0.92346851  0.18389217  0.44217860  1
  Zn  Zn117  1  0.95956171  0.19174863  0.97701591  1
  Zn  Zn118  1  0.94696117  0.67992143  0.43621311  1
  Zn  Zn119  1  0.92686237  0.71498459  0.93899578  1
  Zn  Zn120  1  0.04183904  0.30815449  0.06660052  1
  Zn  Zn121  1  0.05438717  0.31575348  0.57812837  1
  Zn  Zn122  1  0.06242941  0.82972668  0.05148573  1
  Zn  Zn123  1  0.13232401  0.88988005  0.51241824  1
  Zn  Zn124  1  0.57508358  0.30296365  0.07025132  1
  Zn  Zn125  1  0.55319174  0.31369888  0.54554866  1
  Zn  Zn126  1  0.56867903  0.79901531  0.06081254  1
  Zn  Zn127  1  0.52773136  0.76987931  0.52336196  1
  O  O128  1  0.11128106  0.12153738  0.10781442  1
  O  O129  1  0.11188494  0.16249385  0.62300579  1
  O  O130  1  0.12748985  0.61821878  0.11344830  1
  O  O131  1  0.10221474  0.59938804  0.63478224  1
  O  O132  1  0.62217826  0.09457393  0.11823652  1
  O  O133  1  0.61099013  0.12172790  0.63842621  1
  O  O134  1  0.66331192  0.59804209  0.10686686  1
  O  O135  1  0.63698627  0.61217315  0.62445293  1
  O  O136  1  0.37091998  0.38006030  0.34924968  1
  O  O137  1  0.37369932  0.39628852  0.88809076  1
  O  O138  1  0.49135343  0.79802011  0.33302581  1
  O  O139  1  0.38774030  0.85825750  0.87861053  1
  O  O140  1  0.86805826  0.37663936  0.40010397  1
  O  O141  1  0.86651512  0.38515578  0.88765413  1
  O  O142  1  0.89026496  0.89705113  0.38541131  1
  O  O143  1  0.90220673  0.88391963  0.86063262  1
  O  O144  1  0.25293490  0.04085794  0.36951652  1
  O  O145  1  0.27058343  0.02209474  0.89554373  1
  O  O146  1  0.24985913  0.49594729  0.40376704  1
  O  O147  1  0.23562112  0.50995836  0.89149402  1
  O  O148  1  0.75422592  -0.01926427  0.40784884  1
  O  O149  1  0.73678643  0.08253409  0.81022420  1
  O  O150  1  0.76021104  0.49171311  0.36790614  1
  O  O151  1  0.73396117  0.49426368  0.85419102  1
  O  O152  1  0.21721918  0.48330710  0.11145952  1
  O  O153  1  0.22535938  0.50354247  0.61153569  1
  O  O154  1  0.28039937  0.96738005  0.11938853  1
  O  O155  1  0.21874171  1.03781463  0.62101800  1
  O  O156  1  0.75201436  0.47381642  0.14416129  1
  O  O157  1  0.73973406  0.49034531  0.64130260  1
  O  O158  1  0.72879813  0.97856247  0.13192655  1
  O  O159  1  0.73184839  1.01726770  0.63338264  1
  O  O160  1  0.00168574  0.37217214  0.27068953  1
  O  O161  1  -0.01579314  0.36700861  0.77351494  1
  O  O162  1  0.00706187  0.88616844  0.27428669  1
  O  O163  1  0.00977629  0.85628983  0.73978651  1
  O  O164  1  0.51792682  0.38840984  0.23624069  1
  O  O165  1  0.50317118  0.37464976  0.78139940  1
  O  O166  1  0.41087767  0.93974453  0.26402605  1
  O  O167  1  0.49596007  0.87235057  0.75749056  1
  O  O168  1  0.50354026  0.11053991  0.27086730  1
  O  O169  1  0.50354575  0.13985540  0.76193356  1
  O  O170  1  0.46199738  0.60661904  0.23538850  1
  O  O171  1  0.52335385  0.64056775  0.75311610  1
  O  O172  1  1.01281956  0.12742894  0.24525715  1
  O  O173  1  1.01124812  0.14433721  0.74306154  1
  O  O174  1  1.01076281  0.66415481  0.26864810  1
  O  O175  1  0.98601545  0.61996250  0.74617175  1
  O  O176  1  0.35354480  0.28429500  0.00494807  1
  O  O177  1  0.37743585  0.24859097  0.53866210  1
  O  O178  1  0.36783099  0.74440408  -0.00378726  1
  O  O179  1  0.41792888  0.77316241  0.47710213  1
  O  O180  1  0.85258379  0.21568259  -0.00477179  1
  O  O181  1  0.85533706  0.25375370  0.51399638  1
  O  O182  1  0.87915271  0.79737369  0.00591292  1
  O  O183  1  0.86651436  0.74573642  0.51262975  1
  O  O184  1  0.10470784  0.32857353  0.47509646  1
  O  O185  1  0.12219478  0.24645605  0.99950133  1
  O  O186  1  0.14949750  0.73849552  0.48359281  1
  O  O187  1  0.13070271  0.74721969  0.98826839  1
  O  O188  1  0.63089216  0.23788942  0.50354110  1
  O  O189  1  0.64351118  0.21969593  1.01882920  1
  O  O190  1  0.66571966  0.72332808  0.46216845  1
  O  O191  1  0.64386308  0.78479560  0.97601053  1
  O  O192  1  0.48914988  0.23099937  0.07956371  1
  O  O193  1  0.50387617  0.24197637  0.63906603  1
  O  O194  1  0.48897561  0.72953869  0.10248541  1
  O  O195  1  0.50955416  0.75555024  0.63710011  1
  O  O196  1  0.98509086  0.21126141  0.09241155  1
  O  O197  1  0.98240356  0.24912977  0.63776338  1
  O  O198  1  0.98671826  0.78417026  0.12446475  1
  O  O199  1  1.00842416  0.72468875  0.63865859  1
  O  O200  1  -0.01099606  0.26487587  0.38981226  1
  O  O201  1  -0.01923748  0.23968102  0.86813240  1
  O  O202  1  -0.01331951  0.77420166  0.39288213  1
  O  O203  1  0.00892006  0.76035373  0.86217108  1
  O  O204  1  0.47782944  0.17743580  0.30097986  1
  O  O205  1  0.49875442  0.25440484  0.88998366  1
  O  O206  1  0.54880871  0.84145955  0.32032859  1
  O  O207  1  0.51396846  0.76075597  0.86446691  1
  O  O208  1  0.23019539  0.17335452  0.45004605  1
  O  O209  1  0.23703120  0.14303748  1.00195949  1
  O  O210  1  0.24773810  0.65008372  0.48147870  1
  O  O211  1  0.23105970  0.63253623  0.99178704  1
  O  O212  1  0.73399839  0.13562790  0.51205623  1
  O  O213  1  0.74372224  0.10977205  1.01031493  1
  O  O214  1  0.77223608  0.63780036  0.50343802  1
  O  O215  1  0.78831714  0.59799427  0.98876874  1
  O  O216  1  0.22307856  0.36626322  0.01481060  1
  O  O217  1  0.28532753  0.35145924  0.48859480  1
  O  O218  1  0.26591022  0.85832877  -0.01053786  1
  O  O219  1  0.27683695  0.87066223  0.46366943  1
  O  O220  1  0.75951719  0.34949985  0.02176733  1
  O  O221  1  0.74957230  0.35826668  0.50447974  1
  O  O222  1  0.77116552  0.90692164  -0.05432884  1
  O  O223  1  0.75141946  0.84573641  0.50474462  1
  O  O224  1  0.12963786  0.50875400  0.23839065  1
  O  O225  1  0.11694531  0.49122284  0.74460699  1
  O  O226  1  0.14660690  0.99868427  0.27407654  1
  O  O227  1  0.15424332  0.99478627  0.75248886  1
  O  O228  1  0.64406901  0.48848381  0.25256829  1
  O  O229  1  0.63747353  0.49856967  0.73895653  1
  O  O230  1  0.59343941  0.98883655  0.23701928  1
  O  O231  1  0.61504320  0.99917761  0.75004113  1
  O  O232  1  0.39920036  0.09415720  0.15580789  1
  O  O233  1  0.33091343  -0.03890604  0.67828574  1
  O  O234  1  0.34343510  0.52340144  0.28454445  1
  O  O235  1  0.38148156  0.57667621  0.67517161  1
  O  O236  1  0.86958026  0.01076342  0.28205715  1
  O  O237  1  0.88439393  0.04219157  0.78366182  1
  O  O238  1  0.86623982  0.48202719  0.26920023  1
  O  O239  1  0.85191908  0.51148990  0.75152693  1
  O  O240  1  0.12371971  0.37616881  0.34524045  1
  O  O241  1  0.09827681  0.38968154  0.86657159  1
  O  O242  1  0.10797024  0.87823836  0.40139851  1
  O  O243  1  0.12298426  0.85929286  0.87001123  1
  O  O244  1  0.62642952  0.36768843  0.35583808  1
  O  O245  1  0.52532206  0.50279233  0.89032156  1
  O  O246  1  0.59185410  0.84724932  0.46648130  1
  O  O247  1  0.61041605  0.87634383  0.85768733  1
  O  O248  1  0.35806767  0.13079196  0.10810392  1
  O  O249  1  0.39280231  0.14465683  0.64885576  1
  O  O250  1  0.35202516  0.63386876  0.11193699  1
  O  O251  1  0.36967806  0.61908818  0.61833936  1
  O  O252  1  0.88018604  0.10695431  0.15732553  1
  O  O253  1  0.87855145  0.14341940  0.62695343  1
  O  O254  1  0.86629454  0.67184093  0.11271884  1
  O  O255  1  0.88427790  0.61817862  0.63975931  1
  O  O256  1  0.24358199  0.26489782  0.11162806  1
  O  O257  1  0.26945454  0.25415286  0.65420460  1
  O  O258  1  0.25152534  0.75851799  0.10552812  1
  O  O259  1  0.19092223  0.69039800  0.52398700  1
  O  O260  1  0.75054189  0.24812301  0.12781784  1
  O  O261  1  0.75629096  0.24942397  0.63459152  1
  O  O262  1  0.75676077  0.77531088  0.12707361  1
  O  O263  1  0.73675993  0.74277420  0.59774102  1
  O  O264  1  0.27213470  0.24351373  0.32269540  1
  O  O265  1  0.24645974  0.25289628  0.89385531  1
  O  O266  1  0.28613481  0.87481635  0.38187703  1
  O  O267  1  0.24122519  0.73512044  0.87699391  1
  O  O268  1  0.74814464  0.24450986  0.39325435  1
  O  O269  1  0.74060641  0.25513434  0.89711588  1
  O  O270  1  0.78529176  0.74949790  0.39578400  1
  O  O271  1  0.74836855  0.77377724  0.85162630  1
  O  O272  1  0.01917975  0.09574561  -0.02086747  1
  O  O273  1  -0.00148907  0.13293236  0.51400628  1
  O  O274  1  0.00732954  0.64926558  0.00598013  1
  O  O275  1  -0.01263942  0.60526946  0.51730774  1
  O  O276  1  0.49867101  0.09693002  -0.00190565  1
  O  O277  1  0.51204043  0.12452948  0.51204681  1
  O  O278  1  0.51524453  0.61307796  -0.03352440  1
  O  O279  1  0.55199052  0.66794012  0.48129197  1
  O  O280  1  0.47108761  0.34763513  0.47481567  1
  O  O281  1  0.49079146  0.37532468  1.01782514  1
  O  O282  1  0.44259489  0.91007354  0.55752556  1
  O  O283  1  0.49457173  0.86650564  0.98493926  1
  O  O284  1  0.97462704  0.37814424  0.50959289  1
  O  O285  1  0.99462290  0.36744140  0.98109566  1
  O  O286  1  1.00806317  0.91038726  0.53194563  1
  O  O287  1  1.00723976  0.88897557  0.97004405  1
  O  O288  1  0.47591915  0.50587783  0.36600440  1
  O  O289  1  0.49785392  0.53635538  0.95523573  1
  O  O290  1  0.49549125  0.98431131  0.42076731  1
  O  O291  1  0.49938141  0.97948448  0.88710435  1
  O  O292  1  0.98838925  0.47257698  0.40250722  1
  O  O293  1  0.98149918  0.49823938  0.88428850  1
  O  O294  1  0.99825761  1.00038762  0.39607954  1
  O  O295  1  1.02460823  0.98588552  0.84503994  1
  O  O296  1  -0.00128964  0.01360978  0.13328442  1
  O  O297  1  0.00336276  0.03345658  0.62427611  1
  O  O298  1  0.00263172  0.51857898  0.14089665  1
  O  O299  1  -0.01002302  0.49918203  0.62359129  1
  O  O300  1  0.50600403  -0.02443933  0.10805865  1
  O  O301  1  0.49897395  0.02684049  0.63393855  1
  O  O302  1  0.53860967  0.49993022  0.12569105  1
  O  O303  1  0.52036090  0.50858577  0.62575965  1
  O  O304  1  0.21620907  0.37383197  0.21616901  1
  O  O305  1  0.22650992  0.36979508  0.77285805  1
  O  O306  1  0.24919583  0.85671127  0.23625848  1
  O  O307  1  0.24531515  0.87508414  0.76212053  1
  O  O308  1  0.74230567  0.36356298  0.24710531  1
  O  O309  1  0.74760406  0.37117350  0.75281161  1
  O  O310  1  0.73497958  0.86611885  0.26252508  1
  O  O311  1  0.73081285  0.89086874  0.75314586  1
  O  O312  1  0.25328180  0.12890023  0.24847129  1
  O  O313  1  0.25297961  0.14158569  0.77850179  1
  O  O314  1  0.25856002  0.64300532  0.26350252  1
  O  O315  1  0.25094531  0.61811455  0.77128362  1
  O  O316  1  0.74730311  0.12054759  0.25177491  1
  O  O317  1  0.74906502  0.13954715  0.76808364  1
  O  O318  1  0.75945754  0.60060799  0.24089150  1
  O  O319  1  0.76725752  0.64212574  0.74767408  1
  O  O320  1  0.35347396  0.13849386  0.37303918  1
  O  O321  1  0.36316881  0.14926434  0.90342291  1
  O  O322  1  0.39222021  0.65165090  0.36943569  1
  O  O323  1  0.35768601  0.61027724  0.89080549  1
  O  O324  1  0.86272211  0.11380126  0.37648846  1
  O  O325  1  0.88229245  0.06673181  0.85148620  1
  O  O326  1  0.89101011  0.59176537  0.38502782  1
  O  O327  1  0.87877096  0.63686960  0.86715261  1
  O  O328  1  0.08632457  0.39371873  0.13518744  1
  O  O329  1  0.11335745  0.38498063  0.64832959  1
  O  O330  1  0.14422277  0.87646160  0.11609202  1
  O  O331  1  0.17114313  0.88594237  0.61539645  1
  O  O332  1  0.64246172  0.37388273  0.13489175  1
  O  O333  1  0.60356014  0.37929494  0.62389338  1
  O  O334  1  0.63127244  0.87271922  0.12771445  1
  O  O335  1  0.61502926  0.90275760  0.64177505  1
  O  O336  1  0.10688320  0.25919131  0.22374824  1
  O  O337  1  0.10113589  0.27094132  0.75449547  1
  O  O338  1  0.08263834  0.66883138  0.28966158  1
  O  O339  1  0.11162150  0.73042359  0.76043824  1
  O  O340  1  0.61383744  0.25609604  0.23991028  1
  O  O341  1  0.60788031  0.25761236  0.76746293  1
  O  O342  1  0.63132161  0.70312707  0.30499330  1
  O  O343  1  0.62062017  0.77047854  0.75221860  1
  O  O344  1  0.44941808  0.22738952  0.24611205  1
  O  O345  1  0.39597917  0.26691739  0.75266818  1
  O  O346  1  0.37864982  0.74123427  0.22550636  1
  O  O347  1  0.39908680  0.73578209  0.75674306  1
  O  O348  1  0.87011832  0.22379639  0.26903393  1
  O  O349  1  0.87936875  0.25156519  0.74532876  1
  O  O350  1  0.88127708  0.76298586  0.24166618  1
  O  O351  1  0.89559092  0.73942786  0.75180475  1
  O  O352  1  0.37606879  0.47863187  0.48779035  1
  O  O353  1  0.35376649  0.45159734  1.04963564  1
  O  O354  1  0.38225911  1.04797542  0.51288964  1
  O  O355  1  0.38864586  0.97508617  1.00744277  1
  O  O356  1  0.86718754  0.48452196  0.50471976  1
  O  O357  1  0.82671139  0.53591505  0.99739474  1
  O  O358  1  0.88391682  1.01584501  0.49636629  1
  O  O359  1  0.88432444  0.97986082  1.01719654  1
  O  O360  1  0.14946890  0.00330961  0.00126555  1
  O  O361  1  0.11406997  0.02007528  0.49779109  1
  O  O362  1  0.10374394  0.51932209  0.00473520  1
  O  O363  1  0.09799978  0.48637417  0.52079391  1
  O  O364  1  0.61153932  -0.00657294  0.00947034  1
  O  O365  1  0.61261113  0.01346113  0.52601732  1
  O  O366  1  0.65657515  0.47339188  0.00764325  1
  O  O367  1  0.63878514  0.49743475  0.51186630  1
  O  O368  1  0.36046725  0.36165346  0.16917562  1
  O  O369  1  0.39357782  0.36775335  0.62549700  1
  O  O370  1  0.37402816  0.84509089  0.10653769  1
  O  O371  1  0.32307372  0.79502213  0.60358041  1
  O  O372  1  0.86595213  0.36534129  0.14191962  1
  O  O373  1  0.87084473  0.36227711  0.61836557  1
  O  O374  1  0.85194703  0.88437455  0.14795796  1
  O  O375  1  0.86648156  0.89501561  0.67396386  1
  O  O376  1  0.14612685  0.14727320  0.34631643  1
  O  O377  1  0.14474112  0.12149699  0.88966932  1
  O  O378  1  0.10220598  0.62611231  0.35659624  1
  O  O379  1  0.11918681  0.63033316  0.88773564  1
  O  O380  1  0.62210524  0.11097755  0.39655742  1
  O  O381  1  0.62483934  0.10972927  0.90428915  1
  O  O382  1  0.61248291  0.63814657  0.33140211  1
  O  O383  1  0.64483471  0.65470096  0.87107419  1
