# generated using pymatgen
data_VZnO4
_symmetry_space_group_name_H-M   'P 1'
_cell_length_a   16.93627563
_cell_length_b   16.96279803
_cell_length_c   16.84828117
_cell_angle_alpha   90.03574210
_cell_angle_beta   90.17568019
_cell_angle_gamma   90.39269844
_symmetry_Int_Tables_number   1
_chemical_formula_structural   VZnO4
_chemical_formula_sum   'V64 Zn64 O256'
_cell_volume   4840.14835275
_cell_formula_units_Z   64
loop_
 _symmetry_equiv_pos_site_id
 _symmetry_equiv_pos_as_xyz
  1  'x, y, z'
loop_
 _atom_site_type_symbol
 _atom_site_label
 _atom_site_symmetry_multiplicity
 _atom_site_fract_x
 _atom_site_fract_y
 _atom_site_fract_z
 _atom_site_occupancy
  V  V0  1  0.87053283  0.62980303  0.26455443  1
  V  V1  1  0.24748497  0.86795479  0.11672851  1
  V  V2  1  -0.00832203  0.24528201  0.23351637  1
  V  V3  1  0.86023347  0.39294743  -0.01688363  1
  V  V4  1  0.14390366  0.50583167  0.62496349  1
  V  V5  1  0.60977635  0.87345267  0.75129105  1
  V  V6  1  0.75099524  0.12427519  0.85303822  1
  V  V7  1  0.00472758  0.76018930  0.24984231  1
  V  V8  1  0.61909688  0.61563035  0.01663873  1
  V  V9  1  0.75389124  -0.01376901  0.74644892  1
  V  V10  1  0.51598680  0.62150669  0.62803774  1
  V  V11  1  0.75319618  0.74105588  0.49304437  1
  V  V12  1  0.88200319  -0.00773783  0.38500677  1
  V  V13  1  0.03547195  0.63986231  0.61857062  1
  V  V14  1  -0.04903805  0.19912519  0.69972598  1
  V  V15  1  -0.00467332  0.38020287  0.37791516  1
  V  V16  1  0.38669062  0.61530176  0.25134442  1
  V  V17  1  0.61871869  0.37950656  0.72891489  1
  V  V18  1  0.77988927  0.24192879  0.48864389  1
  V  V19  1  0.50564562  0.49048989  0.50765118  1
  V  V20  1  0.36500052  0.17399222  0.24779769  1
  V  V21  1  0.23820598  0.50705437  0.24113098  1
  V  V22  1  0.12485280  0.37452552  0.24121459  1
  V  V23  1  0.73930900  0.87664535  0.13750793  1
  V  V24  1  0.61303972  0.75106639  0.87101195  1
  V  V25  1  0.62195371  0.71912836  0.38040240  1
  V  V26  1  -0.00424123  0.51451313  -0.00501582  1
  V  V27  1  0.75639636  0.39509327  0.12890500  1
  V  V28  1  0.11647887  -0.01266505  0.69118009  1
  V  V29  1  0.88150309  -0.00361142  0.87632953  1
  V  V30  1  0.25748552  0.00302721  0.25065299  1
  V  V31  1  0.39470620  0.00172187  0.86001645  1
  V  V32  1  0.38198613  0.74890026  0.62154378  1
  V  V33  1  0.27621185  0.87553767  0.66488867  1
  V  V34  1  0.35184135  0.36861276  0.50894073  1
  V  V35  1  0.36830329  0.61344386  0.75819654  1
  V  V36  1  0.74979824  0.75302513  0.00482407  1
  V  V37  1  0.87997620  0.87858460  0.00246418  1
  V  V38  1  0.61176718  0.37385709  0.24474861  1
  V  V39  1  0.39982067  0.89357249  0.00762629  1
  V  V40  1  0.50275409  0.39628139  0.87827516  1
  V  V41  1  0.50132413  0.76554342  0.26061874  1
  V  V42  1  0.24076483  0.13208900  0.39111723  1
  V  V43  1  0.27213642  0.14402598  0.89459398  1
  V  V44  1  0.12393725  0.01530571  0.10392376  1
  V  V45  1  0.38054787  0.74044272  0.12016509  1
  V  V46  1  0.23573334  0.63045263  0.38766977  1
  V  V47  1  0.12403257  0.77551409  0.38271028  1
  V  V48  1  0.02778458  0.74111909  0.76838070  1
  V  V49  1  0.62914815  0.01552845  0.10860145  1
  V  V50  1  0.00165430  0.61803838  0.13264330  1
  V  V51  1  0.75435246  0.50041123  0.28145274  1
  V  V52  1  0.75616661  0.61994565  0.86281260  1
  V  V53  1  0.77271638  0.37527402  0.61288769  1
  V  V54  1  0.60052814  0.24405047  0.36897826  1
  V  V55  1  0.75681431  0.87348080  0.60511297  1
  V  V56  1  0.01179453  0.39068718  0.86288385  1
  V  V57  1  0.38748013  0.15499445  0.74090950  1
  V  V58  1  0.61725773  0.01299334  0.60848850  1
  V  V59  1  0.76050315  0.23583035  0.01119168  1
  V  V60  1  0.85306941  0.10850853  0.24745614  1
  V  V61  1  0.62752814  0.24705730  0.86078612  1
  V  V62  1  0.36939951  0.49903249  0.38675735  1
  V  V63  1  0.24280435  0.36035657  0.65101196  1
  Zn  Zn64  1  0.15851787  0.16394795  0.20891653  1
  Zn  Zn65  1  0.19125497  0.17180113  0.71282074  1
  Zn  Zn66  1  0.18600050  0.68494910  0.19059375  1
  Zn  Zn67  1  0.19997736  0.69849419  0.70041524  1
  Zn  Zn68  1  0.68517003  0.19083533  0.18763169  1
  Zn  Zn69  1  0.69222932  0.19468086  0.67029185  1
  Zn  Zn70  1  0.68905671  0.68686647  0.19689496  1
  Zn  Zn71  1  0.68955261  0.69231815  0.68245022  1
  Zn  Zn72  1  0.26727736  0.31594265  0.33733022  1
  Zn  Zn73  1  0.32485674  0.31944413  0.82291379  1
  Zn  Zn74  1  0.29827795  0.80202143  0.29178567  1
  Zn  Zn75  1  0.42235106  0.81412933  0.80759581  1
  Zn  Zn76  1  0.81584572  0.30601016  0.30798256  1
  Zn  Zn77  1  0.81004263  0.31945653  0.79493986  1
  Zn  Zn78  1  0.81367862  0.81494583  0.32484992  1
  Zn  Zn79  1  0.80754027  0.81061536  0.81851597  1
  Zn  Zn80  1  0.17081162  0.44488691  0.43786922  1
  Zn  Zn81  1  0.09901957  0.21479123  0.89822113  1
  Zn  Zn82  1  0.09943385  0.97941149  0.40208081  1
  Zn  Zn83  1  0.22772102  0.96157199  0.96390800  1
  Zn  Zn84  1  0.66623037  0.38202465  0.45557639  1
  Zn  Zn85  1  0.67746059  0.43996904  0.93048198  1
  Zn  Zn86  1  0.69476444  1.07441930  0.42973440  1
  Zn  Zn87  1  0.68084714  0.93756151  0.93750566  1
  Zn  Zn88  1  0.32815022  0.07236201  0.08811130  1
  Zn  Zn89  1  0.26476131  0.07370292  0.59165429  1
  Zn  Zn90  1  0.17940375  0.47077545  0.06838931  1
  Zn  Zn91  1  0.31302246  0.57040549  0.57017304  1
  Zn  Zn92  1  0.81783723  0.05745832  0.06728996  1
  Zn  Zn93  1  0.85590945  0.10504304  0.54455041  1
  Zn  Zn94  1  0.81348927  0.57460545  0.06981741  1
  Zn  Zn95  1  0.71280632  0.53491860  0.49952878  1
  Zn  Zn96  1  0.40183429  0.38236303  0.25165212  1
  Zn  Zn97  1  0.43606513  0.43099102  0.69140502  1
  Zn  Zn98  1  0.43054150  0.93638842  0.19357702  1
  Zn  Zn99  1  0.41231731  1.00473459  0.64159754  1
  Zn  Zn100  1  0.93231127  0.44003044  0.19262517  1
  Zn  Zn101  1  0.94246713  0.46333789  0.67599949  1
  Zn  Zn102  1  0.92966910  0.93978789  0.18286029  1
  Zn  Zn103  1  0.94462953  0.95352001  0.58233412  1
  Zn  Zn104  1  0.03948707  0.03872459  0.25853408  1
  Zn  Zn105  1  0.07741416  0.04532540  0.90262946  1
  Zn  Zn106  1  0.05668537  0.56395005  0.32099852  1
  Zn  Zn107  1  0.05776989  0.55908403  0.80379120  1
  Zn  Zn108  1  0.54169231  0.08707041  0.29317859  1
  Zn  Zn109  1  0.56313918  0.06521602  0.79945429  1
  Zn  Zn110  1  0.56215787  0.54164767  0.31645361  1
  Zn  Zn111  1  0.57790002  0.56143946  0.80494865  1
  Zn  Zn112  1  0.42023319  0.18796417  0.44161086  1
  Zn  Zn113  1  0.47759004  0.14453210  0.92873952  1
  Zn  Zn114  1  0.43901784  0.67797838  0.44316659  1
  Zn  Zn115  1  0.44227454  0.67167913  0.93883739  1
  Zn  Zn116  1  0.94750411  0.20017470  0.40169217  1
  Zn  Zn117  1  0.92829007  0.20041723  0.91194096  1
  Zn  Zn118  1  0.94165325  0.69335020  0.43636608  1
  Zn  Zn119  1  0.93098543  0.69008194  0.93921208  1
  Zn  Zn120  1  0.04852413  0.33594012  0.06208666  1
  Zn  Zn121  1  0.05737122  0.33235991  0.57536459  1
  Zn  Zn122  1  0.05458784  0.80157897  0.06513369  1
  Zn  Zn123  1  0.09970888  0.81797021  0.58425927  1
  Zn  Zn124  1  0.58827865  0.31563564  0.04818808  1
  Zn  Zn125  1  0.53646842  0.28806806  0.55414635  1
  Zn  Zn126  1  0.56863515  0.79997999  0.07336128  1
  Zn  Zn127  1  0.57278103  0.80377231  0.56990256  1
  O  O128  1  0.13780462  0.11370908  0.10279646  1
  O  O129  1  0.16373932  0.07451838  0.65010027  1
  O  O130  1  0.10331243  0.62464678  0.13347971  1
  O  O131  1  0.13995382  0.62850717  0.61866008  1
  O  O132  1  0.63718792  0.11534515  0.11510252  1
  O  O133  1  0.62611666  0.10785114  0.64038598  1
  O  O134  1  0.63122330  0.63146141  0.11660298  1
  O  O135  1  0.61651213  0.62536609  0.62235865  1
  O  O136  1  0.35500432  0.39410940  0.38035457  1
  O  O137  1  0.40421653  0.37425228  0.88104139  1
  O  O138  1  0.36016488  0.85772022  0.39527845  1
  O  O139  1  0.39849321  0.89387992  0.89445202  1
  O  O140  1  0.89489172  0.36384872  0.36680037  1
  O  O141  1  0.84999006  0.38911470  0.88310580  1
  O  O142  1  0.87744089  0.89122450  0.38041640  1
  O  O143  1  0.86040528  0.88692657  0.89004058  1
  O  O144  1  0.27092629  -0.00938948  0.34618830  1
  O  O145  1  0.29293509  0.01306041  0.88880736  1
  O  O146  1  0.25322531  0.51596659  0.37232405  1
  O  O147  1  0.20403442  0.54868522  0.87825707  1
  O  O148  1  0.78231931  0.01431037  0.39042575  1
  O  O149  1  0.74366799  0.00738892  0.86440967  1
  O  O150  1  0.74702135  0.49651910  0.38074499  1
  O  O151  1  0.73502970  0.52125623  0.87148697  1
  O  O152  1  0.25456034  0.51294535  0.14073127  1
  O  O153  1  0.24708176  0.49556033  0.62613595  1
  O  O154  1  0.23789770  0.98416730  0.10401945  1
  O  O155  1  0.30303264  0.96644367  0.61602992  1
  O  O156  1  0.74856200  0.49445354  0.13248779  1
  O  O157  1  0.73104025  0.46536017  0.59045101  1
  O  O158  1  0.73614960  0.98844314  0.12173065  1
  O  O159  1  0.73624477  0.98671944  0.63823001  1
  O  O160  1  0.00910084  0.37123171  0.24854978  1
  O  O161  1  -0.02576721  0.40761406  0.76882168  1
  O  O162  1  -0.01071237  0.85689403  0.23938187  1
  O  O163  1  -0.03441003  0.83662278  0.75864443  1
  O  O164  1  0.51320825  0.38490015  0.22981234  1
  O  O165  1  0.51225331  0.37393525  0.76279175  1
  O  O166  1  0.48860863  0.86315021  0.26506736  1
  O  O167  1  0.51213618  0.87174204  0.75272765  1
  O  O168  1  0.46267287  0.14927078  0.24051440  1
  O  O169  1  0.48817502  0.13083749  0.74520907  1
  O  O170  1  0.48659832  0.60913944  0.25562979  1
  O  O171  1  0.50316084  0.61312522  0.73126920  1
  O  O172  1  1.03817623  0.15192591  0.23661518  1
  O  O173  1  1.03483668  0.14896996  0.75283651  1
  O  O174  1  0.98961249  0.62528255  0.24639372  1
  O  O175  1  1.00620216  0.63935880  0.73433140  1
  O  O176  1  0.38269135  0.32090449  0.07580742  1
  O  O177  1  0.35656091  0.27270496  0.48991673  1
  O  O178  1  0.38396294  0.73589468  0.02046197  1
  O  O179  1  0.38063271  0.73921621  0.51876845  1
  O  O180  1  0.85858515  0.27145853  -0.01514224  1
  O  O181  1  0.88147079  0.22438112  0.49226514  1
  O  O182  1  0.85760809  0.76482069  -0.00555942  1
  O  O183  1  0.85117053  0.75263798  0.47740316  1
  O  O184  1  0.10645971  0.19850630  0.52472012  1
  O  O185  1  0.13331254  0.28005751  1.00028758  1
  O  O186  1  0.12731778  0.76896121  0.48297612  1
  O  O187  1  0.11976222  0.72491288  1.00159649  1
  O  O188  1  0.62297325  0.26939549  0.47114906  1
  O  O189  1  0.66093332  0.25889321  0.97613306  1
  O  O190  1  0.62371433  0.75010546  0.48194851  1
  O  O191  1  0.63297186  0.74688249  0.99065808  1
  O  O192  1  0.50608810  0.22647418  0.08469168  1
  O  O193  1  0.48374305  0.19212342  0.53412890  1
  O  O194  1  0.49098104  0.74983956  0.14963261  1
  O  O195  1  0.49955321  0.72997634  0.61699963  1
  O  O196  1  0.99576660  0.26758377  0.13404833  1
  O  O197  1  0.99535278  0.26485529  0.63855655  1
  O  O198  1  0.99606238  0.73499805  0.14055416  1
  O  O199  1  1.03292733  0.74801907  0.64551348  1
  O  O200  1  0.01641804  0.26515305  0.34312557  1
  O  O201  1  0.00493294  0.28757372  0.88229377  1
  O  O202  1  0.01566808  0.74927124  0.36480737  1
  O  O203  1  0.00877107  0.72752831  0.86804303  1
  O  O204  1  0.50243110  0.24603775  0.36783841  1
  O  O205  1  0.53003580  0.23911267  0.88684990  1
  O  O206  1  0.50995268  0.73737505  0.36981564  1
  O  O207  1  0.51147112  0.75163523  0.87742050  1
  O  O208  1  0.27079534  0.11133798  0.48651194  1
  O  O209  1  0.30304324  0.13302674  0.99192612  1
  O  O210  1  0.25733513  0.62948073  0.48500918  1
  O  O211  1  0.24721967  0.54100659  0.93932968  1
  O  O212  1  0.75015706  0.14090959  0.50951427  1
  O  O213  1  0.76430885  0.13525537  0.99698112  1
  O  O214  1  0.74050372  0.64247334  0.50096993  1
  O  O215  1  0.74409632  0.64076200  0.99873460  1
  O  O216  1  0.22881054  0.37825756  -0.00104279  1
  O  O217  1  0.25057827  0.38358701  0.50146778  1
  O  O218  1  0.28205641  0.86950409  0.01120723  1
  O  O219  1  0.31989510  0.86949605  0.45527833  1
  O  O220  1  0.75297433  0.38493339  0.01193829  1
  O  O221  1  0.76870079  0.35396408  0.49842611  1
  O  O222  1  0.74753745  0.86479486  0.00585378  1
  O  O223  1  0.73830510  0.87021764  0.50718447  1
  O  O224  1  0.13608717  0.50723320  0.25057546  1
  O  O225  1  0.12491926  0.51161025  0.72751811  1
  O  O226  1  0.15143972  1.00773813  0.22287397  1
  O  O227  1  0.12261389  0.99177382  0.79019325  1
  O  O228  1  0.64159780  0.48330202  0.25741876  1
  O  O229  1  0.62616920  0.47900936  0.73492373  1
  O  O230  1  0.58519382  1.00276529  0.21999140  1
  O  O231  1  0.63120633  0.98298729  0.75419432  1
  O  O232  1  0.35497642  0.02020567  0.20605509  1
  O  O233  1  0.40152994  -0.00778994  0.76232340  1
  O  O234  1  0.36457282  0.50293272  0.26322730  1
  O  O235  1  0.38014343  0.51242186  0.74548479  1
  O  O236  1  0.87001944  0.00192044  0.25989359  1
  O  O237  1  0.85436787  -0.01209456  0.76377466  1
  O  O238  1  0.85802855  0.50402588  0.25844651  1
  O  O239  1  0.85780805  0.54961150  0.69370164  1
  O  O240  1  0.12171200  0.38484236  0.35143911  1
  O  O241  1  0.10696791  0.40478849  0.85967681  1
  O  O242  1  0.13238115  0.87284387  0.36525560  1
  O  O243  1  0.16523010  0.76100509  0.94408128  1
  O  O244  1  0.61934214  0.36200669  0.35159220  1
  O  O245  1  0.63007780  0.36255099  0.85402348  1
  O  O246  1  0.55416091  0.89763096  0.42571321  1
  O  O247  1  0.62942255  0.86246935  0.86470306  1
  O  O248  1  0.33281247  0.17045445  0.15010410  1
  O  O249  1  0.36429331  0.11451478  0.64385076  1
  O  O250  1  0.37234774  0.63586513  0.14694451  1
  O  O251  1  0.38491056  0.63100287  0.63440997  1
  O  O252  1  0.88095516  0.10717118  0.14767034  1
  O  O253  1  0.90139986  0.12817346  0.64590413  1
  O  O254  1  0.88070087  0.62282716  0.14981788  1
  O  O255  1  0.84057212  0.58562546  0.62509732  1
  O  O256  1  0.21198005  0.30568304  0.01695817  1
  O  O257  1  0.22660192  0.26145370  0.64286529  1
  O  O258  1  0.26915550  0.75698568  0.14076021  1
  O  O259  1  0.26685088  0.76920377  0.63371047  1
  O  O260  1  0.75290169  0.25380222  0.11201698  1
  O  O261  1  0.75388526  0.26116305  0.60323849  1
  O  O262  1  0.74133429  0.76010956  0.11371572  1
  O  O263  1  0.74380758  0.76208005  0.60753897  1
  O  O264  1  0.21581217  0.23066686  0.38814516  1
  O  O265  1  0.26357678  0.24569308  0.88351727  1
  O  O266  1  0.23187851  0.74019609  0.36077999  1
  O  O267  1  0.22709976  0.72495234  0.92529872  1
  O  O268  1  0.75479861  0.24637096  0.38674171  1
  O  O269  1  0.75226927  0.23125785  0.86253444  1
  O  O270  1  0.72661862  0.75594876  0.37947850  1
  O  O271  1  0.73947131  0.74590109  0.88705013  1
  O  O272  1  0.01933907  0.13997191  -0.05966020  1
  O  O273  1  0.05598329  0.15301196  0.49696139  1
  O  O274  1  -0.02063152  0.62052900  0.01877118  1
  O  O275  1  -0.00391399  0.65406751  0.52696356  1
  O  O276  1  0.48792299  0.16185635  0.04881505  1
  O  O277  1  0.46380363  0.03610073  0.43228908  1
  O  O278  1  0.51948942  0.62895346  0.00555799  1
  O  O279  1  0.49618873  0.60112688  0.50992434  1
  O  O280  1  0.47098052  0.38783884  0.50965910  1
  O  O281  1  0.53254083  0.37909194  0.97651347  1
  O  O282  1  0.51439792  0.88236700  0.48557451  1
  O  O283  1  0.49396335  0.86377121  1.01659019  1
  O  O284  1  1.01784801  0.35704714  0.47540396  1
  O  O285  1  0.97757288  0.39614070  0.98878293  1
  O  O286  1  1.03536509  0.89985098  0.52430369  1
  O  O287  1  0.97870902  0.86554866  1.00805744  1
  O  O288  1  0.47732634  0.50080673  0.38688216  1
  O  O289  1  0.51201318  0.49600756  0.87309650  1
  O  O290  1  0.48075565  1.00627675  0.35830281  1
  O  O291  1  0.49351707  1.03280244  0.89299674  1
  O  O292  1  1.00006551  0.48221311  0.37072994  1
  O  O293  1  0.99040216  0.51166889  0.88901366  1
  O  O294  1  0.99718877  0.99591090  0.35268685  1
  O  O295  1  0.97802767  0.99406476  0.86824668  1
  O  O296  1  0.02677007  -0.00512787  0.13986823  1
  O  O297  1  0.01932894  -0.01737962  0.66565339  1
  O  O298  1  -0.01221196  0.51148126  0.11900027  1
  O  O299  1  0.01562859  0.53314308  0.62470744  1
  O  O300  1  0.52591259  -0.00011848  0.15605877  1
  O  O301  1  0.51878094  -0.01028672  0.61712344  1
  O  O302  1  0.44266430  0.48836523  0.06359541  1
  O  O303  1  0.49779022  0.50273546  0.61374155  1
  O  O304  1  0.23933017  0.39767538  0.25370886  1
  O  O305  1  0.25524630  0.37543884  0.74853846  1
  O  O306  1  0.26435791  0.88935655  0.22613841  1
  O  O307  1  0.28724512  0.87818987  0.76081945  1
  O  O308  1  0.75444096  0.38587966  0.24440236  1
  O  O309  1  0.73605522  0.36494408  0.71932914  1
  O  O310  1  0.75789302  0.86302606  0.23429822  1
  O  O311  1  0.74308696  0.87828953  0.74616517  1
  O  O312  1  0.25069305  0.12177387  0.26493321  1
  O  O313  1  0.27911752  0.13209175  0.77316854  1
  O  O314  1  0.25772433  0.61814954  0.26059012  1
  O  O315  1  0.26797062  0.62458486  0.74861603  1
  O  O316  1  0.75449272  0.12440192  0.25152124  1
  O  O317  1  0.74944793  0.10917723  0.75074059  1
  O  O318  1  0.75733828  0.61232741  0.25785964  1
  O  O319  1  0.74604997  0.64126205  0.76350239  1
  O  O320  1  0.35416842  0.14272926  0.35955982  1
  O  O321  1  0.38542698  0.12617667  0.85946387  1
  O  O322  1  0.36602107  0.61707040  0.36798849  1
  O  O323  1  0.38244571  0.62734706  0.85927688  1
  O  O324  1  0.89685963  0.11434457  0.34936897  1
  O  O325  1  0.85846857  0.10711335  0.87545698  1
  O  O326  1  0.88828625  0.61783131  0.36402126  1
  O  O327  1  0.85495491  0.62979956  0.87999564  1
  O  O328  1  0.11764302  0.39799860  0.13552831  1
  O  O329  1  0.13852357  0.38989226  0.62939532  1
  O  O330  1  0.14806320  0.85723270  0.10813240  1
  O  O331  1  0.16403601  0.89419539  0.65179958  1
  O  O332  1  0.64442773  0.36448093  0.13708732  1
  O  O333  1  0.59667311  0.34934109  0.63222235  1
  O  O334  1  0.63590129  0.87784274  0.12851835  1
  O  O335  1  0.63161458  0.87664252  0.63796484  1
  O  O336  1  0.13900239  0.27548020  0.22968961  1
  O  O337  1  0.09487553  0.20628943  0.76988622  1
  O  O338  1  0.11059822  0.74902965  0.25437838  1
  O  O339  1  0.12824981  0.75449676  0.77064979  1
  O  O340  1  0.62633753  0.26063515  0.25546092  1
  O  O341  1  0.63217053  0.25035812  0.75638407  1
  O  O342  1  0.61033697  0.74398959  0.26601555  1
  O  O343  1  0.62819689  0.76074189  0.76151989  1
  O  O344  1  0.35669422  0.27780818  0.26668846  1
  O  O345  1  0.38408238  0.25465897  0.74203082  1
  O  O346  1  0.38992523  0.73489125  0.25998673  1
  O  O347  1  0.39112315  0.73128086  0.73752636  1
  O  O348  1  0.88770268  0.22935180  0.24813837  1
  O  O349  1  0.88910896  0.24324231  0.76794699  1
  O  O350  1  0.88360091  0.73671691  0.26617847  1
  O  O351  1  0.90561787  0.78279847  0.75170956  1
  O  O352  1  0.37039691  0.49775865  0.49371915  1
  O  O353  1  0.38945919  0.49103236  1.01476175  1
  O  O354  1  0.41483893  0.99577954  0.47297213  1
  O  O355  1  0.39900304  0.99125430  1.02961072  1
  O  O356  1  0.86400549  0.55173182  0.56090190  1
  O  O357  1  0.87192477  0.49617292  1.00354848  1
  O  O358  1  0.90623489  1.01742475  0.49277915  1
  O  O359  1  0.86964847  0.99032664  0.98850030  1
  O  O360  1  0.12149516  -0.01406469  -0.00124217  1
  O  O361  1  0.09076755  -0.03925225  0.51694799  1
  O  O362  1  0.09469604  0.50621264  0.00442148  1
  O  O363  1  0.12296389  0.50283791  0.52098054  1
  O  O364  1  0.61570531  -0.00438568  0.01029136  1
  O  O365  1  0.63373972  0.01342504  0.50916851  1
  O  O366  1  0.63317201  0.51756113  0.00260878  1
  O  O367  1  0.60645380  0.47863109  0.48577773  1
  O  O368  1  0.34796020  0.36486089  0.12255198  1
  O  O369  1  0.35288790  0.37626502  0.61862686  1
  O  O370  1  0.37691654  0.85810043  0.12058769  1
  O  O371  1  0.38961767  0.85125865  0.63703189  1
  O  O372  1  0.85915638  0.38013804  0.11761122  1
  O  O373  1  0.87081681  0.38711161  0.62632831  1
  O  O374  1  0.85561766  0.88876562  0.10813932  1
  O  O375  1  0.85612231  0.88610963  0.61381081  1
  O  O376  1  0.14959937  0.08187733  0.38383656  1
  O  O377  1  0.17053990  0.11860956  0.89442770  1
  O  O378  1  0.13415748  0.62530505  0.38044822  1
  O  O379  1  0.14486890  0.60144096  0.88192747  1
  O  O380  1  0.61950846  0.13729007  0.36487210  1
  O  O381  1  0.64187761  0.13227713  0.86713103  1
  O  O382  1  0.62452676  0.62018109  0.37825585  1
  O  O383  1  0.63041148  0.64089819  0.87923180  1
