# generated using pymatgen
data_VZnO4
_symmetry_space_group_name_H-M   'P 1'
_cell_length_a   16.88272173
_cell_length_b   16.89267636
_cell_length_c   16.88952616
_cell_angle_alpha   89.71629314
_cell_angle_beta   89.98264721
_cell_angle_gamma   89.90079872
_symmetry_Int_Tables_number   1
_chemical_formula_structural   VZnO4
_chemical_formula_sum   'V64 Zn64 O256'
_cell_volume   4816.73102789
_cell_formula_units_Z   64
loop_
 _symmetry_equiv_pos_site_id
 _symmetry_equiv_pos_as_xyz
  1  'x, y, z'
loop_
 _atom_site_type_symbol
 _atom_site_label
 _atom_site_symmetry_multiplicity
 _atom_site_fract_x
 _atom_site_fract_y
 _atom_site_fract_z
 _atom_site_occupancy
  V  V0  1  0.73406393  0.01208009  0.25150335  1
  V  V1  1  0.40636160  0.86271820  0.00634385  1
  V  V2  1  0.00564043  0.73948449  0.75155597  1
  V  V3  1  0.23998411  0.12072834  0.35304876  1
  V  V4  1  0.36660470  0.50635573  0.36343833  1
  V  V5  1  0.37441199  0.23817749  0.11575164  1
  V  V6  1  0.24503949  0.89000917  0.63650880  1
  V  V7  1  0.61293533  0.48756134  0.12654527  1
  V  V8  1  0.75571618  0.74978230  0.48229224  1
  V  V9  1  0.63963053  0.36917713  0.75703739  1
  V  V10  1  0.86162275  0.89906165  0.51891056  1
  V  V11  1  0.26605338  0.11479662  0.85361758  1
  V  V12  1  0.23012919  0.48288558  0.24816234  1
  V  V13  1  0.36581991  0.37659032  0.50977988  1
  V  V14  1  0.36256640  0.87999434  0.49456696  1
  V  V15  1  0.00371615  0.26701817  0.25410376  1
  V  V16  1  0.62014026  0.84977340  0.24907430  1
  V  V17  1  0.01028293  0.50363211  0.48681995  1
  V  V18  1  0.60326591  0.24403827  0.87781948  1
  V  V19  1  0.76059484  0.86434280  0.12402414  1
  V  V20  1  0.25964837  0.37120397  0.10016040  1
  V  V21  1  -0.02742754  0.64770287  0.11523880  1
  V  V22  1  0.25142452  0.24480009  0.50589710  1
  V  V23  1  0.14031951  0.24362733  0.86101123  1
  V  V24  1  0.02753354  0.01319547  0.50206887  1
  V  V25  1  0.67002989  0.32812557  0.30954264  1
  V  V26  1  -0.01976394  0.39147377  0.87518084  1
  V  V27  1  0.87451158  0.12388932  0.26801246  1
  V  V28  1  0.75259413  0.37631942  0.10708677  1
  V  V29  1  0.24087829  0.61443463  0.85767262  1
  V  V30  1  0.84706875  0.50698536  0.86767995  1
  V  V31  1  0.49067541  0.24294967  0.24768536  1
  V  V32  1  0.87190584  0.74408788  0.63683379  1
  V  V33  1  0.50939623  0.01552531  0.01553366  1
  V  V34  1  0.00752707  0.12966456  0.63351255  1
  V  V35  1  0.64595864  0.12922603  0.00958401  1
  V  V36  1  0.13467752  0.89027509  0.25914857  1
  V  V37  1  0.36743988  0.74271719  0.61812169  1
  V  V38  1  0.50789014  0.50769413  0.49549981  1
  V  V39  1  0.13510902  0.75677908  0.88533118  1
  V  V40  1  0.87309829  0.25745578  0.11749343  1
  V  V41  1  -0.00017995  0.12286011  0.12454204  1
  V  V42  1  0.73478234  0.63622850  0.87270255  1
  V  V43  1  0.51284181  0.62521345  0.62479095  1
  V  V44  1  0.12463338  0.26532787  0.37403227  1
  V  V45  1  0.22781606  0.63620490  0.36711000  1
  V  V46  1  0.37599018  0.00559289  0.35249412  1
  V  V47  1  -0.01089029  -0.00038863  -0.00961801  1
  V  V48  1  0.75955878  0.50804771  0.26277923  1
  V  V49  1  0.60811717  0.11750625  0.51017028  1
  V  V50  1  0.90077623  0.37162959  0.50331361  1
  V  V51  1  0.86144585  0.25142263  0.63685245  1
  V  V52  1  0.64159937  0.88861882  0.75185194  1
  V  V53  1  0.50246516  0.86244072  0.37616513  1
  V  V54  1  0.11911981  0.89868435  0.75476331  1
  V  V55  1  0.49149440  0.63619589  0.13166167  1
  V  V56  1  0.35258199  0.74938522  0.13259792  1
  V  V57  1  0.38047927  -0.01185757  0.87796584  1
  V  V58  1  0.11919882  0.49223150  0.09618045  1
  V  V59  1  -0.00517953  0.87409850  0.38040930  1
  V  V60  1  0.49529510  0.37095804  0.36765838  1
  V  V61  1  0.14521312  0.12548050  0.01332364  1
  V  V62  1  0.12598862  0.47670234  0.63913462  1
  V  V63  1  0.61950810  0.62776658  0.00041978  1
  Zn  Zn64  1  0.18715649  0.19962973  0.18638480  1
  Zn  Zn65  1  0.19410007  0.16337911  0.68158658  1
  Zn  Zn66  1  0.14971944  0.66785578  0.19766780  1
  Zn  Zn67  1  0.19662409  0.70488047  0.69334974  1
  Zn  Zn68  1  0.68883026  0.19142068  0.19071046  1
  Zn  Zn69  1  0.67697287  0.17079574  0.70383715  1
  Zn  Zn70  1  0.69095233  0.67990585  0.18283512  1
  Zn  Zn71  1  0.68501287  0.68958018  0.68161115  1
  Zn  Zn72  1  0.31340017  0.31178028  0.31244283  1
  Zn  Zn73  1  0.28861828  0.28315843  0.77395196  1
  Zn  Zn74  1  0.31104685  0.81575394  0.30808722  1
  Zn  Zn75  1  0.34619497  0.77268685  0.83175809  1
  Zn  Zn76  1  0.83485073  0.32934322  0.31201175  1
  Zn  Zn77  1  0.81849269  0.32691869  0.79842036  1
  Zn  Zn78  1  0.80005371  0.86477051  0.33626440  1
  Zn  Zn79  1  0.82215395  0.80042102  0.83090462  1
  Zn  Zn80  1  0.18640178  0.43842489  0.44405443  1
  Zn  Zn81  1  0.19677247  0.42978252  0.92111062  1
  Zn  Zn82  1  0.18772685  0.93898654  0.42883523  1
  Zn  Zn83  1  0.17354102  0.95297651  0.93246626  1
  Zn  Zn84  1  0.69026052  0.58048771  0.43407251  1
  Zn  Zn85  1  0.67291224  0.43764148  0.93873482  1
  Zn  Zn86  1  0.68459121  0.93807083  0.43390941  1
  Zn  Zn87  1  0.69141305  0.93960592  0.94274131  1
  Zn  Zn88  1  0.32687571  0.04873467  0.07389299  1
  Zn  Zn89  1  0.29191743  0.05137392  0.53466716  1
  Zn  Zn90  1  0.27310777  0.59548272  0.09078937  1
  Zn  Zn91  1  0.29723446  0.56336303  0.55347087  1
  Zn  Zn92  1  0.81546261  0.05922738  0.07525823  1
  Zn  Zn93  1  0.80210946  0.07853137  0.59019814  1
  Zn  Zn94  1  0.81062439  0.55850821  0.05101556  1
  Zn  Zn95  1  0.87033086  0.59537409  0.52599413  1
  Zn  Zn96  1  0.42880229  0.43254630  0.18755192  1
  Zn  Zn97  1  0.49999193  0.44166480  0.69465674  1
  Zn  Zn98  1  0.44147732  0.92876123  0.18638325  1
  Zn  Zn99  1  0.42557856  0.88860150  0.70599442  1
  Zn  Zn100  1  0.93495555  0.44940676  0.17895967  1
  Zn  Zn101  1  0.94434906  0.43984755  0.68981319  1
  Zn  Zn102  1  0.93594721  0.93975365  0.19173671  1
  Zn  Zn103  1  0.94083539  0.95116476  0.69150637  1
  Zn  Zn104  1  0.05712148  0.06202595  0.31263522  1
  Zn  Zn105  1  0.05571261  0.08453515  0.82078625  1
  Zn  Zn106  1  0.05156115  0.55678205  0.29514513  1
  Zn  Zn107  1  0.06469906  0.56029388  0.81788707  1
  Zn  Zn108  1  0.55592859  0.06261332  0.31936190  1
  Zn  Zn109  1  0.56010784  0.06454407  0.82688412  1
  Zn  Zn110  1  0.56686697  0.56376182  0.30234572  1
  Zn  Zn111  1  0.58843619  0.57360861  0.79106810  1
  Zn  Zn112  1  0.42380130  0.18674706  0.43040035  1
  Zn  Zn113  1  0.43249569  0.18438786  0.93537067  1
  Zn  Zn114  1  0.42261390  0.68609733  0.43264410  1
  Zn  Zn115  1  0.44234929  0.67112943  0.94960162  1
  Zn  Zn116  1  0.93841457  0.19273914  0.44945223  1
  Zn  Zn117  1  0.95770507  0.21424012  0.93654753  1
  Zn  Zn118  1  1.05537565  0.68250127  0.44193561  1
  Zn  Zn119  1  0.94131424  0.70625120  0.94193888  1
  Zn  Zn120  1  0.07098105  0.30998734  0.04876905  1
  Zn  Zn121  1  0.07181920  0.30801423  0.57282859  1
  Zn  Zn122  1  0.04523275  0.80952188  0.06231380  1
  Zn  Zn123  1  0.04903534  0.83397869  0.57849377  1
  Zn  Zn124  1  0.56148754  0.30663144  0.06383233  1
  Zn  Zn125  1  0.54377581  0.31112392  0.56901221  1
  Zn  Zn126  1  0.57503108  0.80953053  0.07106441  1
  Zn  Zn127  1  0.54848150  0.77829298  0.51874897  1
  O  O128  1  0.11151832  0.13955924  0.11982259  1
  O  O129  1  0.10966929  0.12115359  0.62656237  1
  O  O130  1  0.15586461  0.59378830  0.10663124  1
  O  O131  1  0.13135319  0.67430171  0.58951997  1
  O  O132  1  0.62998321  0.13911622  0.10889569  1
  O  O133  1  0.57789073  0.09898781  0.60693501  1
  O  O134  1  0.61238832  0.61207460  0.12090979  1
  O  O135  1  0.61272998  0.63011095  0.61549337  1
  O  O136  1  0.38095976  0.38340480  0.37842727  1
  O  O137  1  0.41560878  0.40555791  0.77133824  1
  O  O138  1  0.38063158  0.87853340  0.37720331  1
  O  O139  1  0.36426488  0.87813032  0.90791033  1
  O  O140  1  0.86644587  0.37627247  0.40746026  1
  O  O141  1  0.87107028  0.39174314  0.87710860  1
  O  O142  1  0.88800051  0.88469264  0.40426636  1
  O  O143  1  0.83952447  0.96049304  0.83667674  1
  O  O144  1  0.25694261  0.01464851  0.37321195  1
  O  O145  1  0.26833176  0.00740262  0.89190893  1
  O  O146  1  0.25155755  0.49461233  0.36248010  1
  O  O147  1  0.22956335  0.51492632  0.85635014  1
  O  O148  1  0.75394539  -0.01592863  0.35268095  1
  O  O149  1  0.78674342  -0.00212708  0.88159736  1
  O  O150  1  0.73989228  0.50356945  0.36227991  1
  O  O151  1  0.74288596  0.50162996  0.86956581  1
  O  O152  1  0.25173829  0.48194571  0.13349025  1
  O  O153  1  0.21431581  0.52986654  0.62065478  1
  O  O154  1  0.23868770  0.95807199  0.09934427  1
  O  O155  1  0.25437707  0.99037805  0.61900116  1
  O  O156  1  0.75153466  0.48231974  0.12877188  1
  O  O157  1  0.72089019  0.43021040  0.57548576  1
  O  O158  1  0.75686836  0.99189144  0.14876434  1
  O  O159  1  0.73237251  1.07747681  0.67665455  1
  O  O160  1  -0.00776521  0.36478414  0.24871429  1
  O  O161  1  -0.00220203  0.36608197  0.78021436  1
  O  O162  1  -0.01254575  0.88165638  0.27794660  1
  O  O163  1  0.01693113  0.88336058  0.74819106  1
  O  O164  1  0.49555807  0.37122310  0.26372905  1
  O  O165  1  0.43739076  0.26053752  0.69159786  1
  O  O166  1  0.51241764  0.87215412  0.25849272  1
  O  O167  1  0.53921720  0.90196807  0.72769422  1
  O  O168  1  0.50670988  0.14558339  0.25843744  1
  O  O169  1  0.57112447  0.12086360  0.72953527  1
  O  O170  1  0.49182980  0.60403378  0.22734229  1
  O  O171  1  0.50181311  0.61283022  0.72504042  1
  O  O172  1  0.99237847  0.13577373  0.24323008  1
  O  O173  1  0.98821636  0.10504117  0.73049711  1
  O  O174  1  1.03306074  0.62591654  0.20492168  1
  O  O175  1  1.00856958  0.64060333  0.75186915  1
  O  O176  1  0.38600863  0.24835123  0.01641032  1
  O  O177  1  0.36314748  0.26385888  0.48942379  1
  O  O178  1  0.38803120  0.75992672  0.01423255  1
  O  O179  1  0.37684400  0.76591050  0.50566031  1
  O  O180  1  0.87484813  0.24384561  0.02082440  1
  O  O181  1  0.87884244  0.26496570  0.51374968  1
  O  O182  1  0.87408105  0.79321630  -0.07195386  1
  O  O183  1  0.85967499  0.76753093  0.52562030  1
  O  O184  1  0.14014796  0.25353384  0.48389908  1
  O  O185  1  0.13285854  0.22816420  0.98530933  1
  O  O186  1  0.11690630  0.73013178  0.53672592  1
  O  O187  1  0.12284392  0.76693665  0.98401931  1
  O  O188  1  0.60671554  0.22191920  0.52175608  1
  O  O189  1  0.62174524  0.24088106  0.98871710  1
  O  O190  1  0.65736761  0.75619929  0.51191390  1
  O  O191  1  0.61619151  0.72831453  1.00554176  1
  O  O192  1  0.48816180  0.25981142  0.13875836  1
  O  O193  1  0.46604753  0.23201964  0.62362093  1
  O  O194  1  0.50116975  0.73654773  0.13238836  1
  O  O195  1  0.48945345  0.73101313  0.60586244  1
  O  O196  1  0.99260652  0.25102278  0.13518065  1
  O  O197  1  1.00154770  0.23605681  0.62400061  1
  O  O198  1  0.96716198  0.74972421  0.11981035  1
  O  O199  1  0.99143442  0.76011073  0.64275232  1
  O  O200  1  0.01435366  0.24698405  0.36602553  1
  O  O201  1  0.04323694  0.20688497  0.85149044  1
  O  O202  1  0.00541325  0.77562701  0.40203364  1
  O  O203  1  0.02055712  0.75195644  0.86236048  1
  O  O204  1  0.48874742  0.26377470  0.36651717  1
  O  O205  1  0.50377793  0.24563074  0.86722183  1
  O  O206  1  0.49339647  0.76129822  0.37861092  1
  O  O207  1  0.44637335  0.72948283  0.85764850  1
  O  O208  1  0.26284268  0.14174499  0.47661515  1
  O  O209  1  0.24335929  0.11288620  1.02576281  1
  O  O210  1  0.24320391  0.61781494  0.46563437  1
  O  O211  1  0.27159242  0.62165707  0.97308636  1
  O  O212  1  0.71122337  0.12231261  0.52471581  1
  O  O213  1  0.74484818  0.11806420  1.00272404  1
  O  O214  1  0.77086598  0.64012589  0.48965957  1
  O  O215  1  0.73032993  0.61954604  0.98911290  1
  O  O216  1  0.26626057  0.37963237  0.00153824  1
  O  O217  1  0.25826320  0.36191917  0.49423297  1
  O  O218  1  0.22424146  0.90839178  0.04413368  1
  O  O219  1  0.25866391  0.87531019  0.49672235  1
  O  O220  1  0.75166184  0.37546865  0.00908794  1
  O  O221  1  0.73796357  0.38390011  0.52221425  1
  O  O222  1  0.74047381  0.88489884  0.02552578  1
  O  O223  1  0.75898402  0.87326773  0.49682698  1
  O  O224  1  0.12902603  0.48387930  0.23741580  1
  O  O225  1  0.11393704  0.49626196  0.73798014  1
  O  O226  1  0.11024040  0.98726711  0.24120837  1
  O  O227  1  0.12386774  0.99711351  0.76489134  1
  O  O228  1  0.63681986  0.49850408  0.23157370  1
  O  O229  1  0.58600790  0.46066925  0.77511258  1
  O  O230  1  0.63348643  1.01815604  0.25029660  1
  O  O231  1  0.64475099  0.99105692  0.78050808  1
  O  O232  1  0.36811268  -0.01184519  0.25338551  1
  O  O233  1  0.38751146  -0.03440818  0.78163539  1
  O  O234  1  0.36265447  0.49356052  0.26048754  1
  O  O235  1  0.34685857  0.44447761  0.75640973  1
  O  O236  1  0.87831846  0.02235918  0.25522298  1
  O  O237  1  0.86248466  0.00048530  0.77157912  1
  O  O238  1  0.86041937  0.48537509  0.25568969  1
  O  O239  1  0.89064128  0.50267481  0.77239127  1
  O  O240  1  0.13073067  0.36323868  0.37112124  1
  O  O241  1  0.13829157  0.34307895  0.87855167  1
  O  O242  1  0.11378844  0.87950438  0.36664016  1
  O  O243  1  0.13858241  0.87046240  0.86162333  1
  O  O244  1  0.60420960  0.37724591  0.37710348  1
  O  O245  1  0.63658599  0.35187138  0.87199195  1
  O  O246  1  0.61066290  0.87898087  0.36607371  1
  O  O247  1  0.62566675  0.88008180  0.86009221  1
  O  O248  1  0.36919413  0.13847990  0.13002024  1
  O  O249  1  0.41268999  0.07004461  0.63927440  1
  O  O250  1  0.37971728  0.63892781  0.11611573  1
  O  O251  1  0.36301821  0.64142926  0.61450484  1
  O  O252  1  0.88366405  0.14075291  0.13896096  1
  O  O253  1  0.88697584  0.14611652  0.61413381  1
  O  O254  1  0.87947853  0.60835308  0.12711489  1
  O  O255  1  0.88049528  0.64483233  0.63004883  1
  O  O256  1  0.26159925  0.26217162  0.12525198  1
  O  O257  1  0.25015074  0.23275865  0.60408174  1
  O  O258  1  0.25441467  0.73395672  0.12706573  1
  O  O259  1  0.26255741  0.77086715  0.62215347  1
  O  O260  1  0.76349201  0.26432715  0.13557907  1
  O  O261  1  0.76010903  0.23943860  0.64176437  1
  O  O262  1  0.74771839  0.76311238  0.13094189  1
  O  O263  1  0.76983327  0.75277386  0.65135199  1
  O  O264  1  0.23872529  0.24105130  0.36769378  1
  O  O265  1  0.26666657  0.22173238  0.87439510  1
  O  O266  1  0.24857352  0.73333290  0.35583813  1
  O  O267  1  0.24063525  0.74632507  0.87192025  1
  O  O268  1  0.73211434  0.27206633  0.36146097  1
  O  O269  1  0.78670690  0.24024694  0.87928072  1
  O  O270  1  0.76140145  0.76367681  0.38325132  1
  O  O271  1  0.73323939  0.73584709  0.87478574  1
  O  O272  1  -0.00089150  0.12988479  0.01740059  1
  O  O273  1  0.00610093  0.11638846  0.50133016  1
  O  O274  1  -0.00436112  0.63845309  0.01410444  1
  O  O275  1  -0.01307658  0.60746158  0.49416811  1
  O  O276  1  0.50078716  0.11670223  0.00739739  1
  O  O277  1  0.50432325  0.12125283  0.48661800  1
  O  O278  1  0.50540087  0.61066484  0.02072464  1
  O  O279  1  0.48529985  0.61096537  0.49919425  1
  O  O280  1  0.48771217  0.38282132  0.49201445  1
  O  O281  1  0.51709597  0.38106963  0.97831251  1
  O  O282  1  0.49422985  0.87576435  0.48325495  1
  O  O283  1  0.50763332  0.87845588  1.00251811  1
  O  O284  1  1.00427387  0.37456262  0.49724942  1
  O  O285  1  0.99840092  0.32515086  0.95868051  1
  O  O286  1  0.99053364  0.89975914  0.50431524  1
  O  O287  1  1.01402249  0.90299030  1.00865055  1
  O  O288  1  0.48282047  0.49243371  0.37964563  1
  O  O289  1  0.41649052  0.45061212  0.92689349  1
  O  O290  1  0.48129976  0.98853468  0.36392823  1
  O  O291  1  0.48929533  1.00357088  0.89413981  1
  O  O292  1  1.01169628  0.49792423  0.38445064  1
  O  O293  1  1.01511925  0.48533596  0.88893445  1
  O  O294  1  1.00702934  0.99614030  0.39573191  1
  O  O295  1  0.99624295  1.01623029  0.89068965  1
  O  O296  1  -0.00482944  0.02129077  0.12650909  1
  O  O297  1  -0.00941404  0.01379334  0.60660355  1
  O  O298  1  0.01831332  0.48989727  0.11350198  1
  O  O299  1  0.01866949  0.49101648  0.61553098  1
  O  O300  1  0.50290486  -0.00394319  0.11446096  1
  O  O301  1  0.45509311  0.01041436  0.63802983  1
  O  O302  1  0.51167822  0.48284164  0.12714251  1
  O  O303  1  0.49132287  0.51185388  0.60515942  1
  O  O304  1  0.24883722  0.38127300  0.24703101  1
  O  O305  1  0.28224538  0.39892619  0.76125677  1
  O  O306  1  0.23444889  0.88737950  0.26163093  1
  O  O307  1  0.24552686  0.88480346  0.73683253  1
  O  O308  1  0.74140041  0.38154993  0.25064443  1
  O  O309  1  0.73587434  0.38586622  0.73925167  1
  O  O310  1  0.73146559  0.88325965  0.24620562  1
  O  O311  1  0.74117780  0.86683751  0.77286813  1
  O  O312  1  0.24802746  0.12791961  0.25345487  1
  O  O313  1  0.26488097  0.10665533  0.75446069  1
  O  O314  1  0.23475013  0.60063478  0.25770707  1
  O  O315  1  0.26399892  0.64002586  0.76135549  1
  O  O316  1  0.76149730  0.12155026  0.25029174  1
  O  O317  1  0.80976529  0.16774765  0.85167972  1
  O  O318  1  0.75376359  0.60663189  0.24042479  1
  O  O319  1  0.69493707  0.62200544  0.77218478  1
  O  O320  1  0.36938260  0.11111275  0.36344268  1
  O  O321  1  0.37314858  0.10476173  0.87880522  1
  O  O322  1  0.36444167  0.60907244  0.36945130  1
  O  O323  1  0.33838934  0.60802732  0.92298564  1
  O  O324  1  0.87921386  0.13853341  0.36611710  1
  O  O325  1  0.87855091  0.14189814  0.87600398  1
  O  O326  1  0.89359148  0.67029562  0.31246762  1
  O  O327  1  0.83882695  0.62235551  0.86330904  1
  O  O328  1  0.14422644  0.37765731  0.10906745  1
  O  O329  1  0.14287810  0.37620488  0.62808901  1
  O  O330  1  0.11537595  0.83675555  0.15923148  1
  O  O331  1  0.13631522  0.87988813  0.63821298  1
  O  O332  1  0.63832471  0.37840266  0.11934717  1
  O  O333  1  0.58194186  0.35697268  0.66540166  1
  O  O334  1  0.62823957  0.87417188  0.14636349  1
  O  O335  1  0.67070597  0.91462982  0.65707174  1
  O  O336  1  0.11188580  0.25262508  0.25678066  1
  O  O337  1  0.17277763  0.24703668  0.75952066  1
  O  O338  1  0.10925123  0.77959894  0.22324182  1
  O  O339  1  0.11779204  0.76520884  0.75368475  1
  O  O340  1  0.61404106  0.26171487  0.24937500  1
  O  O341  1  0.64137594  0.25467733  0.77266800  1
  O  O342  1  0.62748438  0.75171495  0.25345755  1
  O  O343  1  0.61941289  0.78822292  0.73703988  1
  O  O344  1  0.38565010  0.25116586  0.24406285  1
  O  O345  1  0.37357061  0.22076423  0.71853905  1
  O  O346  1  0.37297732  0.76036219  0.23023837  1
  O  O347  1  0.38768087  0.77802651  0.71769539  1
  O  O348  1  0.88779036  0.24658800  0.24909785  1
  O  O349  1  0.88311114  0.25707742  0.73616036  1
  O  O350  1  0.88403915  0.72671938  0.26799580  1
  O  O351  1  0.89492550  0.76407958  0.75005134  1
  O  O352  1  0.36466288  0.48824643  0.48471586  1
  O  O353  1  0.43719361  0.39914069  0.97719276  1
  O  O354  1  0.37131340  0.98594504  0.47909975  1
  O  O355  1  0.39355139  0.98479390  1.00510910  1
  O  O356  1  0.89925976  0.48353522  0.51439006  1
  O  O357  1  0.87546917  0.51366832  0.96674377  1
  O  O358  1  0.84501679  0.99877614  0.52141401  1
  O  O359  1  0.88946518  1.00751642  1.00836197  1
  O  O360  1  0.11081291  0.02568921  -0.00105864  1
  O  O361  1  0.12726576  0.00187826  0.50530281  1
  O  O362  1  0.13062426  0.48733065  -0.00212568  1
  O  O363  1  0.11452328  0.49676377  0.50741248  1
  O  O364  1  0.61827068  0.01812413  -0.00850012  1
  O  O365  1  0.61902840  0.01197829  0.49916082  1
  O  O366  1  0.62957249  0.50484478  0.02062993  1
  O  O367  1  0.60567708  0.50419852  0.48956771  1
  O  O368  1  0.36389669  0.36589928  0.12466518  1
  O  O369  1  0.37627065  0.38039737  0.60597220  1
  O  O370  1  0.37557536  0.86384628  0.11174340  1
  O  O371  1  0.36677687  0.87929807  0.60492924  1
  O  O372  1  0.86671363  0.36699098  0.12628052  1
  O  O373  1  0.88081831  0.36481530  0.61764172  1
  O  O374  1  0.86092703  0.87491743  0.13962778  1
  O  O375  1  0.87852048  0.87999328  0.62157905  1
  O  O376  1  0.13719309  0.12891984  0.36748502  1
  O  O377  1  0.15920665  0.11926034  0.88523955  1
  O  O378  1  0.12029079  0.63232454  0.36154524  1
  O  O379  1  0.13529503  0.64162522  0.87029698  1
  O  O380  1  0.61882777  0.12029141  0.40267265  1
  O  O381  1  0.62717589  0.13927264  0.88736419  1
  O  O382  1  0.60662898  0.62964189  0.37961606  1
  O  O383  1  0.61001082  0.61129350  0.89761710  1
