# generated using pymatgen
data_VZnO4
_symmetry_space_group_name_H-M   'P 1'
_cell_length_a   16.92226776
_cell_length_b   16.90038477
_cell_length_c   16.89429123
_cell_angle_alpha   89.80437837
_cell_angle_beta   90.18094793
_cell_angle_gamma   89.92592411
_symmetry_Int_Tables_number   1
_chemical_formula_structural   VZnO4
_chemical_formula_sum   'V64 Zn64 O256'
_cell_volume   4831.58990554
_cell_formula_units_Z   64
loop_
 _symmetry_equiv_pos_site_id
 _symmetry_equiv_pos_as_xyz
  1  'x, y, z'
loop_
 _atom_site_type_symbol
 _atom_site_label
 _atom_site_symmetry_multiplicity
 _atom_site_fract_x
 _atom_site_fract_y
 _atom_site_fract_z
 _atom_site_occupancy
  V  V0  1  0.51601188  0.75531354  0.25307823  1
  V  V1  1  0.47273815  0.88094486  0.87401247  1
  V  V2  1  0.47958872  0.12957519  0.63508469  1
  V  V3  1  0.02766039  0.62392988  0.59136649  1
  V  V4  1  0.35677544  0.74514976  0.62048847  1
  V  V5  1  0.87183374  0.89299026  0.49142665  1
  V  V6  1  0.37050397  0.49951956  0.36734571  1
  V  V7  1  0.38253255  0.13155961  0.21939239  1
  V  V8  1  0.51640168  0.36447003  0.37936742  1
  V  V9  1  0.51942137  0.25013233  0.23939375  1
  V  V10  1  0.36860108  0.38234743  -0.01828791  1
  V  V11  1  0.74744548  0.88251911  0.61940899  1
  V  V12  1  0.13370352  0.13486356  0.50639925  1
  V  V13  1  0.74369851  0.24522648  0.01825556  1
  V  V14  1  -0.00511605  0.00904195  0.00979641  1
  V  V15  1  0.87961424  0.36287009  0.01789038  1
  V  V16  1  0.87157692  0.62984019  0.74504073  1
  V  V17  1  0.13074302  0.75504754  0.39041054  1
  V  V18  1  0.25515093  -0.00167075  0.23876052  1
  V  V19  1  0.86544006  0.74547601  0.60424792  1
  V  V20  1  0.61480884  0.00327408  0.61528547  1
  V  V21  1  0.22373071  0.51373482  0.74238639  1
  V  V22  1  0.00084771  0.37300809  0.86139862  1
  V  V23  1  -0.00658113  0.50721065  0.00507630  1
  V  V24  1  0.36348413  0.37588837  0.50919643  1
  V  V25  1  0.12670873  0.74681657  0.87472153  1
  V  V26  1  0.13562335  0.50525292  0.14218252  1
  V  V27  1  0.62530371  0.66119625  -0.00389286  1
  V  V28  1  0.47878412  0.25794733  0.76567214  1
  V  V29  1  0.25551550  0.13392483  0.37542317  1
  V  V30  1  0.74871974  0.65079175  0.87888104  1
  V  V31  1  0.36698869  0.87834886  0.49773275  1
  V  V32  1  0.11791470  0.24288490  0.85517554  1
  V  V33  1  0.25589257  0.63587066  0.37282270  1
  V  V34  1  0.87152822  0.00346966  0.86573150  1
  V  V35  1  0.00449077  0.76231465  0.73596532  1
  V  V36  1  0.04893735  0.38989472  0.37838686  1
  V  V37  1  0.13453633  0.87362815  0.23277410  1
  V  V38  1  0.13634420  0.61951762  0.00096877  1
  V  V39  1  0.00300121  0.22114467  0.25387749  1
  V  V40  1  0.37351227  0.76100883  0.13509360  1
  V  V41  1  0.24890826  0.24818179  -0.00216128  1
  V  V42  1  -0.00231926  0.87367358  0.87666827  1
  V  V43  1  0.50104328  0.61728028  0.11738029  1
  V  V44  1  0.86776602  0.34946117  0.49735582  1
  V  V45  1  0.87891715  0.72365708  0.16003376  1
  V  V46  1  0.51401467  0.00866439  -0.00249404  1
  V  V47  1  0.00604213  0.88157386  0.36591877  1
  V  V48  1  0.02372138  -0.00221831  0.51033643  1
  V  V49  1  0.37327318  0.62171942  0.76615621  1
  V  V50  1  0.86086819  0.49456762  0.86856979  1
  V  V51  1  0.61861440  0.47909681  0.63361704  1
  V  V52  1  0.25848878  0.75780867  0.00454510  1
  V  V53  1  0.50527531  0.88222997  0.37879515  1
  V  V54  1  0.51238298  0.51248485  0.49749202  1
  V  V55  1  0.62514927  0.15428316  0.50367363  1
  V  V56  1  0.50298174  0.75075306  0.74733087  1
  V  V57  1  0.63085859  0.26883213  0.86213016  1
  V  V58  1  0.88988195  0.13084614  0.73684344  1
  V  V59  1  0.11990639  0.12742981  0.00998213  1
  V  V60  1  0.74707950  0.88768309  0.13309739  1
  V  V61  1  0.74151054  0.12291108  0.86855345  1
  V  V62  1  0.86664057  0.86355132  0.00289772  1
  V  V63  1  0.62983380  0.88404905  0.75902457  1
  Zn  Zn64  1  0.18974980  0.19317024  0.18795831  1
  Zn  Zn65  1  0.18930178  0.16181958  0.69387445  1
  Zn  Zn66  1  0.18627554  0.68333001  0.19049713  1
  Zn  Zn67  1  0.19083213  0.68655314  0.68930912  1
  Zn  Zn68  1  0.71060305  0.19024694  0.22530594  1
  Zn  Zn69  1  0.68692930  0.17785323  0.69451533  1
  Zn  Zn70  1  0.67647639  0.73128525  0.15510164  1
  Zn  Zn71  1  0.69434570  0.70016040  0.68932303  1
  Zn  Zn72  1  0.33382854  0.30733332  0.31703097  1
  Zn  Zn73  1  0.29934169  0.33043408  0.81639385  1
  Zn  Zn74  1  0.31654013  0.81480207  0.31378079  1
  Zn  Zn75  1  0.30241914  0.81058527  0.80475415  1
  Zn  Zn76  1  0.88124839  0.35279468  0.28824237  1
  Zn  Zn77  1  0.82469889  0.30050477  0.81539899  1
  Zn  Zn78  1  0.81975495  0.82434682  0.30401508  1
  Zn  Zn79  1  0.81861434  0.81955880  0.80299109  1
  Zn  Zn80  1  0.19097097  0.47746506  0.45043128  1
  Zn  Zn81  1  0.18824537  0.43309101  0.92305455  1
  Zn  Zn82  1  0.19871016  0.94665899  0.42195628  1
  Zn  Zn83  1  0.16279291  0.92143162  0.97770385  1
  Zn  Zn84  1  0.66438684  0.36880349  0.49767363  1
  Zn  Zn85  1  0.69208060  0.42909050  0.95254161  1
  Zn  Zn86  1  0.67806893  0.94076227  0.43187011  1
  Zn  Zn87  1  0.68784773  0.93763561  0.94381442  1
  Zn  Zn88  1  0.29993719  0.07554985  0.06002485  1
  Zn  Zn89  1  0.34645500  0.07832765  0.51129725  1
  Zn  Zn90  1  0.31600873  0.56500212  0.06765626  1
  Zn  Zn91  1  0.31042600  0.55934141  0.56021544  1
  Zn  Zn92  1  0.80147258  0.05699595  0.05088965  1
  Zn  Zn93  1  0.80762737  0.07006041  0.55430200  1
  Zn  Zn94  1  0.80801757  0.56755196  0.06152955  1
  Zn  Zn95  1  0.81259557  0.53586081  0.58143455  1
  Zn  Zn96  1  0.45033855  0.43649555  0.19372750  1
  Zn  Zn97  1  0.44468915  0.44472316  0.68849421  1
  Zn  Zn98  1  0.43931343  0.93936359  0.18735378  1
  Zn  Zn99  1  0.43319011  0.93386665  0.67726490  1
  Zn  Zn100  1  1.00953129  0.39389916  0.17846323  1
  Zn  Zn101  1  1.00001955  0.43359642  0.65945201  1
  Zn  Zn102  1  0.94141957  0.93355597  0.18173576  1
  Zn  Zn103  1  0.93876461  0.94031729  0.68338332  1
  Zn  Zn104  1  0.07617853  0.05816667  0.31545227  1
  Zn  Zn105  1  0.06231923  0.05752905  0.81695998  1
  Zn  Zn106  1  0.04700776  0.57070474  0.32995062  1
  Zn  Zn107  1  0.04909034  0.56778427  0.81681105  1
  Zn  Zn108  1  0.52148891  0.08727124  0.34473863  1
  Zn  Zn109  1  0.55294351  0.06052996  0.80975077  1
  Zn  Zn110  1  0.52580279  0.55973395  0.30099725  1
  Zn  Zn111  1  0.57397716  0.57362867  0.80944788  1
  Zn  Zn112  1  0.43718788  0.20003578  0.45028113  1
  Zn  Zn113  1  0.45928691  0.21515647  0.96831012  1
  Zn  Zn114  1  0.43544396  0.69234314  0.43949205  1
  Zn  Zn115  1  0.44199802  0.69511736  0.93539792  1
  Zn  Zn116  1  0.94894003  0.18462146  0.43655521  1
  Zn  Zn117  1  0.93672183  0.18851263  0.93390485  1
  Zn  Zn118  1  0.94119934  0.68819040  0.41684221  1
  Zn  Zn119  1  0.93850474  0.68587912  0.93122456  1
  Zn  Zn120  1  0.07486011  0.31929125  0.05471722  1
  Zn  Zn121  1  0.02537828  0.28941411  0.54332813  1
  Zn  Zn122  1  0.05065094  0.79925636  0.06485779  1
  Zn  Zn123  1  0.05630472  0.81013972  0.56153958  1
  Zn  Zn124  1  0.56432844  0.33657246  0.05132717  1
  Zn  Zn125  1  0.52926513  0.31384298  0.57988467  1
  Zn  Zn126  1  0.55122987  0.83447007  0.06454171  1
  Zn  Zn127  1  0.55234416  0.81403084  0.56884840  1
  O  O128  1  0.12280189  0.12795309  0.10846597  1
  O  O129  1  0.14360074  0.11214671  0.60542262  1
  O  O130  1  0.12100741  0.62141064  0.10655902  1
  O  O131  1  0.12610527  0.63825266  0.61060774  1
  O  O132  1  0.67792630  0.06943295  0.23183677  1
  O  O133  1  0.62144333  0.11388952  0.62561509  1
  O  O134  1  0.62017072  0.64263541  0.10362928  1
  O  O135  1  0.63382320  0.66208703  0.58727772  1
  O  O136  1  0.38583909  0.38713018  0.38011524  1
  O  O137  1  0.37964025  0.38637087  0.88336958  1
  O  O138  1  0.38798904  0.86094552  0.38798422  1
  O  O139  1  0.37373356  0.88089618  0.86361895  1
  O  O140  1  0.85376407  0.35132289  0.39744865  1
  O  O141  1  0.87751521  0.38345830  0.87855873  1
  O  O142  1  0.89117457  0.87364876  0.38303747  1
  O  O143  1  0.87292009  0.88643727  0.88659095  1
  O  O144  1  0.25726185  0.01662497  0.35127694  1
  O  O145  1  0.19158213  -0.05754583  0.79693851  1
  O  O146  1  0.27257996  0.49167334  0.35230004  1
  O  O147  1  0.24527203  0.44209117  0.81765884  1
  O  O148  1  0.72257810  0.01628512  0.34975003  1
  O  O149  1  0.76359219  0.01281419  0.88784220  1
  O  O150  1  0.79757424  0.52497776  0.38996911  1
  O  O151  1  0.76080274  0.49658630  0.88736319  1
  O  O152  1  0.23545602  0.51889929  0.13450775  1
  O  O153  1  0.25597896  0.49721771  0.64892686  1
  O  O154  1  0.25233403  1.00727298  0.13677659  1
  O  O155  1  0.29950645  1.03690379  0.71072575  1
  O  O156  1  0.75611452  0.48708181  0.13605257  1
  O  O157  1  0.71185082  0.51950319  0.62312863  1
  O  O158  1  0.73739971  0.98576050  0.10902673  1
  O  O159  1  0.73698336  0.98891540  0.61854041  1
  O  O160  1  -0.01227180  0.40498647  0.28834963  1
  O  O161  1  -0.01190756  0.38537065  0.76357722  1
  O  O162  1  0.01277479  0.88869039  0.25887632  1
  O  O163  1  -0.02643051  0.87235490  0.77269731  1
  O  O164  1  0.50451653  0.36165368  0.26387676  1
  O  O165  1  0.49017274  0.35678782  0.74985215  1
  O  O166  1  0.49127299  0.86332841  0.26195174  1
  O  O167  1  0.50587326  0.87476721  0.75809682  1
  O  O168  1  0.49152701  0.13323248  0.24557379  1
  O  O169  1  0.49478203  0.13288465  0.74404027  1
  O  O170  1  0.50905016  0.64266868  0.22316405  1
  O  O171  1  0.49403355  0.64596518  0.76267563  1
  O  O172  1  1.00503142  0.12028617  0.25157503  1
  O  O173  1  0.98788842  0.10377945  0.74366926  1
  O  O174  1  0.94430268  0.61145586  0.33676943  1
  O  O175  1  0.97812084  0.64484450  0.76314491  1
  O  O176  1  0.34407713  0.23029628  -0.02962650  1
  O  O177  1  0.36715767  0.27417134  0.49996851  1
  O  O178  1  0.36064006  0.74987744  -0.00080025  1
  O  O179  1  0.36915892  0.74670969  0.51545855  1
  O  O180  1  0.87175928  0.25738284  0.00105674  1
  O  O181  1  0.91534343  0.25457489  0.52475915  1
  O  O182  1  0.88232495  0.76487814  -0.00661342  1
  O  O183  1  0.88307719  0.75468414  0.50088485  1
  O  O184  1  0.11919831  0.23311681  0.50873966  1
  O  O185  1  0.12508525  0.24107835  0.99026501  1
  O  O186  1  0.13248677  0.76825076  0.49004163  1
  O  O187  1  0.12833815  0.73816462  0.99862942  1
  O  O188  1  0.61900801  0.25595236  0.51763937  1
  O  O189  1  0.64247982  0.25846625  0.98783630  1
  O  O190  1  0.62154667  0.71717978  0.53499158  1
  O  O191  1  0.62259506  0.75836132  0.98985336  1
  O  O192  1  0.53024449  0.26716850  0.14119119  1
  O  O193  1  0.48614560  0.23900327  0.65166271  1
  O  O194  1  0.48959944  0.75800078  0.13209824  1
  O  O195  1  0.48518285  0.75458655  0.64383967  1
  O  O196  1  1.01985582  0.27692216  0.14915186  1
  O  O197  1  1.07796970  0.34838963  0.63209069  1
  O  O198  1  0.97188448  0.75554410  0.13009232  1
  O  O199  1  0.98091583  0.71844764  0.62022698  1
  O  O200  1  0.00096942  0.24538445  0.35540145  1
  O  O201  1  0.00180195  0.26464686  0.87473723  1
  O  O202  1  0.01844917  0.77262955  0.38020398  1
  O  O203  1  0.00410349  0.75780523  0.86535023  1
  O  O204  1  0.49442408  0.26112056  0.37125828  1
  O  O205  1  0.52265133  0.24708690  0.87260602  1
  O  O206  1  0.49585604  0.73810548  0.35236345  1
  O  O207  1  0.49217429  0.77126309  0.86142826  1
  O  O208  1  0.24382600  0.12368127  0.48707174  1
  O  O209  1  0.22600930  0.12997867  0.98930504  1
  O  O210  1  0.23566998  0.58721840  0.46981285  1
  O  O211  1  0.23886848  0.62887433  0.99514933  1
  O  O212  1  0.72447762  0.13381526  0.51247653  1
  O  O213  1  0.76304572  0.14153290  0.98425196  1
  O  O214  1  0.76756267  0.55521400  0.44958920  1
  O  O215  1  0.73650619  0.62807533  0.99078514  1
  O  O216  1  0.25778755  0.36204417  -0.01047855  1
  O  O217  1  0.26638216  0.40086517  0.49444602  1
  O  O218  1  0.24585981  0.85794027  0.00808543  1
  O  O219  1  0.26695600  0.87899782  0.48481285  1
  O  O220  1  0.76826554  0.35662551  0.00794857  1
  O  O221  1  0.77094104  0.34583517  0.52500472  1
  O  O222  1  0.76348629  0.87393161  0.00178147  1
  O  O223  1  0.76575337  0.88735532  0.49447480  1
  O  O224  1  0.10420533  0.52690187  0.23412991  1
  O  O225  1  0.12235688  0.52043103  0.74426136  1
  O  O226  1  0.14228145  0.98842137  0.24762247  1
  O  O227  1  0.13671270  0.98670785  0.75640636  1
  O  O228  1  0.63387673  0.51553229  0.25019556  1
  O  O229  1  0.59859798  0.49984716  0.73133695  1
  O  O230  1  0.66814605  1.01704513  0.28884027  1
  O  O231  1  0.62159952  0.98775375  0.73938487  1
  O  O232  1  0.37199236  0.01939711  0.23958893  1
  O  O233  1  0.36075193  0.00109230  0.74662589  1
  O  O234  1  0.41019112  0.51224606  0.27182292  1
  O  O235  1  0.39201523  0.52400041  0.75032778  1
  O  O236  1  0.86922488  0.03667476  0.20961070  1
  O  O237  1  0.87021711  -0.00308992  0.76362260  1
  O  O238  1  0.80415258  0.47836291  0.19926903  1
  O  O239  1  0.86852784  0.51473406  0.76775936  1
  O  O240  1  0.13130111  0.33948025  0.37471290  1
  O  O241  1  0.10482444  0.36716085  0.87406994  1
  O  O242  1  0.12295089  0.87272149  0.36381839  1
  O  O243  1  0.10840233  0.85748966  0.89316741  1
  O  O244  1  0.61521277  0.36799481  0.39007106  1
  O  O245  1  0.64284888  0.36697736  0.86308905  1
  O  O246  1  0.60659634  0.86660895  0.38454592  1
  O  O247  1  0.63347711  0.88072946  0.85893462  1
  O  O248  1  0.37945792  0.13395598  0.12001665  1
  O  O249  1  0.38246826  0.11779903  0.61615817  1
  O  O250  1  0.39742534  0.63825191  0.10530535  1
  O  O251  1  0.36266759  0.63835361  0.63482689  1
  O  O252  1  0.86373804  0.08987897  0.15591172  1
  O  O253  1  0.86552590  0.11521307  0.63985629  1
  O  O254  1  0.86959364  0.62565591  0.13624251  1
  O  O255  1  0.84720693  0.63362922  0.63486147  1
  O  O256  1  0.24582091  0.24495819  0.09872435  1
  O  O257  1  0.26193814  0.25996028  0.65286286  1
  O  O258  1  0.26228833  0.73440816  0.11292717  1
  O  O259  1  0.25896526  0.76247971  0.63984953  1
  O  O260  1  0.73675027  0.22685505  0.11699448  1
  O  O261  1  0.75859116  0.27659316  0.66180155  1
  O  O262  1  0.78189484  0.76468158  0.13197303  1
  O  O263  1  0.75618207  0.76942800  0.61853985  1
  O  O264  1  0.25759492  0.23284057  0.35678759  1
  O  O265  1  0.22087724  0.26084774  0.87428786  1
  O  O266  1  0.24782490  0.74349452  0.37966843  1
  O  O267  1  0.23296798  0.75532469  0.88669074  1
  O  O268  1  0.79553107  0.16626152  0.36967366  1
  O  O269  1  0.74368170  0.23992105  0.87532801  1
  O  O270  1  0.73181445  0.75524639  0.36694422  1
  O  O271  1  0.75903109  0.74860941  0.87901182  1
  O  O272  1  0.00052852  0.11649673  -0.00068921  1
  O  O273  1  0.02208192  0.10556077  0.48932208  1
  O  O274  1  0.00021903  0.61032538  -0.00651922  1
  O  O275  1  0.00565612  0.62229542  0.49396794  1
  O  O276  1  0.48753874  0.10663579  -0.01279932  1
  O  O277  1  0.50864495  0.14303224  0.52924297  1
  O  O278  1  0.51842161  0.63515183  0.00001989  1
  O  O279  1  0.50834539  0.61128218  0.48168294  1
  O  O280  1  0.49029372  0.37877114  0.48975605  1
  O  O281  1  0.45264165  0.32696910  1.01717218  1
  O  O282  1  0.49071726  0.85454377  0.48503443  1
  O  O283  1  0.49418235  0.88178755  0.97759614  1
  O  O284  1  0.99644500  0.37308228  0.46751791  1
  O  O285  1  0.99037402  0.38302895  0.98873697  1
  O  O286  1  0.99343080  0.88445987  0.49314045  1
  O  O287  1  0.98919896  0.88461572  0.99411319  1
  O  O288  1  0.50365713  0.48479713  0.38559942  1
  O  O289  1  0.52064897  0.48084015  0.87791159  1
  O  O290  1  0.49890960  0.98198696  0.37286761  1
  O  O291  1  0.49816729  0.98773867  0.87855914  1
  O  O292  1  1.08947749  0.48649264  0.39666987  1
  O  O293  1  0.98640993  0.49172545  0.88280687  1
  O  O294  1  1.01221019  0.98538281  0.38687711  1
  O  O295  1  0.98657119  0.99199691  0.88185533  1
  O  O296  1  0.00133954  -0.00276009  0.10746743  1
  O  O297  1  0.00607048  -0.00970178  0.60925269  1
  O  O298  1  0.00769302  0.49769653  0.10474674  1
  O  O299  1  -0.00959928  0.54264166  0.63968361  1
  O  O300  1  0.48852250  -0.01877982  0.09352145  1
  O  O301  1  0.50869895  0.01241085  0.63344044  1
  O  O302  1  0.50083318  0.51789642  0.12696890  1
  O  O303  1  0.50924068  0.50442595  0.60719981  1
  O  O304  1  0.29289603  0.37270389  0.21350821  1
  O  O305  1  0.25849309  0.32303875  0.69335023  1
  O  O306  1  0.24834507  0.88776270  0.24921337  1
  O  O307  1  0.22375635  0.88637550  0.75054079  1
  O  O308  1  0.78556742  0.41700881  0.24541900  1
  O  O309  1  0.76301758  0.33422489  0.71023975  1
  O  O310  1  0.76462147  0.89174690  0.23420699  1
  O  O311  1  0.73657125  0.87079106  0.73726555  1
  O  O312  1  0.26707293  0.12384646  0.24850664  1
  O  O313  1  0.27268171  0.09939232  0.75287469  1
  O  O314  1  0.24112748  0.62387615  0.27330965  1
  O  O315  1  0.25828957  0.61549077  0.76085679  1
  O  O316  1  0.80704980  0.16705454  0.29186197  1
  O  O317  1  0.76463980  0.12589995  0.76548720  1
  O  O318  1  0.67848604  0.56579276  0.29157787  1
  O  O319  1  0.75499346  0.63907202  0.76763908  1
  O  O320  1  0.36736196  0.12189359  0.39892755  1
  O  O321  1  0.32733318  0.03103931  0.90013213  1
  O  O322  1  0.36259911  0.61787942  0.38108727  1
  O  O323  1  0.37649157  0.63035014  0.86627693  1
  O  O324  1  0.85183559  0.12238920  0.40842790  1
  O  O325  1  0.87559175  0.11319263  0.86631663  1
  O  O326  1  0.75945267  0.70281422  0.41150520  1
  O  O327  1  0.85924155  0.61816467  0.87553723  1
  O  O328  1  0.12142671  0.40234407  0.12523129  1
  O  O329  1  0.14236859  0.38656271  0.58922500  1
  O  O330  1  0.11887294  0.86823892  0.13339265  1
  O  O331  1  0.05908815  0.82460428  0.67286382  1
  O  O332  1  0.60907639  0.43606191  0.02538320  1
  O  O333  1  0.62026449  0.37745116  0.62136631  1
  O  O334  1  0.64971835  0.85020365  0.12080522  1
  O  O335  1  0.62615014  0.88576912  0.62650467  1
  O  O336  1  0.10849871  0.25294444  0.23713643  1
  O  O337  1  0.12203422  0.23231976  0.75571006  1
  O  O338  1  0.13957013  0.77058995  0.25643016  1
  O  O339  1  0.12040943  0.73400125  0.77178410  1
  O  O340  1  0.61551973  0.23345755  0.26754113  1
  O  O341  1  0.62370587  0.24707442  0.76160588  1
  O  O342  1  0.61545576  0.75482152  0.24971385  1
  O  O343  1  0.61040729  0.76476388  0.74133051  1
  O  O344  1  0.39091737  0.23562189  0.24533446  1
  O  O345  1  0.38203862  0.24969041  0.78665870  1
  O  O346  1  0.37156059  0.74558299  0.23584077  1
  O  O347  1  0.37699420  0.74306894  0.74510821  1
  O  O348  1  0.90431454  0.25598294  0.23223140  1
  O  O349  1  0.88838922  0.23092808  0.75315762  1
  O  O350  1  0.87692031  0.73663250  0.26217194  1
  O  O351  1  0.88169139  0.75229524  0.72934663  1
  O  O352  1  0.39057485  0.49973324  0.48667189  1
  O  O353  1  0.36918875  0.47649696  1.01808308  1
  O  O354  1  0.38849875  0.97580808  0.51064482  1
  O  O355  1  0.35002256  1.00988694  0.96818747  1
  O  O356  1  0.88594050  0.45962694  0.53676131  1
  O  O357  1  0.88135327  0.49289447  0.99515114  1
  O  O358  1  0.88473737  0.99387424  0.49930775  1
  O  O359  1  0.88448360  0.99834637  0.99084331  1
  O  O360  1  0.10712648  0.01487273  -0.01348306  1
  O  O361  1  0.12456947  -0.01108696  0.50235705  1
  O  O362  1  0.12034377  0.50995853  -0.00998680  1
  O  O363  1  0.12052398  0.45426315  0.55950050  1
  O  O364  1  0.61448637  0.00454096  -0.00359495  1
  O  O365  1  0.61887050  0.00268045  0.51406907  1
  O  O366  1  0.51466005  0.48247974  -0.04841361  1
  O  O367  1  0.61401616  0.48644967  0.50627576  1
  O  O368  1  0.34541700  0.38405736  0.15934287  1
  O  O369  1  0.38415396  0.39015283  0.60815793  1
  O  O370  1  0.37039958  0.85988003  0.12754616  1
  O  O371  1  0.37896708  0.85939574  0.61173294  1
  O  O372  1  0.89493855  0.37441526  0.11372708  1
  O  O373  1  0.89899930  0.40183179  0.60144466  1
  O  O374  1  0.86737469  0.88599741  0.10935770  1
  O  O375  1  0.87028811  0.87072211  0.60701609  1
  O  O376  1  0.14570010  0.11934226  0.38495601  1
  O  O377  1  0.10754544  0.14053228  0.88198872  1
  O  O378  1  0.12703033  0.65396685  0.37227383  1
  O  O379  1  0.11190288  0.63839933  0.89127317  1
  O  O380  1  0.60403624  0.13257606  0.40648402  1
  O  O381  1  0.64138968  0.11961683  0.86689802  1
  O  O382  1  0.63847800  0.60465058  0.34678054  1
  O  O383  1  0.63866170  0.62951367  0.88399679  1
