# generated using pymatgen
data_VZnO4
_symmetry_space_group_name_H-M   'P 1'
_cell_length_a   16.81952466
_cell_length_b   17.03815162
_cell_length_c   16.87978223
_cell_angle_alpha   90.12932665
_cell_angle_beta   90.28078338
_cell_angle_gamma   89.50554766
_symmetry_Int_Tables_number   1
_chemical_formula_structural   VZnO4
_chemical_formula_sum   'V64 Zn64 O256'
_cell_volume   4837.05007674
_cell_formula_units_Z   64
loop_
 _symmetry_equiv_pos_site_id
 _symmetry_equiv_pos_as_xyz
  1  'x, y, z'
loop_
 _atom_site_type_symbol
 _atom_site_label
 _atom_site_symmetry_multiplicity
 _atom_site_fract_x
 _atom_site_fract_y
 _atom_site_fract_z
 _atom_site_occupancy
  V  V0  1  0.11575562  0.36836868  0.76097905  1
  V  V1  1  0.73247746  0.24264906  -0.01086977  1
  V  V2  1  0.61004667  0.62416880  0.49841569  1
  V  V3  1  0.38435168  0.13948569  0.25970912  1
  V  V4  1  0.61680672  0.48706783  0.14237877  1
  V  V5  1  0.87941177  0.36157109  -0.00199952  1
  V  V6  1  0.75757506  0.87383190  0.62233002  1
  V  V7  1  0.11763312  0.74125749  0.37455051  1
  V  V8  1  0.25498922  0.37630563  0.11532315  1
  V  V9  1  0.87045322  0.89260013  -0.01256566  1
  V  V10  1  0.24987112  0.49912195  0.26663805  1
  V  V11  1  0.15625652  0.86123706  0.23359263  1
  V  V12  1  0.37681503  -0.02554664  0.36671194  1
  V  V13  1  0.48273327  0.39638634  0.38515709  1
  V  V14  1  0.50519241  0.12212737  0.12015142  1
  V  V15  1  -0.01956007  0.73584493  0.73435868  1
  V  V16  1  -0.01228045  0.62279727  0.13289175  1
  V  V17  1  0.86952331  0.38022694  0.49094539  1
  V  V18  1  0.61769939  0.87506407  0.74590110  1
  V  V19  1  0.21841925  0.02597564  0.21368222  1
  V  V20  1  0.12141545  -0.01237056  0.60690757  1
  V  V21  1  0.87419001  0.89572708  0.49120507  1
  V  V22  1  0.61630729  0.00889901  0.61936271  1
  V  V23  1  0.23978220  -0.01061588  0.74016110  1
  V  V24  1  0.12473286  0.49719027  0.13205092  1
  V  V25  1  0.12969902  0.63717889  0.00151126  1
  V  V26  1  0.13037014  0.25579660  0.38329637  1
  V  V27  1  -0.00417078  0.50143330  -0.00791509  1
  V  V28  1  0.39317805  0.60921980  0.24477794  1
  V  V29  1  0.23124875  0.13083376  0.88122648  1
  V  V30  1  0.24094763  0.51263014  0.77886638  1
  V  V31  1  0.50810930  0.79309432  0.23987792  1
  V  V32  1  0.24795863  0.12157733  0.38199839  1
  V  V33  1  0.66626230  0.91267824  0.24173088  1
  V  V34  1  0.00259057  0.12000983  0.60855728  1
  V  V35  1  0.61404887  0.11290643  -0.01928107  1
  V  V36  1  0.26936556  0.25307816  0.51240365  1
  V  V37  1  0.76313195  0.00419883  0.75122834  1
  V  V38  1  0.62786690  0.35164777  0.27316039  1
  V  V39  1  0.85501486  0.50708318  0.87208848  1
  V  V40  1  -0.00873766  0.89471780  0.36499941  1
  V  V41  1  0.76491100  0.74186878  0.50397811  1
  V  V42  1  0.64392838  0.73727634  0.35628667  1
  V  V43  1  0.75405436  0.36583310  0.12988343  1
  V  V44  1  0.00476241  0.50658699  0.51722978  1
  V  V45  1  0.37316131  0.12867103  0.73081395  1
  V  V46  1  0.13116181  0.74251543  0.85253904  1
  V  V47  1  0.74484935  0.37370582  0.63575600  1
  V  V48  1  0.63799761  0.75275340  0.88222062  1
  V  V49  1  0.62824339  0.59624374  -0.01524072  1
  V  V50  1  0.38263953  0.76194164  0.59710849  1
  V  V51  1  0.87632654  0.24665701  0.60844306  1
  V  V52  1  0.49376200  0.74975187  0.76796199  1
  V  V53  1  0.37153115  -0.00627969  0.88510335  1
  V  V54  1  0.00738271  0.23659530  0.24528886  1
  V  V55  1  0.48853513  -0.01137517  0.49951025  1
  V  V56  1  -0.02491404  0.75094196  0.25335274  1
  V  V57  1  0.25046612  0.39655193  0.62471410  1
  V  V58  1  0.87893936  0.13895197  0.76077264  1
  V  V59  1  0.86214209  0.74483185  0.09937429  1
  V  V60  1  0.37544356  0.25325498  0.11186286  1
  V  V61  1  0.24237628  0.78611642  0.48956788  1
  V  V62  1  0.00070693  0.87674770  0.86719010  1
  V  V63  1  0.00570789  0.38399598  0.37068119  1
  Zn  Zn64  1  0.16731866  0.20852096  0.17337247  1
  Zn  Zn65  1  0.18143873  0.17842969  0.68815821  1
  Zn  Zn66  1  0.17819209  0.68049526  0.19944588  1
  Zn  Zn67  1  0.21734205  0.69608537  0.67901940  1
  Zn  Zn68  1  0.69030838  0.18786457  0.17658361  1
  Zn  Zn69  1  0.69185394  0.18709305  0.67892421  1
  Zn  Zn70  1  0.66193694  0.69113754  0.15556850  1
  Zn  Zn71  1  0.67213800  0.69543456  0.67300847  1
  Zn  Zn72  1  0.30700532  0.31851827  0.31332366  1
  Zn  Zn73  1  0.26853567  0.28834907  0.78586327  1
  Zn  Zn74  1  0.31385597  0.77937115  0.29433574  1
  Zn  Zn75  1  0.31026102  0.81663084  0.82291966  1
  Zn  Zn76  1  0.83117631  0.30608499  0.30220622  1
  Zn  Zn77  1  0.81363521  0.31873288  0.81529754  1
  Zn  Zn78  1  0.80291267  0.81853695  0.31531589  1
  Zn  Zn79  1  0.81401393  0.81150857  0.80795798  1
  Zn  Zn80  1  0.18750272  0.43725254  0.45066918  1
  Zn  Zn81  1  0.18218432  0.43501774  0.94038670  1
  Zn  Zn82  1  0.17088602  0.94682009  0.41418677  1
  Zn  Zn83  1  0.20531573  0.91491028  0.90459601  1
  Zn  Zn84  1  0.64569160  0.41153235  0.47996199  1
  Zn  Zn85  1  0.68746644  0.42772876  0.94343829  1
  Zn  Zn86  1  0.64999804  0.90688823  0.44584985  1
  Zn  Zn87  1  0.67870845  0.93940213  0.92765630  1
  Zn  Zn88  1  0.31202300  0.07635038  0.05664038  1
  Zn  Zn89  1  0.30772827  0.04966996  0.55685238  1
  Zn  Zn90  1  0.30479696  0.58135662  0.08661005  1
  Zn  Zn91  1  0.39006696  0.60227952  0.71079972  1
  Zn  Zn92  1  0.80433975  0.06922865  -0.07254839  1
  Zn  Zn93  1  0.80200367  0.06682462  0.56265032  1
  Zn  Zn94  1  0.80204226  0.55513438  0.06445801  1
  Zn  Zn95  1  0.77206620  0.53090795  0.52899078  1
  Zn  Zn96  1  0.43989912  0.42301330  0.20469348  1
  Zn  Zn97  1  0.39973258  0.40871060  0.73261299  1
  Zn  Zn98  1  0.43620418  0.94736641  0.18670482  1
  Zn  Zn99  1  0.42693263  0.93555340  0.68691815  1
  Zn  Zn100  1  0.94280382  0.42556109  0.18271070  1
  Zn  Zn101  1  0.93443393  0.43445038  0.69140976  1
  Zn  Zn102  1  0.88267907  0.92784895  0.19394539  1
  Zn  Zn103  1  0.94721019  0.93288017  0.68522402  1
  Zn  Zn104  1  0.04728453  0.05339405  0.20204720  1
  Zn  Zn105  1  0.06056968  0.06053037  0.80034565  1
  Zn  Zn106  1  0.05766305  0.56266240  0.31359674  1
  Zn  Zn107  1  0.06299831  0.56310714  0.80371455  1
  Zn  Zn108  1  0.55948099  0.06029968  0.31741546  1
  Zn  Zn109  1  0.54309167  0.05118833  0.80832627  1
  Zn  Zn110  1  0.57925166  0.55014323  0.31445726  1
  Zn  Zn111  1  0.56583761  0.57398669  0.80106525  1
  Zn  Zn112  1  0.43297790  0.16989492  0.46238561  1
  Zn  Zn113  1  0.41816220  0.17242988  0.93258820  1
  Zn  Zn114  1  0.43977303  0.69797497  0.41346764  1
  Zn  Zn115  1  0.52007129  0.74067402  1.04474860  1
  Zn  Zn116  1  0.94843286  0.18945673  0.43252217  1
  Zn  Zn117  1  0.94737527  0.17411046  0.95470303  1
  Zn  Zn118  1  0.94305397  0.69471157  0.45190225  1
  Zn  Zn119  1  0.94273481  0.68298050  0.92176428  1
  Zn  Zn120  1  0.06215725  0.31950755  0.06648533  1
  Zn  Zn121  1  0.06694932  0.31575278  0.56762688  1
  Zn  Zn122  1  0.04520571  0.81600340  0.06353471  1
  Zn  Zn123  1  0.05097602  0.81343362  0.55833847  1
  Zn  Zn124  1  0.56360325  0.30491596  0.07111647  1
  Zn  Zn125  1  0.54325476  0.31396170  0.57354777  1
  Zn  Zn126  1  0.69891158  0.83001749  0.06121264  1
  Zn  Zn127  1  0.56470883  0.80808119  0.55659705  1
  O  O128  1  0.15225023  0.09693145  0.16411087  1
  O  O129  1  0.10513854  0.12209380  0.62300852  1
  O  O130  1  0.11168442  0.61838679  0.12056749  1
  O  O131  1  0.14969371  0.62624610  0.58557789  1
  O  O132  1  0.60865863  0.13157673  0.11648850  1
  O  O133  1  0.62163514  0.10667093  0.63617110  1
  O  O134  1  0.63365459  0.58445011  0.15888950  1
  O  O135  1  0.61730246  0.63008713  0.60036124  1
  O  O136  1  0.38502738  0.37328397  0.38006941  1
  O  O137  1  0.41227133  0.33179661  0.85199806  1
  O  O138  1  0.36692863  0.87857647  0.35729294  1
  O  O139  1  0.32519677  0.89653002  0.90287451  1
  O  O140  1  0.89254585  0.36198713  0.38401347  1
  O  O141  1  0.87104584  0.38337091  0.89529336  1
  O  O142  1  0.87522723  0.88062503  0.38433888  1
  O  O143  1  0.88445839  0.86751525  0.88019101  1
  O  O144  1  0.26569241  0.01418092  0.38404556  1
  O  O145  1  0.24430895  0.01116369  0.85539809  1
  O  O146  1  0.23987643  0.49295730  0.36575155  1
  O  O147  1  0.24402516  0.50886877  0.87926646  1
  O  O148  1  0.70144671  0.08714746  0.42526137  1
  O  O149  1  0.74252315  0.00345160  0.85386618  1
  O  O150  1  0.81769717  0.47756045  0.29644378  1
  O  O151  1  0.75376391  0.49834496  0.88694631  1
  O  O152  1  0.24371125  0.49226411  0.12921922  1
  O  O153  1  0.25067051  0.49234923  0.61596876  1
  O  O154  1  0.27128557  1.00254476  0.13226374  1
  O  O155  1  0.23338321  1.00014085  0.62711457  1
  O  O156  1  0.73915491  0.47157584  0.11842008  1
  O  O157  1  0.76051188  0.47248772  0.62607584  1
  O  O158  1  0.82020786  1.08564593  0.20902967  1
  O  O159  1  0.73749765  0.99494450  0.63623214  1
  O  O160  1  0.00283110  0.37327260  0.26644130  1
  O  O161  1  0.01610089  0.36885012  0.74118771  1
  O  O162  1  -0.03050917  0.87004809  0.25983557  1
  O  O163  1  -0.00936690  0.85756702  0.75986493  1
  O  O164  1  0.51442021  0.36337208  0.28228153  1
  O  O165  1  0.57237330  0.42319755  0.76407404  1
  O  O166  1  0.52876768  0.89237406  0.23867686  1
  O  O167  1  0.51302190  0.86152599  0.73532623  1
  O  O168  1  0.49028126  0.12677142  0.24304782  1
  O  O169  1  0.47409267  0.12103369  0.75414674  1
  O  O170  1  0.49322140  0.60428860  0.25476885  1
  O  O171  1  0.49488507  0.64255264  0.74650655  1
  O  O172  1  1.00446545  0.13852331  0.26157889  1
  O  O173  1  0.97869366  0.11744180  0.73744792  1
  O  O174  1  0.99604206  0.63220530  0.24001513  1
  O  O175  1  0.99821578  0.63658177  0.74913548  1
  O  O176  1  0.36982344  0.24353630  0.01317358  1
  O  O177  1  0.37130427  0.25261181  0.50734738  1
  O  O178  1  0.42522378  0.79828241  0.01411828  1
  O  O179  1  0.35729472  0.75177674  0.49066672  1
  O  O180  1  0.88229564  0.26022339  -0.00214176  1
  O  O181  1  0.87996839  0.25683966  0.50545836  1
  O  O182  1  0.87239150  0.74121867  -0.00017875  1
  O  O183  1  0.86692568  0.76623625  0.50007234  1
  O  O184  1  0.13089482  0.24882972  0.48862199  1
  O  O185  1  0.09708432  0.24765044  0.97534101  1
  O  O186  1  0.12393484  0.76875846  0.47959205  1
  O  O187  1  0.11351886  0.73574051  1.01117647  1
  O  O188  1  0.57940833  0.23103392  0.48493090  1
  O  O189  1  0.62875082  0.24070230  0.99548990  1
  O  O190  1  0.63702940  0.73801555  0.48665644  1
  O  O191  1  0.62433186  0.77400848  0.98446715  1
  O  O192  1  0.48297282  0.24613139  0.12542581  1
  O  O193  1  0.53092024  0.26760392  0.68093286  1
  O  O194  1  0.55497577  0.74906451  0.15542653  1
  O  O195  1  0.48472380  0.74933468  0.61364608  1
  O  O196  1  1.04910385  0.24280943  0.14679760  1
  O  O197  1  0.98705659  0.23611743  0.62055245  1
  O  O198  1  0.97820962  0.74149338  0.13177639  1
  O  O199  1  0.99968488  0.75135223  0.63503979  1
  O  O200  1  0.01460030  0.25539900  0.36840965  1
  O  O201  1  0.04344384  0.23726055  0.92077941  1
  O  O202  1  -0.00166436  0.75591067  0.37057137  1
  O  O203  1  0.00756563  0.75171045  0.85801478  1
  O  O204  1  0.53337376  0.23246005  0.42307808  1
  O  O205  1  0.45987210  0.27430898  0.85851543  1
  O  O206  1  0.53091377  0.75474779  0.34054800  1
  O  O207  1  0.51793791  0.75381410  0.86545258  1
  O  O208  1  0.26780960  0.13625906  0.48632020  1
  O  O209  1  0.23535478  0.11370427  0.98263968  1
  O  O210  1  0.19028830  0.62125389  0.52478647  1
  O  O211  1  0.22955644  0.62438042  1.01241846  1
  O  O212  1  0.73124620  0.12923379  0.48721128  1
  O  O213  1  0.73313148  0.13330392  0.99203620  1
  O  O214  1  0.76821644  0.64242799  0.51176011  1
  O  O215  1  0.71657537  0.62621943  1.02525663  1
  O  O216  1  0.25597054  0.38455181  0.01546780  1
  O  O217  1  0.24935803  0.36175643  0.51402437  1
  O  O218  1  0.15314954  0.96041323  0.01320008  1
  O  O219  1  0.24661255  0.88265714  0.48177466  1
  O  O220  1  0.75833645  0.35906536  0.00687873  1
  O  O221  1  0.76806503  0.37654053  0.49028134  1
  O  O222  1  0.76302396  0.87864716  -0.01820561  1
  O  O223  1  0.75472174  0.87062050  0.50464778  1
  O  O224  1  0.13336187  0.50729458  0.24070425  1
  O  O225  1  0.13280999  0.48771765  0.75570518  1
  O  O226  1  0.12280254  0.97858363  0.24246043  1
  O  O227  1  0.13260715  1.00305694  0.73112403  1
  O  O228  1  0.63090521  0.46572246  0.24984205  1
  O  O229  1  0.62823091  0.47701729  0.78519756  1
  O  O230  1  0.64212400  1.00853782  0.25677862  1
  O  O231  1  0.62071631  0.98537977  0.74131725  1
  O  O232  1  0.37990992  0.01068177  0.26585329  1
  O  O233  1  0.35684878  0.00134371  0.74915042  1
  O  O234  1  0.36646455  0.50413958  0.25221381  1
  O  O235  1  0.35103361  0.51010392  0.75740933  1
  O  O236  1  0.85821681  0.03400563  0.25483248  1
  O  O237  1  0.86469185  0.00171784  0.74657062  1
  O  O238  1  0.86901829  0.50266163  0.24893718  1
  O  O239  1  0.87426419  0.48035343  0.77574802  1
  O  O240  1  0.11602810  0.36483196  0.38485358  1
  O  O241  1  0.12416044  0.37577361  0.86415888  1
  O  O242  1  0.10678897  0.87101460  0.35115838  1
  O  O243  1  0.11244130  0.85056006  0.88188348  1
  O  O244  1  0.64771237  0.36290527  0.37058962  1
  O  O245  1  0.57909149  0.37327900  0.91502761  1
  O  O246  1  0.65210939  0.86259331  0.34124372  1
  O  O247  1  0.62930822  0.86550938  0.85421124  1
  O  O248  1  0.37763129  0.14022516  0.13519757  1
  O  O249  1  0.37228756  0.10794352  0.63013872  1
  O  O250  1  0.37983414  0.63852242  0.14674764  1
  O  O251  1  0.33951416  0.68148693  0.64853742  1
  O  O252  1  0.92961645  0.07346805  0.08871422  1
  O  O253  1  0.87667807  0.13425312  0.62587610  1
  O  O254  1  0.87633029  0.63236525  0.11630804  1
  O  O255  1  0.81590968  0.60833521  0.70175153  1
  O  O256  1  0.25483933  0.26796639  0.12924375  1
  O  O257  1  0.24582351  0.23459883  0.60698984  1
  O  O258  1  0.23037468  0.78162235  0.21171424  1
  O  O259  1  0.23245798  0.76724481  0.58930249  1
  O  O260  1  0.74998259  0.25548116  0.10417811  1
  O  O261  1  0.76705353  0.25133381  0.62114802  1
  O  O262  1  0.75903906  0.74576429  0.11805498  1
  O  O263  1  0.74475472  0.76305882  0.61301111  1
  O  O264  1  0.24694567  0.24787745  0.38659140  1
  O  O265  1  0.25580652  0.22952581  0.88063162  1
  O  O266  1  0.22741974  0.75690944  0.37889905  1
  O  O267  1  0.23063476  0.74903994  0.87140968  1
  O  O268  1  0.79590877  0.20822234  0.36149101  1
  O  O269  1  0.75078577  0.25791309  0.89072966  1
  O  O270  1  0.74960649  0.75349393  0.39455050  1
  O  O271  1  0.73649096  0.74878995  0.86672324  1
  O  O272  1  -0.01341865  0.11180084  0.04780843  1
  O  O273  1  -0.01026299  0.11812277  0.50874634  1
  O  O274  1  0.00168523  0.61274316  0.01135533  1
  O  O275  1  -0.01083775  0.60492157  0.49484989  1
  O  O276  1  0.50534117  0.13566992  0.00685336  1
  O  O277  1  0.50241496  0.08872712  0.49994717  1
  O  O278  1  0.54431107  0.63316351  0.02689480  1
  O  O279  1  0.51076389  0.63234754  0.47752362  1
  O  O280  1  0.52427204  0.37924464  0.48188201  1
  O  O281  1  0.52710270  0.37050935  0.97096830  1
  O  O282  1  0.53446026  0.88927109  0.48225937  1
  O  O283  1  0.43633895  0.87167357  1.04567745  1
  O  O284  1  0.99255788  0.38083045  0.49422958  1
  O  O285  1  0.98765323  0.38881474  1.01258584  1
  O  O286  1  0.98269108  0.87923499  0.48383024  1
  O  O287  1  0.98383005  0.86882624  0.98289092  1
  O  O288  1  0.49679930  0.49392343  0.37621118  1
  O  O289  1  0.49709153  0.45752095  0.77668041  1
  O  O290  1  0.48511500  0.99500781  0.38066392  1
  O  O291  1  0.46918118  0.97763796  0.85936266  1
  O  O292  1  1.00353376  0.48565962  0.37813780  1
  O  O293  1  0.99811779  0.50369312  0.89219858  1
  O  O294  1  0.99470022  0.98935251  0.36286273  1
  O  O295  1  1.01133586  0.97532468  0.86155162  1
  O  O296  1  -0.03589040  0.01014795  0.13159414  1
  O  O297  1  0.00635763  0.01017716  0.62498150  1
  O  O298  1  0.00367160  0.50590704  0.12528485  1
  O  O299  1  -0.01168402  0.49839509  0.61612784  1
  O  O300  1  0.49019684  0.02515186  0.12100789  1
  O  O301  1  0.50798001  -0.01817427  0.61314035  1
  O  O302  1  0.51635118  0.47165214  0.13390782  1
  O  O303  1  0.50897182  0.49575217  0.60524290  1
  O  O304  1  0.25608798  0.39318373  0.23983402  1
  O  O305  1  0.24521008  0.39613866  0.74666353  1
  O  O306  1  0.24362009  0.91822840  0.25203362  1
  O  O307  1  0.24634524  0.88984644  0.75271861  1
  O  O308  1  0.74949268  0.35276125  0.23579088  1
  O  O309  1  0.74165999  0.35835527  0.73530954  1
  O  O310  1  0.77319667  0.90217456  0.24191905  1
  O  O311  1  0.74626576  0.88587604  0.74118705  1
  O  O312  1  0.26763993  0.11363716  0.26459892  1
  O  O313  1  0.25294820  0.11204860  0.75085193  1
  O  O314  1  0.25440191  0.60312164  0.24316346  1
  O  O315  1  0.23031011  0.61010760  0.75262032  1
  O  O316  1  0.75652429  0.11873510  0.24446335  1
  O  O317  1  0.76507921  0.11473533  0.74257475  1
  O  O318  1  0.80993732  0.62601991  0.33057999  1
  O  O319  1  0.75126302  0.61888845  0.73649515  1
  O  O320  1  0.37574931  0.13316294  0.36588337  1
  O  O321  1  0.35739587  0.10844358  0.86072321  1
  O  O322  1  0.37005751  0.67696396  0.32522651  1
  O  O323  1  0.41103723  0.53877959  0.93453843  1
  O  O324  1  0.85054634  0.15519055  0.37215117  1
  O  O325  1  0.88394104  0.13024255  0.86790492  1
  O  O326  1  0.87071848  0.61298359  0.37091010  1
  O  O327  1  0.87172861  0.60576474  0.87968865  1
  O  O328  1  0.13841577  0.38792408  0.12082996  1
  O  O329  1  0.14259678  0.36891001  0.63682932  1
  O  O330  1  0.11124047  0.86504104  0.14300982  1
  O  O331  1  0.11013173  0.89041445  0.61845935  1
  O  O332  1  0.63618396  0.36836564  0.13354081  1
  O  O333  1  0.64794918  0.36439869  0.59370449  1
  O  O334  1  0.65023796  0.88767524  0.14394573  1
  O  O335  1  0.63680252  0.87662735  0.63285891  1
  O  O336  1  0.12901001  0.25017628  0.27580659  1
  O  O337  1  0.15056691  0.26767824  0.75296585  1
  O  O338  1  0.09698393  0.75594820  0.26061662  1
  O  O339  1  0.12665262  0.73981928  0.75140452  1
  O  O340  1  0.63145777  0.25316619  0.25210021  1
  O  O341  1  0.59705997  0.25726318  0.72155289  1
  O  O342  1  0.67614327  0.73250107  0.26245451  1
  O  O343  1  0.61919311  0.75642887  0.75374938  1
  O  O344  1  0.36814241  0.23963845  0.24751026  1
  O  O345  1  0.35556546  0.22869707  0.73769875  1
  O  O346  1  0.41008664  0.79367859  0.22307826  1
  O  O347  1  0.39410161  0.76580917  0.76983967  1
  O  O348  1  0.90845666  0.25814659  0.23259746  1
  O  O349  1  0.87275335  0.23944771  0.74676717  1
  O  O350  1  0.87165387  0.74949169  0.24631622  1
  O  O351  1  0.87870501  0.74512351  0.74288012  1
  O  O352  1  0.44497578  0.53152480  0.59591193  1
  O  O353  1  0.39520723  0.51463682  1.00196119  1
  O  O354  1  0.38262220  0.98286151  0.48916268  1
  O  O355  1  0.37934975  1.02035582  0.98234763  1
  O  O356  1  0.87943894  0.48347209  0.49657032  1
  O  O357  1  0.88201776  0.49501096  0.99697808  1
  O  O358  1  0.86068148  0.99378450  0.49543771  1
  O  O359  1  0.86926796  0.99136843  0.98521555  1
  O  O360  1  0.10023865  0.01195541  0.00821067  1
  O  O361  1  0.12756919  0.00045658  0.50670930  1
  O  O362  1  0.11034028  0.50597503  0.01075795  1
  O  O363  1  0.10499716  0.49244215  0.50471584  1
  O  O364  1  0.62584779  0.01418672  -0.00529603  1
  O  O365  1  0.63167715  -0.00293262  0.51846440  1
  O  O366  1  0.62128545  0.49658295  0.01168761  1
  O  O367  1  0.65609691  0.52701001  0.48411489  1
  O  O368  1  0.36895579  0.36276466  0.13117958  1
  O  O369  1  0.35270941  0.36850814  0.63992049  1
  O  O370  1  0.37946949  0.89206730  0.09646718  1
  O  O371  1  0.36746327  0.85631454  0.62629926  1
  O  O372  1  0.86391676  0.37637156  0.11423815  1
  O  O373  1  0.86941079  0.35989950  0.61543487  1
  O  O374  1  0.87376613  0.85850686  0.09753965  1
  O  O375  1  0.86554198  0.88641529  0.61063460  1
  O  O376  1  0.14807162  0.13318829  0.37746564  1
  O  O377  1  0.13013627  0.12486129  0.86018228  1
  O  O378  1  0.11484955  0.64240934  0.37270544  1
  O  O379  1  0.11364125  0.63719777  0.89139858  1
  O  O380  1  0.64428017  0.12500434  0.38620707  1
  O  O381  1  0.60296662  0.11965320  0.88133913  1
  O  O382  1  0.63389765  0.63465941  0.37524185  1
  O  O383  1  0.62289404  0.63579404  0.88201408  1
