# generated using pymatgen
data_VZnO4
_symmetry_space_group_name_H-M   'P 1'
_cell_length_a   16.92383969
_cell_length_b   16.98738553
_cell_length_c   16.91775007
_cell_angle_alpha   89.52850902
_cell_angle_beta   89.74778040
_cell_angle_gamma   90.46494419
_symmetry_Int_Tables_number   1
_chemical_formula_structural   VZnO4
_chemical_formula_sum   'V64 Zn64 O256'
_cell_volume   4863.34085984
_cell_formula_units_Z   64
loop_
 _symmetry_equiv_pos_site_id
 _symmetry_equiv_pos_as_xyz
  1  'x, y, z'
loop_
 _atom_site_type_symbol
 _atom_site_label
 _atom_site_symmetry_multiplicity
 _atom_site_fract_x
 _atom_site_fract_y
 _atom_site_fract_z
 _atom_site_occupancy
  V  V0  1  0.89206790  0.13606320  0.25049730  1
  V  V1  1  0.62580216  -0.00290489  0.11098233  1
  V  V2  1  0.89288620  0.61762257  0.24067371  1
  V  V3  1  0.73580187  0.63622321  0.86221796  1
  V  V4  1  0.61947295  0.23858256  0.37566873  1
  V  V5  1  0.01223777  0.36310583  0.37397400  1
  V  V6  1  0.75417782  0.23785227  0.49659313  1
  V  V7  1  0.35198789  0.48865078  0.86422448  1
  V  V8  1  -0.01946040  0.00818431  -0.01101009  1
  V  V9  1  0.47591253  -0.02533630  -0.00063233  1
  V  V10  1  0.26701730  0.11170940  0.86141702  1
  V  V11  1  0.00726715  0.50234554  0.49533692  1
  V  V12  1  0.13792753  0.36254815  0.24144812  1
  V  V13  1  0.13011242  0.50595107  0.62358579  1
  V  V14  1  0.01011037  0.87542025  0.85683434  1
  V  V15  1  0.88797896  0.50176031  0.87626432  1
  V  V16  1  0.77118742  0.87937303  0.63391782  1
  V  V17  1  0.61204173  0.49350835  0.61428385  1
  V  V18  1  0.11583739  0.01333479  0.13679905  1
  V  V19  1  0.75577236  0.49725256  0.73271450  1
  V  V20  1  0.24985786  0.36793399  0.62980678  1
  V  V21  1  0.11356237  0.38342912  0.75364569  1
  V  V22  1  0.64749030  0.38251235  0.26478069  1
  V  V23  1  0.52483722  0.63070316  0.16818724  1
  V  V24  1  0.74328295  0.67517117  0.39879081  1
  V  V25  1  -0.00894169  0.23333870  0.75542640  1
  V  V26  1  0.87112017  0.38067875  0.51859600  1
  V  V27  1  0.87861289  0.64425456  0.73822591  1
  V  V28  1  0.48511248  0.64670250  0.62809455  1
  V  V29  1  -0.01874201  0.88361436  0.38705420  1
  V  V30  1  0.25145000  0.73731647  0.48615309  1
  V  V31  1  0.13579259  0.74404038  0.87581577  1
  V  V32  1  0.89116940  0.83703642  0.01294745  1
  V  V33  1  0.76681328  -0.00410738  0.26112561  1
  V  V34  1  0.64000468  0.64145447  0.02925917  1
  V  V35  1  0.24499508  0.87962102  0.12913328  1
  V  V36  1  0.52602610  0.86868215  0.36504073  1
  V  V37  1  -0.01866121  0.01758517  0.50730375  1
  V  V38  1  0.12656387  0.11218676  -0.00836827  1
  V  V39  1  0.35814470  0.62331094  0.74768106  1
  V  V40  1  0.87115420  0.22819050  0.63375239  1
  V  V41  1  0.73448758  0.26593350  0.00785417  1
  V  V42  1  -0.00173631  0.63650443  0.61873126  1
  V  V43  1  0.50175484  0.37680525  0.88855371  1
  V  V44  1  0.24775824  0.88286504  0.61504081  1
  V  V45  1  0.55234894  0.03191305  0.50499366  1
  V  V46  1  0.38214275  0.51125882  0.38356503  1
  V  V47  1  0.11984902  0.01405638  0.62465292  1
  V  V48  1  0.39589379  0.36879334  0.50535154  1
  V  V49  1  0.25727732  0.50190340  0.25119595  1
  V  V50  1  0.11182285  0.73589175  0.37858515  1
  V  V51  1  0.20681224  0.25371323  0.49795766  1
  V  V52  1  0.60649910  0.66829783  0.51203526  1
  V  V53  1  0.10637961  0.86690858  0.25493118  1
  V  V54  1  0.41024025  0.20945568  0.63411268  1
  V  V55  1  0.49091368  0.13014033  0.09952206  1
  V  V56  1  0.12526589  0.24889496  0.87204192  1
  V  V57  1  0.22819046  0.12936445  0.37052563  1
  V  V58  1  0.87006762  0.48946090  0.36398946  1
  V  V59  1  0.61780810  0.37151120  0.75126205  1
  V  V60  1  0.26178346  0.25826989  0.00083975  1
  V  V61  1  0.89261054  0.26042233  0.11332737  1
  V  V62  1  0.35679945  0.91205061  0.46551533  1
  V  V63  1  0.76942511  0.00752980  0.76344071  1
  Zn  Zn64  1  0.18875378  0.17950447  0.18819764  1
  Zn  Zn65  1  0.18232234  0.18694939  0.69014185  1
  Zn  Zn66  1  0.28751368  0.70002514  0.20598497  1
  Zn  Zn67  1  0.18922400  0.69437004  0.67098331  1
  Zn  Zn68  1  0.67306865  0.17958049  0.19623388  1
  Zn  Zn69  1  0.69362228  0.18839281  0.70048068  1
  Zn  Zn70  1  0.71421554  0.55854200  0.20950986  1
  Zn  Zn71  1  0.70469328  0.67916466  0.65450829  1
  Zn  Zn72  1  0.30941637  0.29481818  0.33216771  1
  Zn  Zn73  1  0.31987845  0.30167700  0.80819803  1
  Zn  Zn74  1  0.28625051  0.83248603  0.30880264  1
  Zn  Zn75  1  0.27617568  0.78631294  0.78069121  1
  Zn  Zn76  1  0.82029401  0.30789959  0.30752585  1
  Zn  Zn77  1  0.81902073  0.32251930  0.81179989  1
  Zn  Zn78  1  0.82999778  0.80758799  0.28231194  1
  Zn  Zn79  1  0.81200984  0.82679192  0.81926214  1
  Zn  Zn80  1  0.19546101  0.43877360  0.43561293  1
  Zn  Zn81  1  0.17816688  0.43246767  0.94343331  1
  Zn  Zn82  1  0.17017282  0.94982298  0.43727802  1
  Zn  Zn83  1  0.22603542  0.90788712  0.91184709  1
  Zn  Zn84  1  0.69099366  0.42901365  0.44306697  1
  Zn  Zn85  1  0.69739779  0.44614726  0.92834473  1
  Zn  Zn86  1  0.72907658  0.88002686  0.42437592  1
  Zn  Zn87  1  0.76599738  0.97425573  0.97334917  1
  Zn  Zn88  1  0.30879707  0.06332064  0.06428137  1
  Zn  Zn89  1  0.29190657  0.07498319  0.55271672  1
  Zn  Zn90  1  0.36522637  0.51189905  0.08400424  1
  Zn  Zn91  1  0.31620593  0.55729390  0.55328070  1
  Zn  Zn92  1  0.78947941  0.10813205  0.10744348  1
  Zn  Zn93  1  0.76546559  0.02728438  0.53915656  1
  Zn  Zn94  1  0.81448325  0.56541854  0.05329426  1
  Zn  Zn95  1  0.81190241  0.58059166  0.54504890  1
  Zn  Zn96  1  0.47429315  0.47280968  0.23936206  1
  Zn  Zn97  1  0.43478213  0.43870407  0.69079089  1
  Zn  Zn98  1  0.44085930  0.93865919  0.18487452  1
  Zn  Zn99  1  0.41579394  0.99532002  0.61224509  1
  Zn  Zn100  1  0.94570377  0.42311218  0.18658960  1
  Zn  Zn101  1  0.94331663  0.44792614  0.69184704  1
  Zn  Zn102  1  0.93706561  0.94471583  0.17916368  1
  Zn  Zn103  1  0.93181527  0.95486002  0.68880068  1
  Zn  Zn104  1  0.04850272  0.07057095  0.32771794  1
  Zn  Zn105  1  0.06855225  0.05417831  0.81164025  1
  Zn  Zn106  1  0.06618434  0.55235209  0.29204557  1
  Zn  Zn107  1  0.06836466  0.57740552  0.80793710  1
  Zn  Zn108  1  0.63180153  0.02831634  0.34049011  1
  Zn  Zn109  1  0.61338669  0.02362620  0.88949459  1
  Zn  Zn110  1  0.57723962  0.56144280  0.34817929  1
  Zn  Zn111  1  0.55757334  0.55634432  0.79350145  1
  Zn  Zn112  1  0.43159310  0.18517032  0.44464568  1
  Zn  Zn113  1  0.47364014  0.16541880  0.89451855  1
  Zn  Zn114  1  0.41065799  0.71796348  0.36119170  1
  Zn  Zn115  1  0.46148886  0.57828807  0.93728740  1
  Zn  Zn116  1  0.92655450  0.18794827  0.43681068  1
  Zn  Zn117  1  0.96247060  0.21986008  0.96894767  1
  Zn  Zn118  1  0.94112599  0.67931418  0.42173919  1
  Zn  Zn119  1  0.93094017  0.71319676  0.90017122  1
  Zn  Zn120  1  0.10644593  0.28555379  0.09055644  1
  Zn  Zn121  1  0.04775132  0.31861686  0.57620873  1
  Zn  Zn122  1  0.09974184  0.85057914  0.03013828  1
  Zn  Zn123  1  0.06667054  0.82328064  0.55359671  1
  Zn  Zn124  1  0.55608688  0.31320128  0.06339278  1
  Zn  Zn125  1  0.57374669  0.30013768  0.57013847  1
  Zn  Zn126  1  0.55511137  0.81041287  0.07968781  1
  Zn  Zn127  1  0.50292034  0.84081236  0.56088842  1
  O  O128  1  0.11842179  0.12074768  0.10282508  1
  O  O129  1  0.13088264  0.11421679  0.62061825  1
  O  O130  1  0.18850800  0.63228108  0.05125369  1
  O  O131  1  0.11454189  0.61132471  0.62852758  1
  O  O132  1  0.59630433  0.10556872  0.14337819  1
  O  O133  1  0.58751870  0.10275515  0.69448212  1
  O  O134  1  0.62997676  0.61960433  0.13852491  1
  O  O135  1  0.60480063  0.62415202  0.62481100  1
  O  O136  1  0.37992954  0.35222526  0.40706773  1
  O  O137  1  0.38571191  0.38323545  0.86238835  1
  O  O138  1  0.34444638  0.91178675  0.36544483  1
  O  O139  1  0.41574424  0.78426386  0.89919391  1
  O  O140  1  0.88909530  0.38141873  0.38391341  1
  O  O141  1  0.87324753  0.40164617  0.87029240  1
  O  O142  1  0.88409232  0.86721690  0.36904026  1
  O  O143  1  0.90366607  0.84060668  0.88597494  1
  O  O144  1  0.23988644  0.03183455  0.39327050  1
  O  O145  1  0.25505982  0.01181021  0.87464019  1
  O  O146  1  0.27045545  0.49609879  0.37500313  1
  O  O147  1  0.25254421  0.48360691  0.87067456  1
  O  O148  1  0.75013744  -0.01157475  0.36305998  1
  O  O149  1  0.72135548  -0.00510518  0.86781824  1
  O  O150  1  0.77343004  0.49655287  0.38985331  1
  O  O151  1  0.75850247  0.51872100  0.85551273  1
  O  O152  1  0.28071552  0.48396584  0.15197880  1
  O  O153  1  0.23262546  0.48895419  0.61095503  1
  O  O154  1  0.22041360  1.00807474  0.12426294  1
  O  O155  1  0.23291428  0.99385401  0.60690996  1
  O  O156  1  0.71936105  0.49420481  0.08776265  1
  O  O157  1  0.74911706  0.51262965  0.62992112  1
  O  O158  1  0.73006697  1.01617233  0.07924515  1
  O  O159  1  0.75177786  0.99118755  0.65457280  1
  O  O160  1  0.01935338  0.38451337  0.26706882  1
  O  O161  1  0.01153685  0.37238125  0.74759432  1
  O  O162  1  0.00163280  0.89111019  0.26301965  1
  O  O163  1  -0.00360261  0.88994195  0.76008097  1
  O  O164  1  0.53406529  0.37577537  0.22142515  1
  O  O165  1  0.51478535  0.37757806  0.74910635  1
  O  O166  1  0.49463960  0.90897782  0.27677064  1
  O  O167  1  0.41893543  0.91436802  0.78474186  1
  O  O168  1  0.41338450  0.11030169  0.29402034  1
  O  O169  1  0.53943269  0.09565533  0.75312039  1
  O  O170  1  0.52613846  0.63295432  0.26755440  1
  O  O171  1  0.48806529  0.62434692  0.73250550  1
  O  O172  1  0.99246510  0.13390769  0.25167279  1
  O  O173  1  0.99987738  0.13627262  0.75683349  1
  O  O174  1  0.98696145  0.58947411  0.21482539  1
  O  O175  1  0.98985580  0.62435648  0.72924098  1
  O  O176  1  0.35745210  0.24870783  0.00517295  1
  O  O177  1  0.38340550  0.25670391  0.53924453  1
  O  O178  1  0.35138664  0.69362679  0.03330925  1
  O  O179  1  0.34726595  0.76073903  0.46002592  1
  O  O180  1  0.85991912  0.24837003  0.00980017  1
  O  O181  1  0.87544647  0.26159978  0.51904368  1
  O  O182  1  0.89921320  0.73471303  0.00801042  1
  O  O183  1  0.83255749  0.66052321  0.45409052  1
  O  O184  1  0.10900401  0.24895803  0.51260578  1
  O  O185  1  0.11599072  0.24005380  0.97908902  1
  O  O186  1  0.12848355  0.74939045  0.48364165  1
  O  O187  1  0.12086611  0.75351089  0.97879011  1
  O  O188  1  0.64650375  0.25385714  0.49372806  1
  O  O189  1  0.63464627  0.25434607  1.00240584  1
  O  O190  1  0.59660182  0.76631040  0.51984306  1
  O  O191  1  0.63397257  0.74065752  1.03004899  1
  O  O192  1  0.50515850  0.22837964  0.11856162  1
  O  O193  1  0.50915683  0.22872968  0.63619046  1
  O  O194  1  0.49678324  0.71927221  0.13127653  1
  O  O195  1  0.47797560  0.74603532  0.62402273  1
  O  O196  1  0.99357877  0.26492961  0.08616671  1
  O  O197  1  0.98437666  0.25294954  0.64516323  1
  O  O198  1  1.02696245  0.68351198  0.09323879  1
  O  O199  1  1.01140961  0.73258537  0.60617355  1
  O  O200  1  -0.00557247  0.26666078  0.38378332  1
  O  O201  1  0.00611220  0.25115825  0.86360579  1
  O  O202  1  0.00484944  0.76643087  0.38627028  1
  O  O203  1  0.02657473  0.76084663  0.85423183  1
  O  O204  1  0.52120780  0.24210190  0.38875419  1
  O  O205  1  0.49648422  0.27696371  0.87726732  1
  O  O206  1  0.51212074  0.76915287  0.35881144  1
  O  O207  1  0.46505571  0.73488746  0.91746795  1
  O  O208  1  0.24459759  0.15529388  0.49391640  1
  O  O209  1  0.23758619  0.13078720  0.98566620  1
  O  O210  1  0.25295767  0.63824733  0.50155870  1
  O  O211  1  0.21872326  0.59195895  0.99994267  1
  O  O212  1  0.77044197  0.14126269  0.49943816  1
  O  O213  1  0.74623122  0.14315952  0.95998633  1
  O  O214  1  0.71398691  0.65232185  0.52899061  1
  O  O215  1  0.73445379  0.62632031  0.97641667  1
  O  O216  1  0.24373590  0.35834099  -0.00568259  1
  O  O217  1  0.24249779  0.36196954  0.51264232  1
  O  O218  1  0.22131212  0.88697210  0.02733587  1
  O  O219  1  0.25109859  0.88049855  0.48864979  1
  O  O220  1  0.74528463  0.36517699  -0.00584609  1
  O  O221  1  0.76971571  0.36972698  0.50640651  1
  O  O222  1  0.79566703  0.86546481  -0.00788328  1
  O  O223  1  0.74577223  0.90586271  0.53177426  1
  O  O224  1  0.14969292  0.48331052  0.26373367  1
  O  O225  1  0.11942761  0.49115462  0.73800624  1
  O  O226  1  0.10240579  1.01697126  0.23530071  1
  O  O227  1  0.11593707  0.99908080  0.72624250  1
  O  O228  1  0.64120082  0.49330578  0.27204081  1
  O  O229  1  0.63825833  0.49722438  0.73140549  1
  O  O230  1  0.66328422  0.99831648  0.23062856  1
  O  O231  1  0.58129813  0.85880991  0.86885144  1
  O  O232  1  0.38663147  0.04421494  0.28307433  1
  O  O233  1  0.41747365  -0.02085420  0.75114130  1
  O  O234  1  0.36633227  0.48027846  0.27726354  1
  O  O235  1  0.36684387  0.50062776  0.75568693  1
  O  O236  1  0.87617735  0.02267831  0.23663224  1
  O  O237  1  0.86917623  0.01053135  0.76997594  1
  O  O238  1  0.87288170  0.48042034  0.26204727  1
  O  O239  1  0.86512423  0.50939638  0.74757015  1
  O  O240  1  0.11279587  0.37625501  0.38468111  1
  O  O241  1  0.12898958  0.36603948  0.85723253  1
  O  O242  1  0.10687147  0.87862613  0.36553978  1
  O  O243  1  0.11204726  0.88090925  0.87643182  1
  O  O244  1  0.63298971  0.36526163  0.36993293  1
  O  O245  1  0.61586349  0.39220317  0.86053184  1
  O  O246  1  0.62657430  0.87645128  0.37314715  1
  O  O247  1  0.59579999  0.78933654  0.85752785  1
  O  O248  1  0.39176785  0.11545575  0.12681707  1
  O  O249  1  0.38168076  0.10697097  0.62852192  1
  O  O250  1  0.34125667  0.65071515  0.09346649  1
  O  O251  1  0.38393642  0.60974293  0.62932500  1
  O  O252  1  0.89245027  0.14729576  0.13000102  1
  O  O253  1  0.87793189  0.13402030  0.63154184  1
  O  O254  1  0.81962315  0.59156351  0.16410854  1
  O  O255  1  0.88740826  0.62454675  0.62608863  1
  O  O256  1  0.22109657  0.24276589  0.09859812  1
  O  O257  1  0.23537655  0.26321051  0.61669088  1
  O  O258  1  0.23917340  0.77882959  0.14043230  1
  O  O259  1  0.24367335  0.76698504  0.59320275  1
  O  O260  1  0.74818720  0.22907449  0.10868656  1
  O  O261  1  0.76270285  0.24324697  0.62092706  1
  O  O262  1  0.76501202  0.74735653  0.12149669  1
  O  O263  1  0.72883046  0.78638252  0.64248767  1
  O  O264  1  0.21646725  0.25986475  0.39549144  1
  O  O265  1  0.24240047  0.24422501  0.87962925  1
  O  O266  1  0.22024565  0.75207435  0.37366348  1
  O  O267  1  0.23960162  0.79519027  0.88687893  1
  O  O268  1  0.76128208  0.25964839  0.39540048  1
  O  O269  1  0.75762259  0.25100892  0.88622585  1
  O  O270  1  0.75165223  0.77466008  0.37519975  1
  O  O271  1  0.75290695  0.73463835  0.85802153  1
  O  O272  1  0.01190845  0.11462779  -0.02053715  1
  O  O273  1  -0.00780300  0.11658903  0.49354384  1
  O  O274  1  0.03094596  0.62520390  0.05204497  1
  O  O275  1  -0.00634643  0.60859449  0.50651385  1
  O  O276  1  0.49501950  0.11772802  -0.00194110  1
  O  O277  1  0.49901031  0.11830044  0.50861533  1
  O  O278  1  0.55235718  0.61335665  -0.00988695  1
  O  O279  1  0.50823037  0.62914645  0.51852694  1
  O  O280  1  0.49385584  0.36863398  0.51782464  1
  O  O281  1  0.50950450  0.38675571  0.98869653  1
  O  O282  1  0.45986025  0.87331700  0.45858281  1
  O  O283  1  0.48223195  0.87527813  1.02153588  1
  O  O284  1  0.99061157  0.38502533  0.49756557  1
  O  O285  1  1.03293054  0.44612742  1.03339094  1
  O  O286  1  0.98953962  0.88081511  0.49083150  1
  O  O287  1  0.99429981  0.89072605  0.98848725  1
  O  O288  1  0.48676452  0.49048553  0.35986230  1
  O  O289  1  0.49325017  0.49137423  0.86381809  1
  O  O290  1  0.54279337  0.99715916  0.40764277  1
  O  O291  1  0.50299977  0.98553466  0.89948446  1
  O  O292  1  0.99956443  0.49014802  0.38928162  1
  O  O293  1  0.98705492  0.51411240  0.85792013  1
  O  O294  1  0.99268692  0.99219099  0.39170579  1
  O  O295  1  1.00015397  0.99095466  0.88191149  1
  O  O296  1  0.00906490  0.00207420  0.09807415  1
  O  O297  1  0.00484205  0.00280751  0.61578415  1
  O  O298  1  0.00258233  0.48391518  0.09492754  1
  O  O299  1  0.01070356  0.50400641  0.61345362  1
  O  O300  1  0.50032851  0.00569658  0.11231510  1
  O  O301  1  0.52041568  -0.04132152  0.57936524  1
  O  O302  1  0.46437579  0.54514923  0.14355105  1
  O  O303  1  0.51160430  0.50016143  0.62456103  1
  O  O304  1  0.24109021  0.36642601  0.26717512  1
  O  O305  1  0.23614393  0.36543660  0.73444329  1
  O  O306  1  0.21209770  0.89334689  0.24536241  1
  O  O307  1  0.27182270  0.87746812  0.71170828  1
  O  O308  1  0.74486047  0.37493323  0.24634667  1
  O  O309  1  0.74465266  0.39473470  0.75229572  1
  O  O310  1  0.78844270  0.90072659  0.23165121  1
  O  O311  1  0.75449834  0.89348563  0.75185172  1
  O  O312  1  0.24649447  0.13372577  0.26820947  1
  O  O313  1  0.24701756  0.13141129  0.76377545  1
  O  O314  1  0.25377045  0.60227708  0.24809166  1
  O  O315  1  0.26023158  0.61621581  0.72531102  1
  O  O316  1  0.76378389  0.10909176  0.22781508  1
  O  O317  1  0.73953026  0.10527980  0.75526569  1
  O  O318  1  0.75390507  0.63383551  0.30816983  1
  O  O319  1  0.76277526  0.62195221  0.74110608  1
  O  O320  1  0.34557756  0.18568647  0.37126128  1
  O  O321  1  0.36542397  0.13365493  0.87042426  1
  O  O322  1  0.38649543  0.60929361  0.38817845  1
  O  O323  1  0.37228252  0.60272686  0.85532157  1
  O  O324  1  0.86941476  0.14219806  0.35049389  1
  O  O325  1  0.77380411  0.16739231  0.88974335  1
  O  O326  1  0.90519396  0.59476478  0.34719759  1
  O  O327  1  0.87156517  0.62547670  0.84929457  1
  O  O328  1  0.13113966  0.38428013  0.14247805  1
  O  O329  1  0.12709369  0.38556753  0.63510987  1
  O  O330  1  0.11281342  0.89395898  0.13972681  1
  O  O331  1  0.14001907  0.88166761  0.61588728  1
  O  O332  1  0.59461693  0.38136897  0.15954991  1
  O  O333  1  0.62375370  0.38744700  0.63383755  1
  O  O334  1  0.61380852  0.89759925  0.12970480  1
  O  O335  1  0.57834685  0.86261698  0.71820125  1
  O  O336  1  0.12193061  0.26232206  0.23863379  1
  O  O337  1  0.10955798  0.25787148  0.75346710  1
  O  O338  1  0.10793097  0.76680502  0.26147670  1
  O  O339  1  0.16197916  0.75318907  0.76306845  1
  O  O340  1  0.63665818  0.26249911  0.26848836  1
  O  O341  1  0.63851147  0.27452248  0.74715712  1
  O  O342  1  0.72891672  0.76161269  0.18292552  1
  O  O343  1  0.58614111  0.79164601  0.72995288  1
  O  O344  1  0.37611586  0.26594110  0.21420031  1
  O  O345  1  0.37174355  0.24996980  0.71811793  1
  O  O346  1  0.35884095  0.75685598  0.26880129  1
  O  O347  1  0.36710881  0.72436379  0.75539490  1
  O  O348  1  0.87442766  0.24641020  0.22985852  1
  O  O349  1  0.88003151  0.25052666  0.74673421  1
  O  O350  1  0.88957661  0.71758600  0.24548936  1
  O  O351  1  0.87484101  0.74071338  0.74122019  1
  O  O352  1  0.37725232  0.47990088  0.49194784  1
  O  O353  1  0.37537637  0.50795820  0.97342593  1
  O  O354  1  0.36926482  1.01129741  0.48698834  1
  O  O355  1  0.37691008  0.99565346  1.00141642  1
  O  O356  1  0.88541498  0.49112198  0.49732555  1
  O  O357  1  0.87875211  0.52413011  0.97516761  1
  O  O358  1  0.88147505  1.00648551  0.51469040  1
  O  O359  1  0.88215899  1.01299821  0.99251278  1
  O  O360  1  0.12092475  0.01270659  -0.00602581  1
  O  O361  1  0.09994135  -0.00215700  0.51147128  1
  O  O362  1  0.08993884  0.48996860  -0.00357569  1
  O  O363  1  0.11397130  0.49455333  0.50924185  1
  O  O364  1  0.60187948  -0.00140375  0.00788246  1
  O  O365  1  0.64905675  0.04846947  0.52158115  1
  O  O366  1  0.66014475  0.50425630  0.03337038  1
  O  O367  1  0.63332183  0.49619960  0.51486194  1
  O  O368  1  0.37857084  0.31650291  0.16164870  1
  O  O369  1  0.35458314  0.38732391  0.61838580  1
  O  O370  1  0.34153724  0.90396908  0.14625888  1
  O  O371  1  0.36102281  0.89265006  0.58584679  1
  O  O372  1  0.87280374  0.35929896  0.12910421  1
  O  O373  1  0.88158230  0.38086011  0.61864570  1
  O  O374  1  0.90333794  0.85986030  0.11099938  1
  O  O375  1  0.87074593  0.87205461  0.63442349  1
  O  O376  1  0.12711738  0.13552097  0.37377185  1
  O  O377  1  0.13281896  0.13058376  0.87613650  1
  O  O378  1  0.09716728  0.63852509  0.36271551  1
  O  O379  1  0.13466482  0.64181264  0.87030680  1
  O  O380  1  0.63945638  0.14139552  0.36600031  1
  O  O381  1  0.57117305  0.12345034  0.83083055  1
  O  O382  1  0.63366724  0.64239462  0.40799956  1
  O  O383  1  0.63810777  0.62621288  0.84457566  1
