# generated using pymatgen
data_VZnO4
_symmetry_space_group_name_H-M   'P 1'
_cell_length_a   17.01997295
_cell_length_b   16.90421452
_cell_length_c   16.89602665
_cell_angle_alpha   89.86444247
_cell_angle_beta   89.98089046
_cell_angle_gamma   90.07676466
_symmetry_Int_Tables_number   1
_chemical_formula_structural   VZnO4
_chemical_formula_sum   'V64 Zn64 O256'
_cell_volume   4861.12531359
_cell_formula_units_Z   64
loop_
 _symmetry_equiv_pos_site_id
 _symmetry_equiv_pos_as_xyz
  1  'x, y, z'
loop_
 _atom_site_type_symbol
 _atom_site_label
 _atom_site_symmetry_multiplicity
 _atom_site_fract_x
 _atom_site_fract_y
 _atom_site_fract_z
 _atom_site_occupancy
  V  V0  1  0.12697409  0.49364422  0.63324770  1
  V  V1  1  0.72822636  0.62066928  0.37817038  1
  V  V2  1  0.85966419  0.37282109  0.49692461  1
  V  V3  1  0.86487640  0.50424678  0.36850443  1
  V  V4  1  0.65412849  0.75491703  0.85419356  1
  V  V5  1  0.88078492  -0.00820458  0.86049590  1
  V  V6  1  0.75747444  0.37030704  0.65079024  1
  V  V7  1  0.88175105  0.13443363  0.25125023  1
  V  V8  1  -0.00914516  0.62963973  0.11205968  1
  V  V9  1  0.38406020  0.83698509  0.02027851  1
  V  V10  1  0.61100992  0.77034168  0.36299879  1
  V  V11  1  0.63967366  -0.01789944  0.59422229  1
  V  V12  1  -0.00829370  0.13749925  0.12587063  1
  V  V13  1  0.00257197  0.37146662  0.36835969  1
  V  V14  1  0.46813874  0.24434314  0.22908756  1
  V  V15  1  0.62420096  0.11423064  -0.00757660  1
  V  V16  1  -0.02104165  0.38606290  0.92358215  1
  V  V17  1  0.12006968  0.13903831  0.50310636  1
  V  V18  1  0.12815813  0.49491168  0.13535274  1
  V  V19  1  0.09585710  0.26051646  0.87665090  1
  V  V20  1  0.12320539  0.75799760  0.87789917  1
  V  V21  1  -0.00689918  -0.01548836  0.50386543  1
  V  V22  1  0.87813715  -0.01182884  0.36851328  1
  V  V23  1  0.63327333  0.50011650  0.63426405  1
  V  V24  1  0.53318299  0.15494807  0.62382878  1
  V  V25  1  0.28958159  0.01999712  0.25170827  1
  V  V26  1  -0.00472133  -0.01212801  0.00771104  1
  V  V27  1  0.14818649  0.62209425  0.48676955  1
  V  V28  1  0.24985897  0.36459951  0.13444717  1
  V  V29  1  0.24617035  0.26050432  -0.00789522  1
  V  V30  1  0.75538278  0.24887161  0.02628724  1
  V  V31  1  0.14665742  0.61599910  -0.00016334  1
  V  V32  1  0.58060609  0.31804627  0.80741598  1
  V  V33  1  -0.01554642  0.12973390  0.63554197  1
  V  V34  1  0.37770441  0.61506735  0.24891129  1
  V  V35  1  0.62930497  -0.00454018  0.14040962  1
  V  V36  1  0.51236632  0.49750756  0.00679386  1
  V  V37  1  0.36501671  0.76363248  0.61872319  1
  V  V38  1  0.85496253  0.62154327  0.74255362  1
  V  V39  1  0.75614741  0.13116090  0.86691049  1
  V  V40  1  0.26956117  0.14159507  0.38253238  1
  V  V41  1  0.13759375  0.00326634  0.62112157  1
  V  V42  1  0.47907485  0.00405298  0.50084780  1
  V  V43  1  0.13502292  0.88236258  0.74281894  1
  V  V44  1  0.32392329  0.26640798  0.63261507  1
  V  V45  1  0.85987880  0.86525189  0.00653396  1
  V  V46  1  0.74834170  0.13688346  0.37812770  1
  V  V47  1  0.11676745  0.12964050  0.00124445  1
  V  V48  1  0.11686036  0.24917579  0.35602431  1
  V  V49  1  0.24903202  0.62054419  0.85226623  1
  V  V50  1  0.49367600  0.61223377  0.60104176  1
  V  V51  1  0.01105730  0.73333850  0.73373300  1
  V  V52  1  0.50204575  0.76988570  0.74991167  1
  V  V53  1  0.25348573  0.77532594  0.47948719  1
  V  V54  1  0.74403082  0.76729929  0.50137060  1
  V  V55  1  0.72873686  -0.00577989  0.74557356  1
  V  V56  1  0.85770644  0.51288066  0.89183952  1
  V  V57  1  0.38808514  0.62356276  0.75184882  1
  V  V58  1  0.01157246  0.75129408  0.26517921  1
  V  V59  1  0.49891907  0.34262774  0.36773020  1
  V  V60  1  0.38673854  0.48845337  0.88046630  1
  V  V61  1  0.00155798  0.51272676  0.49875352  1
  V  V62  1  0.86670753  0.63320455  0.24919198  1
  V  V63  1  0.48804781  0.12145015  0.10843705  1
  Zn  Zn64  1  0.20477039  0.16190062  0.17137316  1
  Zn  Zn65  1  0.12641787  0.22705170  0.67151395  1
  Zn  Zn66  1  0.18042908  0.68102655  0.19122961  1
  Zn  Zn67  1  0.18189944  0.68458901  0.67680238  1
  Zn  Zn68  1  0.71231327  0.13869603  0.17145792  1
  Zn  Zn69  1  0.70590930  0.18918430  0.68423570  1
  Zn  Zn70  1  0.65530774  0.69073347  0.17076103  1
  Zn  Zn71  1  0.67382282  0.68649373  0.67169243  1
  Zn  Zn72  1  0.30245841  0.32233740  0.32377178  1
  Zn  Zn73  1  0.25459604  0.39179656  0.71722129  1
  Zn  Zn74  1  0.28721750  0.81308150  0.27699591  1
  Zn  Zn75  1  0.31094750  0.80437064  0.81580226  1
  Zn  Zn76  1  0.82247097  0.31266136  0.30156366  1
  Zn  Zn77  1  0.77559534  0.34571217  0.85782564  1
  Zn  Zn78  1  0.83691944  0.78412627  0.35705686  1
  Zn  Zn79  1  0.83167939  0.82060649  0.77948273  1
  Zn  Zn80  1  0.16792281  0.40159909  0.48180618  1
  Zn  Zn81  1  0.18560965  0.43310397  0.92626454  1
  Zn  Zn82  1  0.28835909  0.97377120  0.46765610  1
  Zn  Zn83  1  0.17633629  0.92839455  0.97555364  1
  Zn  Zn84  1  0.66179716  0.43461450  0.44388259  1
  Zn  Zn85  1  0.68606686  0.43519720  0.95100134  1
  Zn  Zn86  1  0.69442917  0.93946442  0.41037343  1
  Zn  Zn87  1  0.68969757  0.93476627  0.92882402  1
  Zn  Zn88  1  0.29791507  0.04874730  0.04668265  1
  Zn  Zn89  1  0.34269816  0.06301075  0.62967927  1
  Zn  Zn90  1  0.31416693  0.54262086  0.05908007  1
  Zn  Zn91  1  0.29925671  0.55852421  0.58423384  1
  Zn  Zn92  1  0.81267230  0.05335379  0.05780455  1
  Zn  Zn93  1  0.81200555  0.06309814  0.55795443  1
  Zn  Zn94  1  0.79418990  0.58140932  0.06888220  1
  Zn  Zn95  1  0.81065157  0.56999985  0.55722403  1
  Zn  Zn96  1  0.43305439  0.42203119  0.17842991  1
  Zn  Zn97  1  0.44013393  0.43296882  0.70077591  1
  Zn  Zn98  1  0.44127229  0.94717404  0.16852088  1
  Zn  Zn99  1  0.51048743  0.98424447  0.72124443  1
  Zn  Zn100  1  0.96367946  0.45979985  0.20027052  1
  Zn  Zn101  1  0.91706426  0.47636553  0.67183807  1
  Zn  Zn102  1  0.93572210  0.93009533  0.18640783  1
  Zn  Zn103  1  0.95424317  0.92957882  0.69019861  1
  Zn  Zn104  1  0.04467197  0.06891375  0.32269810  1
  Zn  Zn105  1  0.05923418  0.06228679  0.81627372  1
  Zn  Zn106  1  0.05909600  0.57021736  0.31369180  1
  Zn  Zn107  1  0.05376887  0.54828250  0.82016373  1
  Zn  Zn108  1  0.55350049  0.07906871  0.31344899  1
  Zn  Zn109  1  0.55612535  0.15749408  0.81371801  1
  Zn  Zn110  1  0.55698576  0.52816334  0.31986720  1
  Zn  Zn111  1  0.57044567  0.57315691  0.82253639  1
  Zn  Zn112  1  0.42946887  0.22064145  0.48253402  1
  Zn  Zn113  1  0.43118605  0.31138347  0.93043264  1
  Zn  Zn114  1  0.43202486  0.69372275  0.43540929  1
  Zn  Zn115  1  0.61402823  0.65333227  1.00287308  1
  Zn  Zn116  1  0.93151484  0.18534881  0.44618392  1
  Zn  Zn117  1  0.92702847  0.18366819  0.94029019  1
  Zn  Zn118  1  0.93853200  0.69005669  0.44737360  1
  Zn  Zn119  1  0.93455303  0.69292206  0.92299518  1
  Zn  Zn120  1  0.05628508  0.31466200  0.07405318  1
  Zn  Zn121  1  0.03572784  0.31973761  0.55938884  1
  Zn  Zn122  1  0.06455582  0.80554219  0.06472856  1
  Zn  Zn123  1  0.08001127  0.80942115  0.55901089  1
  Zn  Zn124  1  0.55947980  0.29472045  0.03918446  1
  Zn  Zn125  1  0.56295887  0.34639142  0.56946671  1
  Zn  Zn126  1  0.57726608  0.82167209  0.04665774  1
  Zn  Zn127  1  0.55153218  0.81109705  0.54465136  1
  O  O128  1  0.10427639  0.12733740  0.11140251  1
  O  O129  1  0.11922741  0.11982252  0.61722271  1
  O  O130  1  0.12408277  0.62041612  0.11084146  1
  O  O131  1  0.13525516  0.60212770  0.60774014  1
  O  O132  1  0.61746753  0.11440722  0.11111008  1
  O  O133  1  0.63247447  0.13913720  0.60984898  1
  O  O134  1  0.61177209  0.56237668  0.16362578  1
  O  O135  1  0.60289288  0.61149416  0.60994640  1
  O  O136  1  0.40261268  0.36645338  0.36078950  1
  O  O137  1  0.37602267  0.39110577  0.86390415  1
  O  O138  1  0.40822568  0.85234245  0.31410665  1
  O  O139  1  0.35611036  0.85144343  0.92114774  1
  O  O140  1  0.87960921  0.38832175  0.37804591  1
  O  O141  1  0.87676549  0.39437931  0.88997942  1
  O  O142  1  0.87148472  0.88948113  0.36790433  1
  O  O143  1  0.86919165  0.88929455  0.87754024  1
  O  O144  1  0.27855312  0.03069151  0.37075046  1
  O  O145  1  0.26434685  -0.00812470  0.95447229  1
  O  O146  1  0.25952932  0.41595487  0.41393475  1
  O  O147  1  0.27376031  0.52053789  0.88326247  1
  O  O148  1  0.77592420  0.01388045  0.37731949  1
  O  O149  1  0.75540979  0.00538614  0.85877559  1
  O  O150  1  0.76135097  0.50488994  0.37360892  1
  O  O151  1  0.75965706  0.49487076  0.87823325  1
  O  O152  1  0.23522927  0.48530000  0.12009662  1
  O  O153  1  0.23238596  0.48527239  0.64495166  1
  O  O154  1  0.25312720  1.05041238  0.15474875  1
  O  O155  1  0.23526432  1.01586426  0.62110788  1
  O  O156  1  0.75714700  0.47317329  0.13028270  1
  O  O157  1  0.73417859  0.50402253  0.61796202  1
  O  O158  1  0.73249601  1.01864324  0.13235603  1
  O  O159  1  0.73991244  1.01105805  0.63245599  1
  O  O160  1  -0.00739118  0.37632911  0.26756491  1
  O  O161  1  -0.03137959  0.35813351  0.73441542  1
  O  O162  1  -0.00235992  0.84836995  0.23609878  1
  O  O163  1  0.02717384  0.85774746  0.75029465  1
  O  O164  1  0.49625928  0.35000944  0.23743080  1
  O  O165  1  0.52436834  0.38026789  0.75310840  1
  O  O166  1  0.46522357  0.87322392  0.27190214  1
  O  O167  1  0.50146207  0.86860327  0.73145646  1
  O  O168  1  0.49811402  0.13622232  0.22325418  1
  O  O169  1  0.50712183  0.11542656  0.72049711  1
  O  O170  1  0.48197544  0.59844075  0.25869571  1
  O  O171  1  0.48972952  0.63757502  0.74507235  1
  O  O172  1  0.99735174  0.11808840  0.23368151  1
  O  O173  1  1.00208988  0.11779835  0.73387343  1
  O  O174  1  0.98732764  0.63245209  0.24621256  1
  O  O175  1  1.02506481  0.63310162  0.74645427  1
  O  O176  1  0.34358154  0.25115476  -0.02565241  1
  O  O177  1  0.33861337  0.27456961  0.53375026  1
  O  O178  1  0.41468462  0.74113030  0.01266968  1
  O  O179  1  0.35618079  0.74533895  0.50361892  1
  O  O180  1  0.85353128  0.23502717  0.00930353  1
  O  O181  1  0.87688438  0.27440314  0.49721750  1
  O  O182  1  0.88039413  0.76766175  -0.01400977  1
  O  O183  1  0.84668682  0.74702929  0.47139879  1
  O  O184  1  0.11720898  0.23982557  0.50393144  1
  O  O185  1  0.10728527  0.24121142  1.00068219  1
  O  O186  1  0.15082648  0.73544369  0.50314919  1
  O  O187  1  0.11766853  0.72651848  0.98159469  1
  O  O188  1  0.65264304  0.25976346  0.49980505  1
  O  O189  1  0.64362094  0.22847085  1.00285229  1
  O  O190  1  0.63322323  0.75725248  0.47858295  1
  O  O191  1  0.63542887  0.77148557  0.96385250  1
  O  O192  1  0.49421096  0.23766227  0.11979444  1
  O  O193  1  0.51855683  0.25608840  0.62427864  1
  O  O194  1  0.56944927  0.71996403  0.09721773  1
  O  O195  1  0.48468939  0.73419914  0.61471970  1
  O  O196  1  0.98802174  0.23631249  0.12324584  1
  O  O197  1  1.01351603  0.23447134  0.62882115  1
  O  O198  1  1.01087173  0.73080097  0.13387254  1
  O  O199  1  1.02165003  0.74481352  0.63357512  1
  O  O200  1  0.00206106  0.26421797  0.38263442  1
  O  O201  1  -0.01523078  0.27316712  0.89482600  1
  O  O202  1  -0.00787328  0.74916609  0.36610124  1
  O  O203  1  0.02142462  0.73897471  0.85917325  1
  O  O204  1  0.51360410  0.24296887  0.33138954  1
  O  O205  1  0.51428667  0.25782958  0.86525193  1
  O  O206  1  0.51250407  0.75283355  0.38721038  1
  O  O207  1  0.49473454  0.76059424  0.84602716  1
  O  O208  1  0.22325225  0.12267280  0.48240430  1
  O  O209  1  0.22057219  0.13980871  1.00280232  1
  O  O210  1  0.24796308  0.60983994  0.49206024  1
  O  O211  1  0.24637300  0.62331439  1.00406737  1
  O  O212  1  0.76968698  0.13233472  0.47860521  1
  O  O213  1  0.74509901  0.12794253  0.98935270  1
  O  O214  1  0.74507436  0.62036056  0.47979070  1
  O  O215  1  0.70487032  0.64435348  1.07898564  1
  O  O216  1  0.23160115  0.36421738  0.00965206  1
  O  O217  1  0.33180789  0.45689532  0.52086342  1
  O  O218  1  0.28967883  0.80592474  0.04249364  1
  O  O219  1  0.24489337  0.87422002  0.49441158  1
  O  O220  1  0.74569882  0.34827388  -0.00311702  1
  O  O221  1  0.76012074  0.38772591  0.48523556  1
  O  O222  1  0.76109999  0.87957294  -0.00125176  1
  O  O223  1  0.74910889  0.86650194  0.48703715  1
  O  O224  1  0.12570233  0.51576974  0.23434502  1
  O  O225  1  0.09605297  0.48649818  0.72758244  1
  O  O226  1  0.11232274  0.98026597  0.26083441  1
  O  O227  1  0.12020179  0.99128805  0.74181378  1
  O  O228  1  0.61731541  0.50939140  0.21560379  1
  O  O229  1  0.61665444  0.51640985  0.73291460  1
  O  O230  1  0.61141599  1.00615615  0.23952928  1
  O  O231  1  0.62828546  0.99836415  0.73768085  1
  O  O232  1  0.38826887  0.01703987  0.24026210  1
  O  O233  1  0.38653083  -0.00617331  0.71851247  1
  O  O234  1  0.37615612  0.50737515  0.24894613  1
  O  O235  1  0.38294388  0.51785305  0.76345068  1
  O  O236  1  0.89558213  0.00390321  0.26568749  1
  O  O237  1  0.87888575  -0.00327690  0.75940554  1
  O  O238  1  0.88395264  0.51140941  0.26357250  1
  O  O239  1  0.87856413  0.51683714  0.76853814  1
  O  O240  1  0.10965108  0.36254716  0.38353473  1
  O  O241  1  0.08626700  0.36992973  0.90098135  1
  O  O242  1  0.12083808  0.91479816  0.29367814  1
  O  O243  1  0.13233317  0.85947167  0.88273170  1
  O  O244  1  0.65055903  0.29083603  0.43311671  1
  O  O245  1  0.65330082  0.36671979  0.86112788  1
  O  O246  1  0.62635347  0.87026712  0.35323943  1
  O  O247  1  0.62906713  0.85989203  0.86640080  1
  O  O248  1  0.39293225  0.10830333  0.08516932  1
  O  O249  1  0.35203883  0.17197603  0.66113084  1
  O  O250  1  0.37587534  0.60885632  0.14352736  1
  O  O251  1  0.37743532  0.62506854  0.63711759  1
  O  O252  1  0.88348168  0.11217857  0.13910656  1
  O  O253  1  0.88629218  0.12631642  0.62208566  1
  O  O254  1  0.88337462  0.61984502  0.13894512  1
  O  O255  1  0.87997941  0.60020446  0.64167938  1
  O  O256  1  0.23433365  0.25654681  0.10952433  1
  O  O257  1  0.22448088  0.28072208  0.65942434  1
  O  O258  1  0.25834949  0.75864325  0.18450342  1
  O  O259  1  0.26143253  0.74574677  0.61787289  1
  O  O260  1  0.74689652  0.24003500  0.12766181  1
  O  O261  1  0.76147523  0.27188365  0.63094735  1
  O  O262  1  0.74001006  0.81533974  0.17189561  1
  O  O263  1  0.73939250  0.74427585  0.59971205  1
  O  O264  1  0.22446967  0.24874513  0.37689517  1
  O  O265  1  0.20576753  0.26322639  0.89365935  1
  O  O266  1  0.26178943  0.76827189  0.37947807  1
  O  O267  1  0.23390940  0.72974263  0.86878037  1
  O  O268  1  0.76138489  0.23858102  0.36023221  1
  O  O269  1  0.76411160  0.23073880  0.86467746  1
  O  O270  1  0.72845887  0.73198043  0.37553833  1
  O  O271  1  0.75135211  0.75750581  0.83941470  1
  O  O272  1  -0.00836016  0.11726665  0.01372931  1
  O  O273  1  0.00649100  0.11815894  0.51088955  1
  O  O274  1  -0.00758040  0.63195554  0.01207370  1
  O  O275  1  0.00668883  0.61564884  0.49591575  1
  O  O276  1  0.52122570  0.12980491  -0.00089207  1
  O  O277  1  0.47950700  0.13058311  0.53534941  1
  O  O278  1  0.50980251  0.60050981  -0.00078903  1
  O  O279  1  0.47503325  0.61086670  0.50313677  1
  O  O280  1  0.50151547  0.31428966  0.46936969  1
  O  O281  1  0.50492621  0.37741872  0.98716248  1
  O  O282  1  0.49293022  0.90403615  0.49771694  1
  O  O283  1  0.48245798  0.86787696  0.99188926  1
  O  O284  1  0.98238587  0.38989578  0.48634202  1
  O  O285  1  0.97669737  0.38422799  1.02304404  1
  O  O286  1  1.00881515  0.88589184  0.51286612  1
  O  O287  1  0.99795493  0.88584005  1.00154281  1
  O  O288  1  0.57052508  0.42662005  0.36762299  1
  O  O289  1  0.49091987  0.50622043  0.87846700  1
  O  O290  1  0.49645528  1.03590770  0.40625666  1
  O  O291  1  0.37996225  1.02288546  0.79821663  1
  O  O292  1  0.99593965  0.49217296  0.38061763  1
  O  O293  1  0.98667700  0.48909113  0.89017545  1
  O  O294  1  0.99497744  0.99719839  0.39533237  1
  O  O295  1  0.98361398  1.00510885  0.88319137  1
  O  O296  1  -0.00393431  0.00095605  0.10996181  1
  O  O297  1  0.00483388  0.00904829  0.61911020  1
  O  O298  1  0.01483546  0.51899142  0.12284058  1
  O  O299  1  0.00576409  0.49366993  0.60183678  1
  O  O300  1  0.51415264  0.01545902  0.11625327  1
  O  O301  1  0.53378662  0.01406985  0.60354892  1
  O  O302  1  0.49314947  0.48126203  0.10591283  1
  O  O303  1  0.48707816  0.51290047  0.62975811  1
  O  O304  1  0.24122005  0.36143532  0.23472739  1
  O  O305  1  0.21059074  0.41163186  0.81558105  1
  O  O306  1  0.26642822  0.92115245  0.25440556  1
  O  O307  1  0.23353340  0.87202824  0.76461113  1
  O  O308  1  0.76796840  0.39429207  0.23640029  1
  O  O309  1  0.78223569  0.37865612  0.74583553  1
  O  O310  1  0.75466143  0.85630068  0.22991733  1
  O  O311  1  0.74660105  0.89707058  0.74531233  1
  O  O312  1  0.24828328  0.13160216  0.27753604  1
  O  O313  1  0.24430185  0.10202359  0.80528473  1
  O  O314  1  0.27380372  0.61776983  0.24792264  1
  O  O315  1  0.25325267  0.62021589  0.75000262  1
  O  O316  1  0.77727587  0.11786222  0.26110883  1
  O  O317  1  0.74883820  0.11327429  0.75982632  1
  O  O318  1  0.76413734  0.62465955  0.26230293  1
  O  O319  1  0.75748149  0.63304471  0.73710498  1
  O  O320  1  0.36213759  0.17046302  0.39901345  1
  O  O321  1  0.44532275  0.01654055  0.83712476  1
  O  O322  1  0.37009265  0.62045877  0.35345970  1
  O  O323  1  0.36074895  0.63994408  0.85344333  1
  O  O324  1  0.88876732  0.11800288  0.36279418  1
  O  O325  1  0.86043148  0.10738032  0.88116731  1
  O  O326  1  0.87241041  0.61410715  0.36758054  1
  O  O327  1  0.87334339  0.61883311  0.86246232  1
  O  O328  1  0.11951089  0.39071386  0.12927101  1
  O  O329  1  0.12409814  0.39035204  0.58892763  1
  O  O330  1  0.15582621  0.86901009  0.06712065  1
  O  O331  1  0.13383040  0.88991352  0.63290942  1
  O  O332  1  0.63048228  0.37099349  0.12833214  1
  O  O333  1  0.65119541  0.38360927  0.64968465  1
  O  O334  1  0.61502498  0.89659538  0.11984985  1
  O  O335  1  0.62630819  0.88446813  0.60528962  1
  O  O336  1  0.11506617  0.24297165  0.25999647  1
  O  O337  1  0.09932897  0.25754006  0.77770451  1
  O  O338  1  0.11094754  0.73235720  0.26244009  1
  O  O339  1  0.12767700  0.75599630  0.75470720  1
  O  O340  1  0.64495249  0.34194700  0.19359806  1
  O  O341  1  0.62681907  0.24335454  0.75383142  1
  O  O342  1  0.61966523  0.73138914  0.26777602  1
  O  O343  1  0.61122015  0.74569165  0.74824432  1
  O  O344  1  0.37140514  0.24675307  0.24388972  1
  O  O345  1  0.29318974  0.15108577  0.82588446  1
  O  O346  1  0.39555878  0.71704894  0.24211156  1
  O  O347  1  0.38075904  0.74795459  0.73621893  1
  O  O348  1  0.88773938  0.23401669  0.24983083  1
  O  O349  1  0.92678022  0.29908736  0.74312529  1
  O  O350  1  0.87829438  0.73533688  0.25878603  1
  O  O351  1  0.90145274  0.72471336  0.75111312  1
  O  O352  1  0.32136827  0.46081357  0.44371263  1
  O  O353  1  0.38707547  0.49987534  0.98597499  1
  O  O354  1  0.37596682  1.01272983  0.52809557  1
  O  O355  1  0.36190446  0.94076400  1.04750533  1
  O  O356  1  0.88476681  0.50458063  0.48365832  1
  O  O357  1  0.85826290  0.53021586  0.99216975  1
  O  O358  1  0.88930828  0.99753698  0.49718900  1
  O  O359  1  0.88238955  0.98916415  0.99192955  1
  O  O360  1  0.10058087  0.01935576  -0.01468683  1
  O  O361  1  0.11345039  0.00888767  0.51628939  1
  O  O362  1  0.12956572  0.51305038  0.00440809  1
  O  O363  1  0.11286269  0.50948681  0.49562570  1
  O  O364  1  0.63507032  0.01045038  0.00034015  1
  O  O365  1  0.64420212  0.00000911  0.49594972  1
  O  O366  1  0.61666108  0.49867321  0.00347294  1
  O  O367  1  0.59574853  0.45534335  0.53664956  1
  O  O368  1  0.34787655  0.37557179  0.12024846  1
  O  O369  1  0.36105014  0.35379107  0.68220458  1
  O  O370  1  0.41546933  0.84004965  0.12528506  1
  O  O371  1  0.37369420  0.85869937  0.61928884  1
  O  O372  1  0.79971884  0.41814596  0.16514297  1
  O  O373  1  0.85797727  0.40039865  0.60427490  1
  O  O374  1  0.87497497  0.87557869  0.10708200  1
  O  O375  1  0.87375165  0.85440100  0.67594507  1
  O  O376  1  0.10608018  0.14156470  0.38657685  1
  O  O377  1  0.09259390  0.14608114  0.89108448  1
  O  O378  1  0.12907334  0.62004297  0.38850665  1
  O  O379  1  0.14079871  0.61045557  0.88073428  1
  O  O380  1  0.65065096  0.12163368  0.36395813  1
  O  O381  1  0.63992634  0.11849857  0.88234509  1
  O  O382  1  0.63119779  0.59907239  0.36998597  1
  O  O383  1  0.62750007  0.65072095  0.88203049  1
