# generated using pymatgen
data_VZnO4
_symmetry_space_group_name_H-M   'P 1'
_cell_length_a   17.00892348
_cell_length_b   16.87564441
_cell_length_c   16.99151664
_cell_angle_alpha   89.80471389
_cell_angle_beta   89.64241302
_cell_angle_gamma   89.67012471
_symmetry_Int_Tables_number   1
_chemical_formula_structural   VZnO4
_chemical_formula_sum   'V64 Zn64 O256'
_cell_volume   4876.98266910
_cell_formula_units_Z   64
loop_
 _symmetry_equiv_pos_site_id
 _symmetry_equiv_pos_as_xyz
  1  'x, y, z'
loop_
 _atom_site_type_symbol
 _atom_site_label
 _atom_site_symmetry_multiplicity
 _atom_site_fract_x
 _atom_site_fract_y
 _atom_site_fract_z
 _atom_site_occupancy
  V  V0  1  0.61034608  0.00241815  0.12102444  1
  V  V1  1  0.49571811  0.13659932  0.61234032  1
  V  V2  1  0.88685176  0.88887154  0.51499032  1
  V  V3  1  0.11247263  0.11200252  -0.00057604  1
  V  V4  1  0.49226781  0.63771316  0.63396608  1
  V  V5  1  0.75185509  0.49733778  0.27486527  1
  V  V6  1  0.24407956  0.49818369  0.23728731  1
  V  V7  1  0.50067103  0.26061487  0.75509633  1
  V  V8  1  0.10468316  0.24667656  0.36793946  1
  V  V9  1  0.88894693  0.14435083  0.26847623  1
  V  V10  1  0.60586615  0.74295869  0.37188000  1
  V  V11  1  0.61309197  0.89000438  0.77052211  1
  V  V12  1  0.86971511  0.50730452  0.86594252  1
  V  V13  1  0.00101981  0.72803710  0.27840074  1
  V  V14  1  0.75317726  0.76301366  0.48975762  1
  V  V15  1  0.38785060  0.73782548  0.12876455  1
  V  V16  1  0.35848609  0.38275912  0.00367028  1
  V  V17  1  0.37513976  0.51404888  0.86114814  1
  V  V18  1  0.74163427  0.88076367  0.63304853  1
  V  V19  1  0.86731782  0.37345196  0.00262641  1
  V  V20  1  0.23201246  0.63205077  0.86821076  1
  V  V21  1  0.38570177  0.87930259  0.00048251  1
  V  V22  1  0.87890612  0.72775534  0.11393175  1
  V  V23  1  0.21925046  0.61590484  0.37654203  1
  V  V24  1  0.25219299  0.14719141  0.36234133  1
  V  V25  1  0.22952931  0.74358957  0.00943396  1
  V  V26  1  0.38860922  0.10888268  0.23395124  1
  V  V27  1  0.38250026  0.11492136  0.76359409  1
  V  V28  1  0.75364701  0.13178033  0.85645260  1
  V  V29  1  0.14181096  0.38630360  0.74449024  1
  V  V30  1  0.63532675  0.38038440  0.73580614  1
  V  V31  1  0.26460794  0.11130017  0.88842698  1
  V  V32  1  0.84907650  0.23113615  0.61594281  1
  V  V33  1  0.14992471  0.25406014  0.88092600  1
  V  V34  1  0.09953844  0.35990422  0.22491916  1
  V  V35  1  0.87553339  0.64336177  0.73797816  1
  V  V36  1  0.48947631  0.25701096  0.25663917  1
  V  V37  1  0.49907180  0.51799211  0.01916549  1
  V  V38  1  0.03143003  0.60819209  0.63283577  1
  V  V39  1  0.75085684  0.50739443  0.73136084  1
  V  V40  1  0.61433779  0.00721010  0.59870831  1
  V  V41  1  0.24226964  0.87383357  0.13965441  1
  V  V42  1  0.00131217  0.51090209  -0.00616206  1
  V  V43  1  0.51649626  0.38528204  0.88801131  1
  V  V44  1  0.63301553  0.73382711  0.88713847  1
  V  V45  1  0.07260525  0.11862296  0.61332696  1
  V  V46  1  0.88285013  0.87919246  -0.00431268  1
  V  V47  1  0.63220699  0.62050593  0.50969009  1
  V  V48  1  0.87586432  -0.00341327  0.85378396  1
  V  V49  1  0.22721937  0.00027920  0.25499821  1
  V  V50  1  0.62315141  0.36803125  0.25202342  1
  V  V51  1  0.11376534  0.51981948  0.11666713  1
  V  V52  1  0.47509323  0.50408231  0.51753157  1
  V  V53  1  0.64294250  0.13862430  0.01097774  1
  V  V54  1  0.38003304  0.61857481  0.25600837  1
  V  V55  1  0.37364070  0.24304928  0.10976483  1
  V  V56  1  0.74321492  0.86050655  0.11041490  1
  V  V57  1  0.63093780  0.51338225  0.13629417  1
  V  V58  1  0.61825596  0.87106017  0.25606821  1
  V  V59  1  -0.00184164  0.36274485  0.86679066  1
  V  V60  1  0.24189167  0.76710407  0.49143673  1
  V  V61  1  0.75169120  0.13545652  0.37282518  1
  V  V62  1  0.49321796  0.75224929  0.75967439  1
  V  V63  1  0.77063132  -0.01281122  0.24890763  1
  Zn  Zn64  1  0.18349563  0.17984284  0.17124536  1
  Zn  Zn65  1  0.19824432  0.19617035  0.70684545  1
  Zn  Zn66  1  0.17526653  0.69132635  0.19202851  1
  Zn  Zn67  1  0.18449375  0.67781379  0.67630639  1
  Zn  Zn68  1  0.67202995  0.16884272  0.21539097  1
  Zn  Zn69  1  0.67594450  0.19375239  0.68146041  1
  Zn  Zn70  1  0.70657232  0.68247790  0.19999759  1
  Zn  Zn71  1  0.68188870  0.69755342  0.69598766  1
  Zn  Zn72  1  0.28071134  0.29564934  0.24450956  1
  Zn  Zn73  1  0.32137084  0.32587276  0.81984476  1
  Zn  Zn74  1  0.30310490  0.79495760  0.32489330  1
  Zn  Zn75  1  0.31707561  0.80154885  0.82898988  1
  Zn  Zn76  1  0.81413234  0.31774098  0.30128918  1
  Zn  Zn77  1  0.81085936  0.31655831  0.80768514  1
  Zn  Zn78  1  0.81852266  0.79712901  0.29642427  1
  Zn  Zn79  1  0.79835325  0.81997116  0.81496533  1
  Zn  Zn80  1  0.18831043  0.41514190  0.40217153  1
  Zn  Zn81  1  0.18403717  0.45133188  0.92472324  1
  Zn  Zn82  1  0.26225914  0.97355674  0.46593549  1
  Zn  Zn83  1  0.21190948  0.93866093  0.95317183  1
  Zn  Zn84  1  0.66179059  0.41708159  0.44080428  1
  Zn  Zn85  1  0.69318554  0.45978073  0.94807971  1
  Zn  Zn86  1  0.68995487  0.93965278  0.42916772  1
  Zn  Zn87  1  0.68627182  0.94772194  0.93353742  1
  Zn  Zn88  1  0.30719978  0.05719094  0.06858108  1
  Zn  Zn89  1  0.27819556  0.12605750  0.57521996  1
  Zn  Zn90  1  0.30739690  0.56607421  0.06150208  1
  Zn  Zn91  1  0.31588811  0.62926189  0.54963934  1
  Zn  Zn92  1  0.78892678  0.03830529  0.04246689  1
  Zn  Zn93  1  0.79503759  0.06524911  0.55628942  1
  Zn  Zn94  1  0.80259672  0.55102961  0.06073198  1
  Zn  Zn95  1  0.81599025  0.58036745  0.55856058  1
  Zn  Zn96  1  0.43244366  0.43505671  0.18302523  1
  Zn  Zn97  1  0.45436861  0.44563123  0.68154402  1
  Zn  Zn98  1  0.41146394  0.89703420  0.23381749  1
  Zn  Zn99  1  0.44859948  0.94534471  0.68614001  1
  Zn  Zn100  1  0.92891646  0.44373604  0.17986712  1
  Zn  Zn101  1  0.94841007  0.43392659  0.68713829  1
  Zn  Zn102  1  0.93757417  0.89482821  0.20141268  1
  Zn  Zn103  1  0.91058475  1.02478248  0.66093039  1
  Zn  Zn104  1  0.04727650  0.03920396  0.16660545  1
  Zn  Zn105  1  0.07079756  0.05355488  0.83456199  1
  Zn  Zn106  1  0.04194071  0.55844395  0.29812276  1
  Zn  Zn107  1  0.05605782  0.56403556  0.81047701  1
  Zn  Zn108  1  0.57098574  0.05532109  0.30881571  1
  Zn  Zn109  1  0.56991756  0.07777439  0.83194298  1
  Zn  Zn110  1  0.56051502  0.54792382  0.33200693  1
  Zn  Zn111  1  0.56555371  0.56324725  0.81344935  1
  Zn  Zn112  1  0.45532326  0.13297641  0.40895017  1
  Zn  Zn113  1  0.44596567  0.20122523  0.93652851  1
  Zn  Zn114  1  0.43343581  0.67793385  0.42995822  1
  Zn  Zn115  1  0.43711695  0.69610703  0.94090332  1
  Zn  Zn116  1  0.95139006  0.16478254  0.45617863  1
  Zn  Zn117  1  0.93291612  0.17826167  0.92216118  1
  Zn  Zn118  1  0.96233290  0.73613259  0.47676613  1
  Zn  Zn119  1  0.92297711  0.69164435  0.93702508  1
  Zn  Zn120  1  0.05630089  0.31028710  0.04505670  1
  Zn  Zn121  1  0.16569857  0.28801377  0.57014392  1
  Zn  Zn122  1  0.04685000  0.83825805  0.07980812  1
  Zn  Zn123  1  0.06548211  0.78231453  0.58479864  1
  Zn  Zn124  1  0.55907455  0.32020601  0.07493012  1
  Zn  Zn125  1  0.54973131  0.32787102  0.56369585  1
  Zn  Zn126  1  0.56312843  0.80736080  0.06733727  1
  Zn  Zn127  1  0.57414702  0.80949203  0.57093474  1
  O  O128  1  0.11354202  0.11775346  0.10540952  1
  O  O129  1  0.16947119  0.08851420  0.61720063  1
  O  O130  1  0.10971113  0.61763267  0.12246456  1
  O  O131  1  0.12746797  0.58029190  0.63223208  1
  O  O132  1  0.63219912  0.11168047  0.12463602  1
  O  O133  1  0.60834632  0.11886965  0.62326240  1
  O  O134  1  0.62511334  0.61311274  0.14712720  1
  O  O135  1  0.62416778  0.64019653  0.61131468  1
  O  O136  1  0.37340473  0.38299419  0.39738050  1
  O  O137  1  0.38519672  0.39356522  0.88913559  1
  O  O138  1  0.38287940  0.86805652  0.33862060  1
  O  O139  1  0.37105498  0.86879325  0.90045556  1
  O  O140  1  0.88723261  0.36824453  0.39467559  1
  O  O141  1  0.88844783  0.38121644  0.86881219  1
  O  O142  1  0.88253227  0.89786349  0.41949234  1
  O  O143  1  0.85675413  0.88775551  0.88809623  1
  O  O144  1  0.24795394  0.01474218  0.35594390  1
  O  O145  1  0.26510368  0.01288678  0.87871710  1
  O  O146  1  0.23690498  0.50067285  0.34619961  1
  O  O147  1  0.26533495  0.52083051  0.87978098  1
  O  O148  1  0.74445730  0.00327159  0.35010556  1
  O  O149  1  0.76396161  0.01857987  0.88761851  1
  O  O150  1  0.73784069  0.47100148  0.37299085  1
  O  O151  1  0.76950814  0.49297356  0.85845831  1
  O  O152  1  0.22378764  0.51089428  0.12511212  1
  O  O153  1  0.26378313  0.43983830  0.55036750  1
  O  O154  1  0.24898733  0.98183930  0.13709136  1
  O  O155  1  0.31954504  1.02805849  0.54322363  1
  O  O156  1  0.73284137  0.49788351  0.14226644  1
  O  O157  1  0.76525347  0.50265648  0.63274140  1
  O  O158  1  0.74900004  0.98834532  0.13886587  1
  O  O159  1  0.72281401  0.99521894  0.61907693  1
  O  O160  1  0.00110908  0.37318554  0.23460747  1
  O  O161  1  0.01584994  0.38017933  0.76565762  1
  O  O162  1  -0.06880948  0.81229477  0.27818197  1
  O  O163  1  -0.00854526  0.80440690  0.82944828  1
  O  O164  1  0.48024606  0.36110595  0.25393604  1
  O  O165  1  0.51703586  0.38093005  0.76213065  1
  O  O166  1  0.52247474  0.86775915  0.23743428  1
  O  O167  1  0.50798215  0.86606084  0.74941534  1
  O  O168  1  0.48969320  0.13060422  0.23828851  1
  O  O169  1  0.49763782  0.15103923  0.77398181  1
  O  O170  1  0.47730196  0.59932234  0.26643724  1
  O  O171  1  0.51152767  0.63819236  0.74181472  1
  O  O172  1  0.96619148  0.10291505  0.22082971  1
  O  O173  1  1.03739443  0.09912403  0.72662401  1
  O  O174  1  0.97657275  0.63419764  0.24401311  1
  O  O175  1  0.98360559  0.62013760  0.74032309  1
  O  O176  1  0.37684783  0.26670307  0.00262628  1
  O  O177  1  0.38854228  0.33145472  0.44596505  1
  O  O178  1  0.36983438  0.75153522  0.01848246  1
  O  O179  1  0.34867058  0.72310288  0.48443809  1
  O  O180  1  0.89976396  0.26032245  0.00654291  1
  O  O181  1  0.89069364  0.23676836  0.52402398  1
  O  O182  1  0.86431829  0.75989834  0.00610507  1
  O  O183  1  0.85319780  0.76474899  0.51093135  1
  O  O184  1  0.12961573  0.26363135  0.46280524  1
  O  O185  1  0.12057309  0.23301436  0.98401973  1
  O  O186  1  0.14082994  0.78152895  0.50079382  1
  O  O187  1  0.13326078  0.75876867  1.01193748  1
  O  O188  1  0.63333466  0.32414351  0.49330164  1
  O  O189  1  0.61556478  0.23474301  1.02234094  1
  O  O190  1  0.62978851  0.75747564  0.48074049  1
  O  O191  1  0.61091046  0.74969423  0.98438636  1
  O  O192  1  0.47769035  0.25509862  0.12680455  1
  O  O193  1  0.51357448  0.24527833  0.64555029  1
  O  O194  1  0.48617994  0.74325456  0.12978158  1
  O  O195  1  0.51159741  0.74585765  0.64225618  1
  O  O196  1  0.95476782  0.24718605  0.06512234  1
  O  O197  1  1.07789485  0.21875418  0.62533042  1
  O  O198  1  0.97573612  0.75237650  0.13101759  1
  O  O199  1  1.07828496  0.72131836  0.67545840  1
  O  O200  1  0.00728493  0.22601306  0.37295054  1
  O  O201  1  -0.00203853  0.26113584  0.87242741  1
  O  O202  1  -0.00276851  0.70908089  0.37779837  1
  O  O203  1  0.01296472  0.73992157  0.87386549  1
  O  O204  1  0.48869490  0.23460497  0.35347194  1
  O  O205  1  0.50514026  0.27806008  0.87135371  1
  O  O206  1  0.50777909  0.74511725  0.37087396  1
  O  O207  1  0.50803859  0.74391049  0.86365115  1
  O  O208  1  0.26414962  0.14624139  0.45937957  1
  O  O209  1  0.24606729  0.12237579  0.99132040  1
  O  O210  1  0.23250552  0.59579489  0.47343753  1
  O  O211  1  0.24587071  0.63790352  0.99594517  1
  O  O212  1  0.74156324  0.11085149  0.46967639  1
  O  O213  1  0.74643199  0.13848646  1.01108314  1
  O  O214  1  0.74064070  0.65253211  0.50594785  1
  O  O215  1  0.72681522  0.56261993  0.98310605  1
  O  O216  1  0.26184341  0.38960649  -0.00974432  1
  O  O217  1  0.22707755  0.37728699  0.50246509  1
  O  O218  1  0.25950399  0.85964271  0.01893320  1
  O  O219  1  0.27420419  0.86088951  0.47815029  1
  O  O220  1  0.77049273  0.37332214  -0.02085622  1
  O  O221  1  0.85738165  0.38073407  0.46031978  1
  O  O222  1  0.75006593  0.88623938  0.01092765  1
  O  O223  1  0.75225132  0.87858096  0.50903516  1
  O  O224  1  0.11065493  0.49162440  0.22536736  1
  O  O225  1  0.12857202  0.48471186  0.76886510  1
  O  O226  1  0.13057801  1.00870809  0.24802721  1
  O  O227  1  0.13160360  0.94510998  0.80250070  1
  O  O228  1  0.62692915  0.49166112  0.25187798  1
  O  O229  1  0.64390986  0.49731134  0.75338728  1
  O  O230  1  0.63070800  0.98536248  0.23763572  1
  O  O231  1  0.60285125  0.99239210  0.76371300  1
  O  O232  1  0.38320290  0.00921987  0.22651870  1
  O  O233  1  0.39858879  0.01650498  0.76321584  1
  O  O234  1  0.34925261  0.50608844  0.22897339  1
  O  O235  1  0.38659827  0.49510750  0.76396963  1
  O  O236  1  0.86699310  -0.02841985  0.25415220  1
  O  O237  1  0.86211995  -0.01503231  0.75622556  1
  O  O238  1  0.84915268  0.46890903  0.25554321  1
  O  O239  1  0.86876568  0.50293583  0.75290029  1
  O  O240  1  0.11558652  0.35751074  0.34047089  1
  O  O241  1  0.11762911  0.36317138  0.88486049  1
  O  O242  1  0.09936621  0.91008963  0.38659164  1
  O  O243  1  0.15289992  0.89253603  0.85259775  1
  O  O244  1  0.59959680  0.37584626  0.34812611  1
  O  O245  1  0.61630696  0.39718400  0.88403544  1
  O  O246  1  0.62326079  0.87051400  0.36085389  1
  O  O247  1  0.62160490  0.87722330  0.87100760  1
  O  O248  1  0.37432197  0.13475698  0.11995835  1
  O  O249  1  0.39733324  0.13499693  0.65780994  1
  O  O250  1  0.36795162  0.63081138  0.13501099  1
  O  O251  1  0.39400675  0.63597557  0.63462379  1
  O  O252  1  0.80289643  0.22652988  0.11120961  1
  O  O253  1  0.85649823  0.12690294  0.63683213  1
  O  O254  1  0.87472029  0.62827806  0.09276415  1
  O  O255  1  0.87116428  0.64236507  0.63782497  1
  O  O256  1  0.26921762  0.25204578  0.13404763  1
  O  O257  1  0.25443017  0.22901376  0.61479492  1
  O  O258  1  0.25072812  0.74913851  0.12144035  1
  O  O259  1  0.24724406  0.71894931  0.59040314  1
  O  O260  1  0.74512990  0.25191046  0.14828688  1
  O  O261  1  0.74973775  0.24546731  0.61122768  1
  O  O262  1  0.71987114  0.76341337  0.10809865  1
  O  O263  1  0.71416163  0.77828294  0.61058634  1
  O  O264  1  0.25460156  0.25004939  0.34429949  1
  O  O265  1  0.25024641  0.25286378  0.88449164  1
  O  O266  1  0.23163892  0.72692328  0.38104817  1
  O  O267  1  0.24732502  0.74246060  0.89576735  1
  O  O268  1  0.76287818  0.23565421  0.36774512  1
  O  O269  1  0.77700163  0.23082372  0.87187607  1
  O  O270  1  0.75412925  0.76766080  0.38768962  1
  O  O271  1  0.73170793  0.75361201  0.87726209  1
  O  O272  1  0.01624355  0.11663318  -0.02616847  1
  O  O273  1  0.02110401  0.10708205  0.52589481  1
  O  O274  1  -0.00546244  0.60880047  -0.01877024  1
  O  O275  1  0.00797479  0.65982285  0.54726691  1
  O  O276  1  0.51905753  0.11776424  -0.02007017  1
  O  O277  1  0.47683933  0.15700100  0.51855464  1
  O  O278  1  0.49480329  0.61495583  0.00070440  1
  O  O279  1  0.51184556  0.62591664  0.51341442  1
  O  O280  1  0.46401795  0.40609444  0.56713153  1
  O  O281  1  0.49631746  0.38800693  0.99335947  1
  O  O282  1  0.48996360  0.85881059  0.49630706  1
  O  O283  1  0.48413271  0.87034769  1.01356215  1
  O  O284  1  1.03545849  0.42577025  0.50247911  1
  O  O285  1  0.99001417  0.38502013  0.98118657  1
  O  O286  1  0.98066628  0.84500549  0.53526484  1
  O  O287  1  0.98056863  0.86317749  0.98847171  1
  O  O288  1  0.51278393  0.49233794  0.42358465  1
  O  O289  1  0.49239278  0.49879020  0.88433162  1
  O  O290  1  0.50203384  1.03365385  0.38995181  1
  O  O291  1  0.50803086  1.05373789  0.93188752  1
  O  O292  1  0.96289769  0.50656093  0.37726188  1
  O  O293  1  0.99134133  0.49120469  0.87885175  1
  O  O294  1  1.08410641  0.96305929  0.43728270  1
  O  O295  1  0.97652462  0.99813438  0.86330205  1
  O  O296  1  0.01019995  -0.06060935  0.13352645  1
  O  O297  1  0.02524182  0.02935697  0.67629339  1
  O  O298  1  0.00058899  0.49888135  0.10305540  1
  O  O299  1  -0.01517439  0.51558237  0.62141106  1
  O  O300  1  0.51578416  -0.00062658  0.12083341  1
  O  O301  1  0.50392503  0.02372489  0.61927563  1
  O  O302  1  0.49191382  0.51125040  0.12100520  1
  O  O303  1  0.51227252  0.53029973  0.62454822  1
  O  O304  1  0.22755365  0.39487627  0.23441223  1
  O  O305  1  0.24154269  0.37534712  0.76129675  1
  O  O306  1  0.24936835  0.88513715  0.24812915  1
  O  O307  1  0.27863407  0.88680072  0.73500930  1
  O  O308  1  0.72638346  0.36919442  0.24915488  1
  O  O309  1  0.74156427  0.38676306  0.74846494  1
  O  O310  1  0.74232746  0.87611741  0.23730702  1
  O  O311  1  0.72251954  0.87680236  0.74087751  1
  O  O312  1  0.25737061  0.10821202  0.23518246  1
  O  O313  1  0.27664320  0.13003649  0.76811327  1
  O  O314  1  0.23859270  0.61242199  0.25258138  1
  O  O315  1  0.24463243  0.65100119  0.77027394  1
  O  O316  1  0.78783769  0.10909159  0.24411017  1
  O  O317  1  0.73059555  0.12634345  0.76035828  1
  O  O318  1  0.74570662  0.59746895  0.27160863  1
  O  O319  1  0.75929168  0.61562020  0.74343837  1
  O  O320  1  0.36294169  0.12507227  0.33817394  1
  O  O321  1  0.37176531  0.13767705  0.87566320  1
  O  O322  1  0.35218102  0.61809106  0.35517278  1
  O  O323  1  0.37823849  0.61578758  0.87568128  1
  O  O324  1  0.87477234  0.12220570  0.37170072  1
  O  O325  1  0.86716610  0.10940104  0.86440538  1
  O  O326  1  0.90949235  0.55165305  0.41258854  1
  O  O327  1  0.87918494  0.61129704  0.86187126  1
  O  O328  1  0.11380144  0.37122763  0.12191205  1
  O  O329  1  0.13071083  0.37414817  0.64634875  1
  O  O330  1  0.14549669  0.86116245  0.13096790  1
  O  O331  1  0.03799686  0.82433408  0.77505618  1
  O  O332  1  0.59966579  0.39767471  0.14617685  1
  O  O333  1  0.62292845  0.38829401  0.64025979  1
  O  O334  1  0.63122468  0.88467618  0.12765606  1
  O  O335  1  0.61186793  0.90139470  0.63250174  1
  O  O336  1  0.11838014  0.25552729  0.23505454  1
  O  O337  1  0.13255912  0.26076193  0.77632903  1
  O  O338  1  0.09722530  0.74835532  0.25131777  1
  O  O339  1  0.21961644  0.87925484  0.69231222  1
  O  O340  1  0.59933179  0.26174177  0.23050331  1
  O  O341  1  0.62061691  0.27296562  0.75251916  1
  O  O342  1  0.63761730  0.75665476  0.26713729  1
  O  O343  1  0.61651361  0.76448446  0.76591337  1
  O  O344  1  0.38200218  0.23849397  0.23092455  1
  O  O345  1  0.39980033  0.27017789  0.75548915  1
  O  O346  1  0.36635956  0.72781464  0.24156818  1
  O  O347  1  0.39352161  0.75810104  0.75734251  1
  O  O348  1  0.88544984  0.24369738  0.25013148  1
  O  O349  1  0.88478552  0.27323605  0.71785415  1
  O  O350  1  0.82261936  0.72439498  0.20399716  1
  O  O351  1  0.86500432  0.73993046  0.76278213  1
  O  O352  1  0.38147484  0.53345798  0.50971807  1
  O  O353  1  0.38328297  0.49514666  1.00168400  1
  O  O354  1  0.43175699  0.89976763  0.52734295  1
  O  O355  1  0.36625431  0.97791883  1.01528354  1
  O  O356  1  0.89111839  0.52399196  0.48531886  1
  O  O357  1  0.88231537  0.49045421  0.98178725  1
  O  O358  1  0.88702900  0.98947860  0.55015272  1
  O  O359  1  0.88043694  0.98270237  1.00828183  1
  O  O360  1  0.13007768  0.01207718  -0.01766332  1
  O  O361  1  0.13680461  -0.02238816  0.49352905  1
  O  O362  1  0.11037556  0.49741870  0.00460671  1
  O  O363  1  0.08139634  0.47817062  0.48239209  1
  O  O364  1  0.63864064  0.01533214  0.01647830  1
  O  O365  1  0.61653815  -0.00176810  0.50104506  1
  O  O366  1  0.60579709  0.49698194  0.02653277  1
  O  O367  1  0.64629522  0.52267437  0.50429462  1
  O  O368  1  0.37073760  0.37075945  0.10771946  1
  O  O369  1  0.29368693  0.41465963  0.61270931  1
  O  O370  1  0.36282127  0.85102702  0.13511266  1
  O  O371  1  0.40757006  0.87574881  0.59968857  1
  O  O372  1  0.86921216  0.38624147  0.10042662  1
  O  O373  1  0.88639178  0.33494147  0.65698377  1
  O  O374  1  0.85457750  0.85651257  0.11215232  1
  O  O375  1  0.83949797  0.87286807  0.63470594  1
  O  O376  1  0.14513815  0.14649109  0.35161740  1
  O  O377  1  0.14846991  0.13307031  0.87404124  1
  O  O378  1  0.12079105  0.60357203  0.36662198  1
  O  O379  1  0.13474684  0.61687114  0.87637270  1
  O  O380  1  0.65642232  0.13176979  0.32481581  1
  O  O381  1  0.64925060  0.12829770  0.89777196  1
  O  O382  1  0.61966627  0.63748309  0.38942796  1
  O  O383  1  0.62735047  0.63348704  0.87332454  1
