# generated using pymatgen
data_VZnO4
_symmetry_space_group_name_H-M   'P 1'
_cell_length_a   17.05213189
_cell_length_b   16.95218136
_cell_length_c   17.11138944
_cell_angle_alpha   90.56529611
_cell_angle_beta   89.69401762
_cell_angle_gamma   89.13287996
_symmetry_Int_Tables_number   1
_chemical_formula_structural   VZnO4
_chemical_formula_sum   'V64 Zn64 O256'
_cell_volume   4945.52186724
_cell_formula_units_Z   64
loop_
 _symmetry_equiv_pos_site_id
 _symmetry_equiv_pos_as_xyz
  1  'x, y, z'
loop_
 _atom_site_type_symbol
 _atom_site_label
 _atom_site_symmetry_multiplicity
 _atom_site_fract_x
 _atom_site_fract_y
 _atom_site_fract_z
 _atom_site_occupancy
  V  V0  1  0.49658503  0.00770154  0.48816320  1
  V  V1  1  0.50082934  0.41154013  0.89221145  1
  V  V2  1  0.36899088  0.61776339  0.22396385  1
  V  V3  1  0.62929767  0.12513256  0.50586186  1
  V  V4  1  0.74729852  0.12415336  0.36909727  1
  V  V5  1  0.75303645  0.26068040  0.50437259  1
  V  V6  1  0.12576626  0.63654542  0.48137973  1
  V  V7  1  0.49042166  0.13184402  0.63093864  1
  V  V8  1  0.37343334  0.88391396  0.00395386  1
  V  V9  1  0.74529938  0.09783354  0.86693448  1
  V  V10  1  -0.00220630  0.62095428  0.11671581  1
  V  V11  1  0.62573393  0.00768542  0.65056825  1
  V  V12  1  0.36400560  0.13660420  0.25117831  1
  V  V13  1  0.87345180  0.22836116  0.63571121  1
  V  V14  1  0.00810890  0.74518373  0.24276323  1
  V  V15  1  0.23104753  -0.01896739  0.75230452  1
  V  V16  1  0.11785451  0.61052908  -0.00232388  1
  V  V17  1  0.23718483  0.74941315  0.01562657  1
  V  V18  1  0.89715184  0.49850728  0.88067741  1
  V  V19  1  0.37439221  0.40573301  0.48523804  1
  V  V20  1  0.03371887  0.62040814  0.63704180  1
  V  V21  1  0.37792690  -0.00674712  0.86728995  1
  V  V22  1  0.75344262  0.39168524  0.62278617  1
  V  V23  1  0.86631215  -0.00785123  0.37184816  1
  V  V24  1  0.86686137  0.50814547  0.36106523  1
  V  V25  1  0.35498375  0.25062717  0.10304208  1
  V  V26  1  0.67550739  0.49133974  0.15473470  1
  V  V27  1  0.25759680  0.13109458  0.87641417  1
  V  V28  1  0.50769820  0.26619059  0.22471397  1
  V  V29  1  0.00794977  0.37677741  0.36447435  1
  V  V30  1  0.12071001  0.89097959  0.24347388  1
  V  V31  1  0.24710892  0.49596199  0.73834957  1
  V  V32  1  0.87072519  0.71753705  0.64070536  1
  V  V33  1  0.74017007  0.74839693  0.50792437  1
  V  V34  1  0.76903008  0.89104016  0.64027393  1
  V  V35  1  0.76209949  0.63200361  0.85805498  1
  V  V36  1  0.26602472  0.62658146  0.37429098  1
  V  V37  1  0.60269593  0.50066504  0.59845419  1
  V  V38  1  0.88673318  0.13913000  0.24472824  1
  V  V39  1  0.86594455  0.76681111  0.12477397  1
  V  V40  1  0.24637477  0.62742882  0.87091972  1
  V  V41  1  0.00475048  0.02080417  0.49961768  1
  V  V42  1  0.62107792  0.00294610  0.12983776  1
  V  V43  1  0.87255390  0.88333502  -0.01492837  1
  V  V44  1  0.38953623  0.63113234  0.75803698  1
  V  V45  1  -0.00053053  0.00185456  0.03339227  1
  V  V46  1  0.61643433  0.39025351  0.74154066  1
  V  V47  1  0.24236156  0.90487394  0.12784149  1
  V  V48  1  0.36613552  0.26800622  0.62266907  1
  V  V49  1  0.60470945  0.72753587  0.93538756  1
  V  V50  1  0.50244708  0.25320360  0.75430149  1
  V  V51  1  0.49779526  0.74890175  0.24732665  1
  V  V52  1  0.11674991  0.12585387  0.00471872  1
  V  V53  1  0.50175067  0.64229731  0.60207781  1
  V  V54  1  0.61694785  0.26955179  0.37876617  1
  V  V55  1  0.01550881  0.75909842  0.75697186  1
  V  V56  1  0.23908495  0.38283280  0.09007166  1
  V  V57  1  0.64540526  0.26762444  0.87930817  1
  V  V58  1  0.00143424  0.50068998  0.50791637  1
  V  V59  1  0.23366756  0.48985746  0.25085675  1
  V  V60  1  0.52170307  0.59721370  0.13049312  1
  V  V61  1  0.09063117  0.25111913  0.87343043  1
  V  V62  1  0.00218452  0.87307045  0.37611297  1
  V  V63  1  0.86798748  0.36237459  -0.00412360  1
  Zn  Zn64  1  0.17884420  0.20158645  0.18791348  1
  Zn  Zn65  1  0.21801339  0.21735004  0.73601029  1
  Zn  Zn66  1  0.17823151  0.67811842  0.18781865  1
  Zn  Zn67  1  0.19389376  0.69663779  0.69169292  1
  Zn  Zn68  1  0.66780779  0.18442567  0.19720064  1
  Zn  Zn69  1  0.69618452  0.19233544  0.69713897  1
  Zn  Zn70  1  0.66096177  0.71390321  0.13814405  1
  Zn  Zn71  1  0.72025360  0.63177208  0.64995101  1
  Zn  Zn72  1  0.35326530  0.34376759  0.28627850  1
  Zn  Zn73  1  0.32917319  0.32318347  0.82041000  1
  Zn  Zn74  1  0.29255505  0.79072333  0.28337132  1
  Zn  Zn75  1  0.30748817  0.80763850  0.82608497  1
  Zn  Zn76  1  0.83613206  0.30968338  0.34078404  1
  Zn  Zn77  1  0.82588756  0.35027905  0.79895058  1
  Zn  Zn78  1  0.85643380  0.76457157  0.33841502  1
  Zn  Zn79  1  0.81949600  0.81580387  0.80972496  1
  Zn  Zn80  1  0.19061267  0.44326371  0.44208409  1
  Zn  Zn81  1  0.18018622  0.43645111  0.91079851  1
  Zn  Zn82  1  0.16685427  0.90749686  0.45386664  1
  Zn  Zn83  1  0.19279605  0.95325438  0.95007261  1
  Zn  Zn84  1  0.65247332  0.48689867  0.37978463  1
  Zn  Zn85  1  0.71264940  0.48101332  0.97235058  1
  Zn  Zn86  1  0.64400324  0.89409335  0.49868841  1
  Zn  Zn87  1  0.68021209  0.91495265  0.93662778  1
  Zn  Zn88  1  0.30966986  0.07300924  0.05863915  1
  Zn  Zn89  1  0.35123890  -0.03781169  0.60940254  1
  Zn  Zn90  1  0.29909636  0.55084753  0.05400560  1
  Zn  Zn91  1  0.31544153  0.56997524  0.56436406  1
  Zn  Zn92  1  0.81510202  0.07089302  0.05957877  1
  Zn  Zn93  1  0.81196130  0.05819901  0.55692236  1
  Zn  Zn94  1  0.82784339  0.57145282  0.05163775  1
  Zn  Zn95  1  0.77444338  0.53185137  0.50800563  1
  Zn  Zn96  1  0.41104099  0.44257594  0.16191426  1
  Zn  Zn97  1  0.43070223  0.44761898  0.68396048  1
  Zn  Zn98  1  0.42402589  0.93942899  0.19748222  1
  Zn  Zn99  1  0.37196242  0.76557876  0.64015674  1
  Zn  Zn100  1  0.94101049  0.44004093  0.19261330  1
  Zn  Zn101  1  0.89757652  0.50397192  0.68097740  1
  Zn  Zn102  1  0.92907264  0.94257663  0.19640084  1
  Zn  Zn103  1  0.96615039  0.94266389  0.67877538  1
  Zn  Zn104  1  0.05746281  0.06717888  0.31714308  1
  Zn  Zn105  1  0.09759070  0.10572204  0.77780268  1
  Zn  Zn106  1  0.05754617  0.55814590  0.31264288  1
  Zn  Zn107  1  0.07299753  0.56472859  0.81575918  1
  Zn  Zn108  1  0.54711260  0.09266866  0.31795748  1
  Zn  Zn109  1  0.56265320  0.07455621  0.83640297  1
  Zn  Zn110  1  0.53295315  0.46743227  0.27248017  1
  Zn  Zn111  1  0.58117920  0.57952063  0.80651148  1
  Zn  Zn112  1  0.42846678  0.20116471  0.43904609  1
  Zn  Zn113  1  0.44877791  0.18046889  0.93756156  1
  Zn  Zn114  1  0.48733568  0.61879354  0.39062094  1
  Zn  Zn115  1  0.44739029  0.59178613  0.93721720  1
  Zn  Zn116  1  0.92934025  0.18647237  0.42950389  1
  Zn  Zn117  1  0.92526801  0.17587565  0.93847312  1
  Zn  Zn118  1  0.89961851  0.64426644  0.47572285  1
  Zn  Zn119  1  0.93107584  0.69459344  0.93417071  1
  Zn  Zn120  1  0.06238609  0.29798851  0.07958957  1
  Zn  Zn121  1  0.01315755  0.28827988  0.52236000  1
  Zn  Zn122  1  0.05954303  0.81723803  0.06196204  1
  Zn  Zn123  1  0.00765453  0.77286547  0.53237201  1
  Zn  Zn124  1  0.58928549  0.35579783  0.05640448  1
  Zn  Zn125  1  0.55421322  0.31688008  0.55663808  1
  Zn  Zn126  1  0.45570760  0.74583307  0.03670027  1
  Zn  Zn127  1  0.51572562  0.85455778  0.59810199  1
  O  O128  1  0.13275794  0.13036384  0.10117527  1
  O  O129  1  0.16228353  0.18937422  0.54206018  1
  O  O130  1  0.11134347  0.62782651  0.10767069  1
  O  O131  1  0.13208448  0.62538870  0.61869969  1
  O  O132  1  0.62186225  0.10916189  0.11518144  1
  O  O133  1  0.63350248  0.12294741  0.61999388  1
  O  O134  1  0.62544413  0.59775385  0.14645834  1
  O  O135  1  0.60880752  0.60885113  0.62612086  1
  O  O136  1  0.37489316  0.37443825  0.38844476  1
  O  O137  1  0.40935982  0.38928854  0.86120642  1
  O  O138  1  0.37171990  0.85148337  0.39749338  1
  O  O139  1  0.36387727  0.88362782  0.89423475  1
  O  O140  1  0.88931059  0.39629015  0.38360792  1
  O  O141  1  0.88750507  0.38192821  0.89239181  1
  O  O142  1  0.87967391  0.88937652  0.36056631  1
  O  O143  1  0.88011460  0.87771581  0.88597692  1
  O  O144  1  0.25693965  -0.03858584  0.37691587  1
  O  O145  1  0.25020034  0.00756559  0.87267859  1
  O  O146  1  0.23713081  0.51552727  0.35804221  1
  O  O147  1  0.25092410  0.52178593  0.87430988  1
  O  O148  1  0.76013592  0.01795213  0.37997888  1
  O  O149  1  0.70889682  0.00387333  0.87511813  1
  O  O150  1  0.76569882  0.50318839  0.39769262  1
  O  O151  1  0.75899521  0.51353548  0.87599639  1
  O  O152  1  0.24993947  0.48443424  0.13152280  1
  O  O153  1  0.25206648  0.51213599  0.63968119  1
  O  O154  1  0.23790069  1.00244039  0.12462295  1
  O  O155  1  0.25454116  0.98894951  0.65386838  1
  O  O156  1  0.76891860  0.51722990  0.13534963  1
  O  O157  1  0.72708356  0.49666703  0.61043261  1
  O  O158  1  0.72572071  1.01126370  0.12941131  1
  O  O159  1  0.73746769  0.99663758  0.62688515  1
  O  O160  1  0.00144764  0.37513815  0.26532288  1
  O  O161  1  0.05634081  0.36656912  0.70490971  1
  O  O162  1  0.01018582  0.87319280  0.25044725  1
  O  O163  1  0.00601273  0.85779078  0.73408378  1
  O  O164  1  0.47932339  0.36482565  0.25651807  1
  O  O165  1  0.50996433  0.37087901  0.73266348  1
  O  O166  1  0.46759993  0.84781050  0.24357840  1
  O  O167  1  0.50704005  0.84969656  0.78865864  1
  O  O168  1  0.49391910  0.16123658  0.24666313  1
  O  O169  1  0.51355544  0.14498007  0.73964191  1
  O  O170  1  0.47451551  0.61765148  0.23901524  1
  O  O171  1  0.48987916  0.63024211  0.75293184  1
  O  O172  1  0.98567955  0.13215821  0.26175219  1
  O  O173  1  0.97091077  0.09199776  0.77090733  1
  O  O174  1  1.01075238  0.63907388  0.23443838  1
  O  O175  1  1.01692467  0.62719407  0.73833137  1
  O  O176  1  0.39080149  0.24499808  0.00942580  1
  O  O177  1  0.36979677  0.24463594  0.52442060  1
  O  O178  1  0.34644570  0.77378430  0.00744470  1
  O  O179  1  0.40140142  0.80349271  0.44256224  1
  O  O180  1  0.87209344  0.26146214  -0.00597757  1
  O  O181  1  0.85547098  0.24259389  0.51048700  1
  O  O182  1  0.88965665  0.77473085  0.01220162  1
  O  O183  1  0.89310666  0.74162576  0.53624873  1
  O  O184  1  0.14076754  0.25427808  0.51609799  1
  O  O185  1  0.09818175  0.23436049  0.98792525  1
  O  O186  1  0.11325583  0.73616012  0.50136949  1
  O  O187  1  0.13503027  0.75605810  1.00026627  1
  O  O188  1  0.63499249  0.24638134  0.49802258  1
  O  O189  1  0.62969794  0.28080221  0.97590283  1
  O  O190  1  0.64390969  0.75896461  0.49390545  1
  O  O191  1  0.63939031  0.71874447  1.02680127  1
  O  O192  1  0.52999003  0.27402049  0.12948526  1
  O  O193  1  0.49846422  0.24314103  0.62903724  1
  O  O194  1  0.49787838  0.70597482  0.13096770  1
  O  O195  1  0.51388316  0.74019613  0.62319435  1
  O  O196  1  1.07684194  0.24558679  0.17521164  1
  O  O197  1  0.97129445  0.24499384  0.61278434  1
  O  O198  1  0.99799196  0.75049406  0.13396139  1
  O  O199  1  0.99592360  0.72631920  0.63884252  1
  O  O200  1  -0.00811339  0.27896671  0.40844702  1
  O  O201  1  -0.00742667  0.24267052  0.87072042  1
  O  O202  1  -0.01912668  0.76791215  0.35204837  1
  O  O203  1  -0.00943587  0.74619624  0.85322971  1
  O  O204  1  0.51948910  0.25510369  0.39165094  1
  O  O205  1  0.50832151  0.25526145  0.85656541  1
  O  O206  1  0.50146798  0.72380546  0.34474664  1
  O  O207  1  0.50299505  0.70603304  0.93786216  1
  O  O208  1  0.29662530  0.01763266  0.40076236  1
  O  O209  1  0.23155293  0.11799783  0.98473351  1
  O  O210  1  0.23613506  0.61850606  0.48182429  1
  O  O211  1  0.23286505  0.63384010  1.00085523  1
  O  O212  1  0.74285726  0.13575974  0.49359750  1
  O  O213  1  0.75400365  0.12050246  0.98147129  1
  O  O214  1  0.75156901  0.64357142  0.53429970  1
  O  O215  1  0.74545674  0.59794332  0.97316701  1
  O  O216  1  0.24896541  0.39265437  -0.00736631  1
  O  O217  1  0.26990146  0.39339436  0.50236128  1
  O  O218  1  0.23828775  0.87381952  0.02015660  1
  O  O219  1  0.24545416  0.85557098  0.52257663  1
  O  O220  1  0.77144277  0.38516433  0.00846932  1
  O  O221  1  0.74466971  0.36333232  0.51290691  1
  O  O222  1  0.77387792  0.89044255  -0.00224421  1
  O  O223  1  0.74766049  0.86172915  0.53418821  1
  O  O224  1  0.13438180  0.50712966  0.24280899  1
  O  O225  1  0.14721527  0.50040162  0.75889798  1
  O  O226  1  0.11942965  0.98910998  0.25593469  1
  O  O227  1  0.12867133  1.00188375  0.75182135  1
  O  O228  1  0.65885379  0.48406613  0.25533827  1
  O  O229  1  0.61465200  0.49211227  0.73663275  1
  O  O230  1  0.61183310  1.02889950  0.23205404  1
  O  O231  1  0.61381629  1.01629228  0.74644180  1
  O  O232  1  0.38688358  0.03625061  0.24210108  1
  O  O233  1  0.35491294  -0.00996827  0.77067926  1
  O  O234  1  0.35507413  0.50976321  0.24366561  1
  O  O235  1  0.36580500  0.52716900  0.74053158  1
  O  O236  1  0.87639863  0.01778611  0.26859132  1
  O  O237  1  0.94281776  0.02299495  0.77518049  1
  O  O238  1  0.86707252  0.49514963  0.26301595  1
  O  O239  1  0.86592653  0.46797973  0.77997633  1
  O  O240  1  0.10491192  0.38713186  0.38691839  1
  O  O241  1  0.12121372  0.34728485  0.87497610  1
  O  O242  1  0.10881901  0.87113661  0.36049731  1
  O  O243  1  0.10246599  0.88502028  0.87806052  1
  O  O244  1  0.63319951  0.36624622  0.38385073  1
  O  O245  1  0.60408277  0.37889535  0.85178767  1
  O  O246  1  0.64103701  0.87649089  0.35398861  1
  O  O247  1  0.62244502  0.82435543  0.91018216  1
  O  O248  1  0.36734000  0.14547079  0.12437480  1
  O  O249  1  0.39376669  0.13198729  0.63376024  1
  O  O250  1  0.36803800  0.61322307  0.12486144  1
  O  O251  1  0.38938166  0.64245284  0.62827558  1
  O  O252  1  0.86448094  0.12054258  0.14836525  1
  O  O253  1  0.85837056  0.12923371  0.63353915  1
  O  O254  1  0.89466618  0.64895294  0.10498187  1
  O  O255  1  0.86861482  0.61682826  0.64768431  1
  O  O256  1  0.25108754  0.26376247  0.10472230  1
  O  O257  1  0.27049826  0.25077542  0.64788694  1
  O  O258  1  0.23972507  0.74628172  0.11647417  1
  O  O259  1  0.25389757  0.75705851  0.61178698  1
  O  O260  1  0.73087065  0.23547358  0.11040818  1
  O  O261  1  0.75409463  0.26257877  0.61730256  1
  O  O262  1  0.76957673  0.74811367  0.13168088  1
  O  O263  1  0.77101027  0.75530227  0.63014884  1
  O  O264  1  0.17506402  0.17623233  0.36914719  1
  O  O265  1  0.26595336  0.23441908  0.85617968  1
  O  O266  1  0.24729686  0.72670283  0.36411914  1
  O  O267  1  0.25192541  0.73344960  0.89496233  1
  O  O268  1  0.74554116  0.24850839  0.39082849  1
  O  O269  1  0.73903850  0.28995805  0.85995156  1
  O  O270  1  0.78082615  0.75064525  0.41528970  1
  O  O271  1  0.77902478  0.73065443  0.87441915  1
  O  O272  1  0.00245945  0.10821794  -0.00323858  1
  O  O273  1  0.00590565  0.12030089  0.48035287  1
  O  O274  1  0.01189417  0.63526610  0.00415066  1
  O  O275  1  0.01418452  0.62520806  0.51919394  1
  O  O276  1  0.52999853  0.10526904  -0.05834081  1
  O  O277  1  0.51040868  0.12846751  0.51382530  1
  O  O278  1  0.50810382  0.58156370  0.03508313  1
  O  O279  1  0.49592881  0.63824167  0.50542731  1
  O  O280  1  0.47388267  0.37465538  0.50823075  1
  O  O281  1  0.50316208  0.38932971  0.98738180  1
  O  O282  1  0.52943182  0.90579442  0.49328653  1
  O  O283  1  0.46877783  0.86517510  1.01966267  1
  O  O284  1  1.00363352  0.40211799  0.51709313  1
  O  O285  1  0.97703386  0.37204309  1.04780658  1
  O  O286  1  0.99815357  0.87135003  0.47665476  1
  O  O287  1  0.99729503  0.89645874  1.00919217  1
  O  O288  1  0.54612519  0.52628969  0.36447867  1
  O  O289  1  0.51640014  0.51357172  0.87770841  1
  O  O290  1  0.49732198  1.02554028  0.39030608  1
  O  O291  1  0.47705575  0.99627885  0.86197303  1
  O  O292  1  0.99008103  0.49499513  0.38354933  1
  O  O293  1  0.99534612  0.50583730  0.86939439  1
  O  O294  1  0.98941099  0.98837202  0.37704398  1
  O  O295  1  1.04711626  0.92751980  0.85837621  1
  O  O296  1  0.00093001  0.00644012  0.13089019  1
  O  O297  1  -0.00923008  0.01172197  0.59831174  1
  O  O298  1  -0.01152647  0.52415690  0.13079362  1
  O  O299  1  -0.00196804  0.51929900  0.62175715  1
  O  O300  1  0.51808024  -0.00226770  0.12529577  1
  O  O301  1  0.51913222  0.02465816  0.61903212  1
  O  O302  1  0.50977389  0.49267010  0.16095631  1
  O  O303  1  0.50088857  0.51420127  0.61808502  1
  O  O304  1  0.25058116  0.38909638  0.25522196  1
  O  O305  1  0.26835400  0.39876752  0.76058438  1
  O  O306  1  0.23437596  0.87479537  0.23672941  1
  O  O307  1  0.23731200  0.88180003  0.77328074  1
  O  O308  1  0.78570953  0.27637151  0.13535979  1
  O  O309  1  0.72680238  0.37791814  0.72558860  1
  O  O310  1  0.69674931  0.85524725  0.31190575  1
  O  O311  1  0.75029099  0.87040559  0.73652287  1
  O  O312  1  0.26360513  0.14828177  0.23926785  1
  O  O313  1  0.24166466  0.10711245  0.77351828  1
  O  O314  1  0.25328976  0.61746958  0.25242925  1
  O  O315  1  0.24794869  0.62452022  0.76425284  1
  O  O316  1  0.74262679  0.13506690  0.26898439  1
  O  O317  1  0.75010973  0.12352138  0.76846201  1
  O  O318  1  0.73550521  0.65991526  0.28076148  1
  O  O319  1  0.74944638  0.62099698  0.75869391  1
  O  O320  1  0.37417199  0.16083933  0.34990750  1
  O  O321  1  0.36180626  0.10896843  0.88941304  1
  O  O322  1  0.36472029  0.61880272  0.37059799  1
  O  O323  1  0.36551834  0.63011969  0.86107535  1
  O  O324  1  0.85891270  0.12643143  0.36585280  1
  O  O325  1  0.84683199  0.10964784  0.89066424  1
  O  O326  1  0.88331429  0.61189002  0.36889480  1
  O  O327  1  0.87350244  0.60909688  0.87539015  1
  O  O328  1  0.14149295  0.37683162  0.10675061  1
  O  O329  1  0.11459320  0.36211772  0.66319247  1
  O  O330  1  0.12861760  0.88054130  0.13709794  1
  O  O331  1  0.20970311  0.82286849  0.58544535  1
  O  O332  1  0.66151233  0.38603896  0.13955146  1
  O  O333  1  0.62022693  0.38999221  0.62316188  1
  O  O334  1  0.63336574  0.90606575  0.16183582  1
  O  O335  1  0.61748902  0.90482122  0.62853601  1
  O  O336  1  0.13473076  0.21683041  0.31898232  1
  O  O337  1  0.10963718  0.22079838  0.76751535  1
  O  O338  1  0.11109931  0.75989303  0.24466025  1
  O  O339  1  0.11593241  0.74926709  0.75228478  1
  O  O340  1  0.61289782  0.25748687  0.26684501  1
  O  O341  1  0.61723617  0.26818741  0.74680094  1
  O  O342  1  0.59839451  0.75208986  0.22496935  1
  O  O343  1  0.56163435  0.80805167  0.76576968  1
  O  O344  1  0.38804503  0.25377475  0.21672752  1
  O  O345  1  0.39875344  0.26354406  0.73913509  1
  O  O346  1  0.37248915  0.72484847  0.24045752  1
  O  O347  1  0.35951745  0.73602041  0.75012421  1
  O  O348  1  0.86536305  0.24008444  0.25844662  1
  O  O349  1  0.86302986  0.26484886  0.72853054  1
  O  O350  1  0.89172775  0.75494839  0.23221800  1
  O  O351  1  0.88908962  0.75555183  0.73425545  1
  O  O352  1  0.37977382  0.50730964  0.49375632  1
  O  O353  1  0.37178315  0.51876026  0.97856797  1
  O  O354  1  0.40055425  1.00301383  0.51539867  1
  O  O355  1  0.36314551  0.99049253  0.99527670  1
  O  O356  1  0.89464545  0.52586089  0.50112653  1
  O  O357  1  0.88454649  0.49186457  0.98631504  1
  O  O358  1  0.88521753  1.01051497  0.47832769  1
  O  O359  1  0.89155786  0.99445732  1.01250417  1
  O  O360  1  0.10627939  0.01069419  -0.00241758  1
  O  O361  1  0.10243076  -0.00732385  0.48859092  1
  O  O362  1  0.12235670  0.51277116  -0.01003239  1
  O  O363  1  0.10709974  0.51830943  0.49318691  1
  O  O364  1  0.62441819  -0.02121080  0.03096958  1
  O  O365  1  0.62491673  0.02099028  0.49929473  1
  O  O366  1  0.63191394  0.47148992  0.04899770  1
  O  O367  1  0.61703056  0.49936785  0.50267813  1
  O  O368  1  0.35448274  0.36241990  0.11511748  1
  O  O369  1  0.37324776  0.37036794  0.62095118  1
  O  O370  1  0.34851485  0.89197616  0.12109801  1
  O  O371  1  0.40802798  0.86784919  0.62465560  1
  O  O372  1  0.91324298  0.36995136  0.10411801  1
  O  O373  1  0.85051619  0.40320011  0.62779616  1
  O  O374  1  0.87414972  0.87040839  0.12770497  1
  O  O375  1  0.86717282  0.89968561  0.63508778  1
  O  O376  1  0.14695775  0.10492731  0.38665739  1
  O  O377  1  0.13470733  0.14018612  0.88659852  1
  O  O378  1  0.11508771  0.63086235  0.38212512  1
  O  O379  1  0.13533123  0.63025506  0.88927534  1
  O  O380  1  0.63541369  0.13927172  0.38428252  1
  O  O381  1  0.64826085  0.15947107  0.86984767  1
  O  O382  1  0.68178064  0.65544402  0.32827508  1
  O  O383  1  0.64377845  0.65173808  0.86768144  1
