# generated using pymatgen
data_VZnO4
_symmetry_space_group_name_H-M   'P 1'
_cell_length_a   16.97125985
_cell_length_b   16.94877653
_cell_length_c   17.00643437
_cell_angle_alpha   89.56511389
_cell_angle_beta   90.03976056
_cell_angle_gamma   90.49877456
_symmetry_Int_Tables_number   1
_chemical_formula_structural   VZnO4
_chemical_formula_sum   'V64 Zn64 O256'
_cell_volume   4891.43911913
_cell_formula_units_Z   64
loop_
 _symmetry_equiv_pos_site_id
 _symmetry_equiv_pos_as_xyz
  1  'x, y, z'
loop_
 _atom_site_type_symbol
 _atom_site_label
 _atom_site_symmetry_multiplicity
 _atom_site_fract_x
 _atom_site_fract_y
 _atom_site_fract_z
 _atom_site_occupancy
  V  V0  1  0.85372591  0.36081920  -0.00471194  1
  V  V1  1  0.74408794  0.62784565  0.36604387  1
  V  V2  1  0.83560712  -0.00591152  0.87493957  1
  V  V3  1  0.23471270  0.88252288  0.14699160  1
  V  V4  1  0.11066961  0.62233697  0.48851649  1
  V  V5  1  0.00861862  0.85337657  0.37763492  1
  V  V6  1  0.25168331  0.73960588  0.47149619  1
  V  V7  1  0.36904439  -0.01498151  0.87470747  1
  V  V8  1  0.86920586  0.74218505  0.61320139  1
  V  V9  1  0.62076119  -0.00039011  0.60245514  1
  V  V10  1  0.62576887  0.35810068  0.25077296  1
  V  V11  1  0.24959370  0.37849327  0.09473642  1
  V  V12  1  0.63436788  0.23954400  0.87808377  1
  V  V13  1  0.11735293  0.48582141  0.13512175  1
  V  V14  1  0.53313782  0.62828087  0.62436382  1
  V  V15  1  0.25912831  0.04148773  0.29431672  1
  V  V16  1  0.25488915  0.40348136  0.64252644  1
  V  V17  1  0.74737909  0.88008147  0.63097262  1
  V  V18  1  -0.00208092  0.12087893  0.60209127  1
  V  V19  1  0.09452463  0.51239948  0.64537495  1
  V  V20  1  0.50593568  0.90061215  0.38701410  1
  V  V21  1  0.20949847  0.64043049  0.89210237  1
  V  V22  1  0.75183409  0.23965594  0.47486005  1
  V  V23  1  0.21584198  0.77085373  0.01008223  1
  V  V24  1  0.88924995  0.49458893  0.36750458  1
  V  V25  1  0.86421814  0.24719319  0.62988304  1
  V  V26  1  0.25039337  0.86386896  0.61451147  1
  V  V27  1  0.72985980  0.66706875  0.87830817  1
  V  V28  1  0.50180527  0.25713144  0.74823361  1
  V  V29  1  0.01582231  0.35852914  0.86998795  1
  V  V30  1  0.36835051  0.26186928  0.62510040  1
  V  V31  1  0.62412385  0.11853016  0.00205450  1
  V  V32  1  0.86525542  0.64273212  0.22887782  1
  V  V33  1  0.37452210  0.26472526  0.09557009  1
  V  V34  1  0.48512195  -0.00672549  -0.00174621  1
  V  V35  1  0.62751965  0.48989074  0.10576470  1
  V  V36  1  0.37854388  0.12528473  0.74923650  1
  V  V37  1  0.51262875  0.74032218  0.76770379  1
  V  V38  1  0.86611336  0.89315644  0.48269848  1
  V  V39  1  0.28115005  0.48881761  0.27870155  1
  V  V40  1  0.88203970  0.86567027  -0.00250816  1
  V  V41  1  0.37755832  0.77561991  0.13542115  1
  V  V42  1  0.49395747  0.37962520  0.88586945  1
  V  V43  1  0.23679983  0.13975898  0.88010894  1
  V  V44  1  0.60727239  0.13152402  0.48158267  1
  V  V45  1  0.75578685  0.48270895  0.22928663  1
  V  V46  1  -0.00406476  0.63198044  0.11978288  1
  V  V47  1  0.41655323  0.48436022  0.39523851  1
  V  V48  1  0.00445961  0.78510909  0.72483919  1
  V  V49  1  0.48655380  0.25019182  0.25955590  1
  V  V50  1  0.89028400  0.13604543  0.27145519  1
  V  V51  1  0.23177155  -0.00769114  0.75010781  1
  V  V52  1  0.63951507  0.38868427  0.74561051  1
  V  V53  1  0.11532567  -0.00149367  0.60225739  1
  V  V54  1  0.00173571  0.48647952  -0.00148470  1
  V  V55  1  0.48557949  0.59472935  0.12677068  1
  V  V56  1  0.13045456  0.02259858  0.11756049  1
  V  V57  1  0.86724150  0.49020560  0.86019903  1
  V  V58  1  0.75608227  0.01655018  0.25559226  1
  V  V59  1  -0.00066726  0.22732200  0.75809873  1
  V  V60  1  0.84039405  0.23276856  0.11221747  1
  V  V61  1  0.23160482  0.25982208  0.50275522  1
  V  V62  1  0.48337272  0.12776527  0.12013767  1
  V  V63  1  0.62752957  0.87882499  0.23801510  1
  Zn  Zn64  1  0.22808875  0.18462481  0.19007920  1
  Zn  Zn65  1  0.18476781  0.17905076  0.69318488  1
  Zn  Zn66  1  0.23704080  0.68430241  0.26220248  1
  Zn  Zn67  1  0.17978588  0.68658868  0.69876196  1
  Zn  Zn68  1  0.67553644  0.16441868  0.19398448  1
  Zn  Zn69  1  0.67238344  0.17674977  0.68073861  1
  Zn  Zn70  1  0.63059421  0.66839942  0.21590060  1
  Zn  Zn71  1  0.69324239  0.70079438  0.69957387  1
  Zn  Zn72  1  0.31523655  0.32327357  0.32177293  1
  Zn  Zn73  1  0.31225176  0.31851144  0.81572526  1
  Zn  Zn74  1  0.32923700  0.81641792  0.30761833  1
  Zn  Zn75  1  0.29242793  0.79327348  0.80914377  1
  Zn  Zn76  1  0.82380561  0.30791391  0.29699372  1
  Zn  Zn77  1  0.81619316  0.30270968  0.80797785  1
  Zn  Zn78  1  0.80469837  0.81935376  0.30760003  1
  Zn  Zn79  1  0.82312370  0.81842538  0.80379076  1
  Zn  Zn80  1  0.18113459  0.43603352  0.46092786  1
  Zn  Zn81  1  0.18842339  0.44671597  0.92252997  1
  Zn  Zn82  1  0.18630072  0.92919312  0.43258039  1
  Zn  Zn83  1  0.19102950  0.95262714  0.95163339  1
  Zn  Zn84  1  0.74126787  0.41237066  0.40936778  1
  Zn  Zn85  1  0.68261122  0.43357944  0.91909832  1
  Zn  Zn86  1  0.68780376  0.94412413  0.42524423  1
  Zn  Zn87  1  0.71118587  0.86679389  0.94124593  1
  Zn  Zn88  1  0.30698430  0.06757397  0.06083486  1
  Zn  Zn89  1  0.28684758  0.08434695  0.57428521  1
  Zn  Zn90  1  0.27352190  0.59504152  0.09537980  1
  Zn  Zn91  1  0.29776360  0.54879265  0.52936016  1
  Zn  Zn92  1  0.81222852  0.04420543  0.05861931  1
  Zn  Zn93  1  0.80899025  0.06372896  0.55240370  1
  Zn  Zn94  1  0.81012580  0.55962417  0.04610315  1
  Zn  Zn95  1  0.93061360  0.56604585  0.55310806  1
  Zn  Zn96  1  0.43808213  0.42668099  0.18611568  1
  Zn  Zn97  1  0.45952438  0.43897903  0.57970314  1
  Zn  Zn98  1  0.42754809  0.94934738  0.20489694  1
  Zn  Zn99  1  0.42761538  0.93826793  0.68079506  1
  Zn  Zn100  1  0.92595640  0.41657886  0.17603864  1
  Zn  Zn101  1  0.93775734  0.42019290  0.68892031  1
  Zn  Zn102  1  0.92272523  0.96783346  0.16347046  1
  Zn  Zn103  1  0.92014241  0.95023477  0.68547138  1
  Zn  Zn104  1  0.05790108  0.05293712  0.26574076  1
  Zn  Zn105  1  0.06146617  0.05473491  0.81912803  1
  Zn  Zn106  1  0.06574158  0.58340617  0.29466748  1
  Zn  Zn107  1  0.02899988  0.57390116  0.82752767  1
  Zn  Zn108  1  0.55717856  0.05326345  0.30052563  1
  Zn  Zn109  1  0.55321166  0.06075313  0.82082879  1
  Zn  Zn110  1  0.56584852  0.54528729  0.30208930  1
  Zn  Zn111  1  0.56957381  0.56414855  0.81758941  1
  Zn  Zn112  1  0.46875428  0.27677037  0.46428801  1
  Zn  Zn113  1  0.43189018  0.18581540  0.92702038  1
  Zn  Zn114  1  0.42299592  0.65329782  0.45976543  1
  Zn  Zn115  1  0.45296380  0.71226515  0.96966014  1
  Zn  Zn116  1  0.94049160  0.20869676  0.44744661  1
  Zn  Zn117  1  0.91558462  0.17775168  0.92897273  1
  Zn  Zn118  1  0.92146544  0.69287595  0.42601033  1
  Zn  Zn119  1  0.90605204  0.67106316  0.94367036  1
  Zn  Zn120  1  0.05726203  0.31334047  0.06195807  1
  Zn  Zn121  1  0.09045934  0.30460486  0.62486395  1
  Zn  Zn122  1  0.04621074  0.83489369  0.08521361  1
  Zn  Zn123  1  0.06377845  0.81027755  0.54772176  1
  Zn  Zn124  1  0.57259297  0.30833058  0.06148069  1
  Zn  Zn125  1  0.62180886  0.34615230  0.53771342  1
  Zn  Zn126  1  0.55675084  0.83523343  0.08592141  1
  Zn  Zn127  1  0.54060746  0.82271751  0.58146024  1
  O  O128  1  0.15770760  0.12156378  0.12792228  1
  O  O129  1  0.10883216  0.11059543  0.62994897  1
  O  O130  1  0.09677748  0.58982192  0.12027115  1
  O  O131  1  0.12502791  0.61205119  0.63062979  1
  O  O132  1  0.59481798  0.13708152  0.10784209  1
  O  O133  1  0.62143121  0.10484609  0.60979870  1
  O  O134  1  0.62638653  0.59118436  0.12732276  1
  O  O135  1  0.63385211  0.63008613  0.63121545  1
  O  O136  1  0.38855104  0.38253595  0.39044709  1
  O  O137  1  0.39361402  0.37265055  0.87033022  1
  O  O138  1  0.42607972  0.84864136  0.34660878  1
  O  O139  1  0.35770947  0.88840365  0.87105689  1
  O  O140  1  0.86253840  0.39092161  0.36597006  1
  O  O141  1  0.87852448  0.36988522  0.88288502  1
  O  O142  1  0.87995660  0.86950027  0.38067525  1
  O  O143  1  0.87320562  0.88382731  0.88579984  1
  O  O144  1  0.25587977  0.00631799  0.39046474  1
  O  O145  1  0.25322555  0.00317666  0.86282901  1
  O  O146  1  0.24680128  0.48383715  0.37460345  1
  O  O147  1  0.23753332  0.54219174  0.88819685  1
  O  O148  1  0.75772640  0.00661940  0.35641096  1
  O  O149  1  0.73617203  -0.03344560  0.88921804  1
  O  O150  1  0.76051457  0.50533864  0.34313736  1
  O  O151  1  0.76883062  0.49810307  0.87821770  1
  O  O152  1  0.22585733  0.48730480  0.10499961  1
  O  O153  1  0.27037951  0.50282843  0.63230601  1
  O  O154  1  0.24464104  0.99015054  0.11949213  1
  O  O155  1  0.23037537  1.00373725  0.63379586  1
  O  O156  1  0.74630973  0.49539261  0.12281135  1
  O  O157  1  0.77247080  0.50143602  0.63914928  1
  O  O158  1  0.80365507  0.98281590  0.15552242  1
  O  O159  1  0.73409214  0.99228914  0.61341269  1
  O  O160  1  0.00267590  0.33063370  0.22162551  1
  O  O161  1  -0.00135817  0.35729712  0.76653584  1
  O  O162  1  -0.00869358  0.89910720  0.27211575  1
  O  O163  1  -0.00203905  0.88434247  0.73847058  1
  O  O164  1  0.51425298  0.35935914  0.24488316  1
  O  O165  1  0.51501716  0.35886197  0.75944528  1
  O  O166  1  0.52824319  0.93043639  0.25223217  1
  O  O167  1  0.45243565  0.84222954  0.75272684  1
  O  O168  1  0.49784517  0.13930248  0.22837473  1
  O  O169  1  0.48229285  0.12705916  0.75620372  1
  O  O170  1  0.51290358  0.62049644  0.22411261  1
  O  O171  1  0.51237727  0.63468100  0.74529330  1
  O  O172  1  0.99206298  0.14255511  0.25887429  1
  O  O173  1  0.99719353  0.12617730  0.75889535  1
  O  O174  1  0.97583879  0.61492465  0.22488658  1
  O  O175  1  0.98880978  0.67449536  0.77323079  1
  O  O176  1  0.37375235  0.25802955  -0.00142390  1
  O  O177  1  0.36795342  0.25335920  0.52436260  1
  O  O178  1  0.36647712  0.74275721  0.03782823  1
  O  O179  1  0.34978279  0.73503138  0.49379986  1
  O  O180  1  0.86445300  0.25171529  -0.00175580  1
  O  O181  1  0.85540363  0.24383692  0.51562115  1
  O  O182  1  0.92423177  0.77328898  -0.02039024  1
  O  O183  1  0.87357687  0.76176004  0.50892070  1
  O  O184  1  0.13204563  0.27007487  0.52547825  1
  O  O185  1  0.07481655  0.20124661  1.01346392  1
  O  O186  1  0.13476870  0.73118852  0.50306841  1
  O  O187  1  0.11707055  0.77948322  1.00975213  1
  O  O188  1  0.64334393  0.23428982  0.50181105  1
  O  O189  1  0.62405040  0.23575459  0.98554882  1
  O  O190  1  0.64919198  0.75342785  0.49228966  1
  O  O191  1  0.66516043  0.72895761  1.01926192  1
  O  O192  1  0.48177281  0.25052211  0.12065844  1
  O  O193  1  0.47961723  0.25077952  0.64675179  1
  O  O194  1  0.47762540  0.77864319  0.14668139  1
  O  O195  1  0.50539682  0.73827933  0.64662859  1
  O  O196  1  1.01774309  0.27648311  0.17089831  1
  O  O197  1  0.98890583  0.23115741  0.63406328  1
  O  O198  1  1.01004275  0.72761725  0.11644027  1
  O  O199  1  0.98416969  0.76520933  0.61981810  1
  O  O200  1  0.00147064  0.29197727  0.38981163  1
  O  O201  1  -0.00644597  0.24597790  0.86672315  1
  O  O202  1  -0.00789534  0.75502694  0.35966474  1
  O  O203  1  -0.01837325  0.73328297  0.82773672  1
  O  O204  1  0.49044480  0.24236299  0.35695749  1
  O  O205  1  0.50354724  0.25171959  0.86398124  1
  O  O206  1  0.60860840  0.72814880  0.43905354  1
  O  O207  1  0.48699497  0.73228598  0.86735755  1
  O  O208  1  0.24170304  0.15815516  0.50591772  1
  O  O209  1  0.25334061  0.12496588  0.97842618  1
  O  O210  1  0.23525987  0.63475420  0.49846231  1
  O  O211  1  0.22933998  0.65353047  1.00617820  1
  O  O212  1  0.74099804  0.13413279  0.49293001  1
  O  O213  1  0.71928970  0.10005846  1.01598529  1
  O  O214  1  0.73750654  0.60705672  0.45990494  1
  O  O215  1  0.79195884  0.63642037  0.96119718  1
  O  O216  1  0.25001831  0.37786801  -0.00377949  1
  O  O217  1  0.24910407  0.37494571  0.53449180  1
  O  O218  1  0.24609922  0.87392464  0.01370923  1
  O  O219  1  0.23907977  0.84845813  0.50485053  1
  O  O220  1  0.75659125  0.36862694  -0.01171426  1
  O  O221  1  0.73171973  0.34970681  0.50096662  1
  O  O222  1  0.78932816  0.84855160  0.02908887  1
  O  O223  1  0.76187479  0.88076567  0.48787610  1
  O  O224  1  0.11184697  0.48380012  0.23276211  1
  O  O225  1  0.08579253  0.51710230  0.74547707  1
  O  O226  1  0.16446016  1.01919972  0.25205014  1
  O  O227  1  0.13197390  0.99535292  0.74920158  1
  O  O228  1  0.64001748  0.47940358  0.23502394  1
  O  O229  1  0.63698104  0.48694121  0.76331629  1
  O  O230  1  0.65442824  1.03553709  0.23518058  1
  O  O231  1  0.64405030  1.02613779  0.74950809  1
  O  O232  1  0.34539658  0.00916202  0.25236002  1
  O  O233  1  0.36948359  0.00881467  0.75746346  1
  O  O234  1  0.38711464  0.48359985  0.27445493  1
  O  O235  1  0.37105047  0.51279425  0.78047045  1
  O  O236  1  0.88342560  0.03111125  0.25965310  1
  O  O237  1  0.86370026  -0.00975789  0.77553578  1
  O  O238  1  0.86353312  0.48728002  0.23600447  1
  O  O239  1  0.87432493  0.47598989  0.76204989  1
  O  O240  1  0.09236991  0.38666903  0.39366414  1
  O  O241  1  0.11447252  0.36617664  0.87982906  1
  O  O242  1  0.10914507  0.86252979  0.38497522  1
  O  O243  1  0.11651547  0.88691342  0.87973005  1
  O  O244  1  0.64029705  0.37048927  0.34810938  1
  O  O245  1  0.61877448  0.35235662  0.86472988  1
  O  O246  1  0.61127112  0.88489446  0.36240956  1
  O  O247  1  0.61988486  0.80328885  0.99234862  1
  O  O248  1  0.37320634  0.15016156  0.11675929  1
  O  O249  1  0.36317874  0.13684058  0.64496467  1
  O  O250  1  0.38468658  0.58773330  0.12010874  1
  O  O251  1  0.35379965  0.57483660  0.74886978  1
  O  O252  1  0.87434511  0.13770402  0.10216555  1
  O  O253  1  0.89121162  0.12253702  0.61674101  1
  O  O254  1  0.88053363  0.62157552  0.12010542  1
  O  O255  1  0.87088826  0.64222831  0.61509942  1
  O  O256  1  0.26435419  0.26875527  0.12101125  1
  O  O257  1  0.25853131  0.25730677  0.63422723  1
  O  O258  1  0.23920061  0.77515045  0.12068420  1
  O  O259  1  0.24895630  0.76734405  0.63891335  1
  O  O260  1  0.74243477  0.23132052  0.11646923  1
  O  O261  1  0.76550774  0.22894128  0.64410358  1
  O  O262  1  0.68952982  0.73233071  0.08879479  1
  O  O263  1  0.75915967  0.76593047  0.62336523  1
  O  O264  1  0.24483132  0.28484491  0.40494104  1
  O  O265  1  0.24701280  0.23868614  0.86269741  1
  O  O266  1  0.25236829  0.74612260  0.36939631  1
  O  O267  1  0.24230143  0.75813727  0.90731677  1
  O  O268  1  0.75857507  0.25082644  0.37684344  1
  O  O269  1  0.73189172  0.23786501  0.86304854  1
  O  O270  1  0.76192512  0.72851233  0.36213183  1
  O  O271  1  0.73997189  0.77322844  0.87575189  1
  O  O272  1  0.01644936  0.15363696  0.01008901  1
  O  O273  1  0.00665840  0.13499055  0.50505486  1
  O  O274  1  -0.01702972  0.59117338  0.01270862  1
  O  O275  1  0.00527407  0.63470197  0.49447193  1
  O  O276  1  0.49109142  0.12470863  0.00648836  1
  O  O277  1  0.51389665  0.15979009  0.49723384  1
  O  O278  1  0.51193793  0.65291439  0.04681844  1
  O  O279  1  0.51148397  0.64775698  0.52434751  1
  O  O280  1  0.51490061  0.36480162  0.51619773  1
  O  O281  1  0.50841672  0.36293317  0.98399786  1
  O  O282  1  0.50835831  0.86921005  0.48452687  1
  O  O283  1  0.48791892  0.89578573  1.01268334  1
  O  O284  1  1.03541611  0.34974513  0.43297533  1
  O  O285  1  0.99117576  0.36449785  0.98579408  1
  O  O286  1  0.98657088  0.87114076  0.48232072  1
  O  O287  1  1.04069696  0.90147509  0.88615205  1
  O  O288  1  0.51667127  0.48834004  0.38552077  1
  O  O289  1  0.51484102  0.47834329  0.87208523  1
  O  O290  1  0.49239251  1.00095516  0.38303404  1
  O  O291  1  0.47990360  0.99745066  0.88271074  1
  O  O292  1  0.98538290  0.50517060  0.34371209  1
  O  O293  1  0.99436568  0.47016841  0.88538757  1
  O  O294  1  1.00173005  0.96171284  0.32472820  1
  O  O295  1  1.01987504  0.97856650  0.89692087  1
  O  O296  1  0.03238167  0.01753909  0.15420523  1
  O  O297  1  0.00571135  0.00890032  0.61976573  1
  O  O298  1  0.00747339  0.46296392  0.10861620  1
  O  O299  1  -0.00678781  0.49565862  0.61995052  1
  O  O300  1  0.46824576  0.02269595  0.11137273  1
  O  O301  1  0.52825044  -0.02712028  0.64165449  1
  O  O302  1  0.51207095  0.49014135  0.11906231  1
  O  O303  1  0.49675397  0.53158771  0.63330161  1
  O  O304  1  0.25969329  0.39663455  0.23767567  1
  O  O305  1  0.25551242  0.38369498  0.74202695  1
  O  O306  1  0.24557933  0.87227241  0.24662100  1
  O  O307  1  0.25068438  0.89002283  0.73908709  1
  O  O308  1  0.74575587  0.37675686  0.23697815  1
  O  O309  1  0.73666779  0.36422024  0.75759940  1
  O  O310  1  0.73268100  0.89471097  0.25970837  1
  O  O311  1  0.74854350  0.87975532  0.72874601  1
  O  O312  1  0.26433333  0.14477349  0.28829795  1
  O  O313  1  0.25389600  0.11018122  0.75585935  1
  O  O314  1  0.25594422  0.57463880  0.22614583  1
  O  O315  1  0.24484251  0.67546378  0.79304654  1
  O  O316  1  0.77277976  0.12374508  0.24365085  1
  O  O317  1  0.70210877  0.07712495  0.75499552  1
  O  O318  1  0.76497912  0.60774452  0.23138846  1
  O  O319  1  0.75724739  0.64886966  0.78320469  1
  O  O320  1  0.38933024  0.08042416  0.44582095  1
  O  O321  1  0.35998222  0.11952440  0.86068961  1
  O  O322  1  0.38486769  0.58647976  0.37999505  1
  O  O323  1  0.39700993  0.58400795  0.92598418  1
  O  O324  1  0.88215219  0.15248009  0.36894879  1
  O  O325  1  0.85294282  0.09670013  0.88947683  1
  O  O326  1  0.86782925  0.61527658  0.34508226  1
  O  O327  1  0.91179653  0.58617163  0.86771024  1
  O  O328  1  0.14099005  0.37093182  0.11416282  1
  O  O329  1  0.13869573  0.41089106  0.63890907  1
  O  O330  1  0.13080331  0.89642122  0.13684295  1
  O  O331  1  0.13299437  0.89170895  0.61121096  1
  O  O332  1  0.62552357  0.37982225  0.13162124  1
  O  O333  1  0.62444418  0.37386751  0.64806739  1
  O  O334  1  0.62928501  0.90313161  0.13932951  1
  O  O335  1  0.64176025  0.88098117  0.60442206  1
  O  O336  1  0.14435289  0.26478869  0.26701111  1
  O  O337  1  0.10087265  0.24872556  0.73043219  1
  O  O338  1  0.12678315  0.67487372  0.25242610  1
  O  O339  1  0.10344762  0.76718222  0.72528994  1
  O  O340  1  0.61403941  0.25303613  0.23859272  1
  O  O341  1  0.60875428  0.23229285  0.75807410  1
  O  O342  1  0.61864027  0.77910943  0.23643620  1
  O  O343  1  0.61018727  0.76447939  0.76107348  1
  O  O344  1  0.38623508  0.26737381  0.24341794  1
  O  O345  1  0.38147827  0.24009863  0.75328282  1
  O  O346  1  0.34029533  0.72957153  0.22460092  1
  O  O347  1  0.39550049  0.78067529  0.74651122  1
  O  O348  1  0.86923340  0.23908028  0.22014496  1
  O  O349  1  0.88908932  0.24125649  0.74251457  1
  O  O350  1  0.86032264  0.74068774  0.23279788  1
  O  O351  1  0.88245077  0.77120602  0.71943267  1
  O  O352  1  0.39277906  0.49744567  0.50168884  1
  O  O353  1  0.38275571  0.52411122  0.96470972  1
  O  O354  1  0.38107140  1.03600464  0.50340463  1
  O  O355  1  0.37294444  1.00728365  0.98134721  1
  O  O356  1  0.88207740  0.51074007  0.46665835  1
  O  O357  1  0.88110289  0.47292165  0.99564482  1
  O  O358  1  0.87572911  0.99276569  0.48928695  1
  O  O359  1  0.87192452  0.98204921  0.98380101  1
  O  O360  1  0.11978210  0.00955461  0.01836235  1
  O  O361  1  0.12687653  0.00604988  0.50561536  1
  O  O362  1  0.10306194  0.48651459  -0.00429414  1
  O  O363  1  0.12512114  0.51815561  0.52160377  1
  O  O364  1  0.58929743  0.01528333  -0.00440068  1
  O  O365  1  0.61738218  0.01141728  0.49846622  1
  O  O366  1  0.63500854  0.48692449  0.00697401  1
  O  O367  1  0.72506526  0.49899868  0.58555989  1
  O  O368  1  0.36438090  0.37471795  0.11154876  1
  O  O369  1  0.36929526  0.36741554  0.63627059  1
  O  O370  1  0.35780123  0.87866337  0.13984839  1
  O  O371  1  0.34610153  0.89728232  0.61201565  1
  O  O372  1  0.87134779  0.34653782  0.10370239  1
  O  O373  1  0.87853887  0.34678281  0.62636828  1
  O  O374  1  0.94706247  0.88889960  0.08305660  1
  O  O375  1  0.85686030  0.88787555  0.60581836  1
  O  O376  1  0.11183348  0.22611919  0.31943210  1
  O  O377  1  0.13724698  0.12170246  0.86925787  1
  O  O378  1  0.12176722  0.60648306  0.39210323  1
  O  O379  1  0.11078023  0.63582772  0.88436229  1
  O  O380  1  0.61355481  0.11996401  0.38252611  1
  O  O381  1  0.61201078  0.13055058  0.88962323  1
  O  O382  1  0.64462841  0.62512743  0.32626938  1
  O  O383  1  0.63673557  0.62976036  0.88776338  1
