# generated using pymatgen
data_VZnO4
_symmetry_space_group_name_H-M   'P 1'
_cell_length_a   16.90837203
_cell_length_b   16.93927613
_cell_length_c   17.05761484
_cell_angle_alpha   90.10767249
_cell_angle_beta   89.60958897
_cell_angle_gamma   90.08038373
_symmetry_Int_Tables_number   1
_chemical_formula_structural   VZnO4
_chemical_formula_sum   'V64 Zn64 O256'
_cell_volume   4885.43992570
_cell_formula_units_Z   64
loop_
 _symmetry_equiv_pos_site_id
 _symmetry_equiv_pos_as_xyz
  1  'x, y, z'
loop_
 _atom_site_type_symbol
 _atom_site_label
 _atom_site_symmetry_multiplicity
 _atom_site_fract_x
 _atom_site_fract_y
 _atom_site_fract_z
 _atom_site_occupancy
  V  V0  1  0.62937032  0.62681514  -0.00371926  1
  V  V1  1  0.70315541  0.31203193  -0.05280356  1
  V  V2  1  0.15302130  0.49998140  0.14396401  1
  V  V3  1  0.87023202  0.00903439  0.86558138  1
  V  V4  1  0.00814412  0.35920275  0.38804559  1
  V  V5  1  0.26006161  0.51049354  0.77146939  1
  V  V6  1  0.00778925  0.13544814  0.13064904  1
  V  V7  1  0.00074306  0.50652259  -0.01261390  1
  V  V8  1  0.51279452  0.11881677  0.12812737  1
  V  V9  1  0.37923091  0.12042769  0.26573382  1
  V  V10  1  -0.01085409  0.61518874  0.12015181  1
  V  V11  1  0.13306340  0.74346078  0.88863493  1
  V  V12  1  0.74559023  0.12990490  0.86491350  1
  V  V13  1  0.76737378  0.38240649  0.61526820  1
  V  V14  1  0.64769880  -0.01037211  0.13970807  1
  V  V15  1  0.12965218  0.53172685  0.62693203  1
  V  V16  1  0.00753232  0.87210805  0.88074433  1
  V  V17  1  0.74680639  0.74634474  0.48664601  1
  V  V18  1  -0.00053007  0.01089637  0.00543486  1
  V  V19  1  0.00575257  0.25118844  0.74065000  1
  V  V20  1  0.12905312  0.38501819  0.72875758  1
  V  V21  1  0.00449483  0.87065296  0.36661822  1
  V  V22  1  0.13377415  0.87750334  0.73691716  1
  V  V23  1  0.62341307  0.50098889  0.65263455  1
  V  V24  1  0.64049939  0.50371581  0.12986572  1
  V  V25  1  0.51398063  -0.00694847  0.49322757  1
  V  V26  1  0.50682951  0.87299308  0.87551042  1
  V  V27  1  0.36707564  0.51461889  0.35942441  1
  V  V28  1  0.25627824  -0.00228938  0.77248775  1
  V  V29  1  0.63917225  0.12214196  0.00487203  1
  V  V30  1  0.86774490  0.12685397  0.24810992  1
  V  V31  1  0.50550225  0.37597707  0.37712443  1
  V  V32  1  0.86265224  -0.01132453  0.35772111  1
  V  V33  1  0.48458129  0.63664520  0.63072382  1
  V  V34  1  0.36183148  0.37721849  0.49961641  1
  V  V35  1  0.49649098  0.49631653  0.00096264  1
  V  V36  1  0.37235642  0.76655135  0.13754874  1
  V  V37  1  0.73917620  0.13639959  0.38667212  1
  V  V38  1  0.74692675  0.74880507  -0.00935443  1
  V  V39  1  0.49620852  0.63627837  0.14040679  1
  V  V40  1  0.50358684  0.51684354  0.49803771  1
  V  V41  1  0.51748216  0.85609944  0.36893548  1
  V  V42  1  0.48822251  0.25660285  0.75090965  1
  V  V43  1  0.12235847  0.28116048  0.89598052  1
  V  V44  1  0.87520129  0.37337704  -0.02331144  1
  V  V45  1  0.34768253  0.86873481  0.48053836  1
  V  V46  1  0.86767833  0.88047239  0.00563593  1
  V  V47  1  0.18158772  -0.05136835  0.20979251  1
  V  V48  1  0.64351318  0.38520311  0.25283420  1
  V  V49  1  0.00565100  0.74289803  0.24290066  1
  V  V50  1  0.26372622  0.22471444  0.46745517  1
  V  V51  1  0.12088624  0.71079355  0.37345800  1
  V  V52  1  0.87256295  0.26374907  0.12756561  1
  V  V53  1  0.24820875  0.72725931  0.01391642  1
  V  V54  1  0.86275949  0.75271448  0.12877141  1
  V  V55  1  0.13463040  0.12941907  -0.00803956  1
  V  V56  1  0.72811168  0.87425281  0.65551024  1
  V  V57  1  0.85446741  0.52687856  0.86112791  1
  V  V58  1  0.86718148  0.87789189  0.50898259  1
  V  V59  1  0.61660336  0.01308336  0.64076817  1
  V  V60  1  0.37517693  0.25120267  0.11536749  1
  V  V61  1  0.33323195  0.75358201  0.62127245  1
  V  V62  1  0.94293103  0.69548508  0.68592908  1
  V  V63  1  0.51596330  0.25238875  0.24909551  1
  Zn  Zn64  1  0.23027012  0.12672610  0.14722309  1
  Zn  Zn65  1  0.16585514  0.17189554  0.78331155  1
  Zn  Zn66  1  0.18824294  0.67395802  0.18770322  1
  Zn  Zn67  1  0.18653286  0.68981830  0.71270115  1
  Zn  Zn68  1  0.69481151  0.19359275  0.19057334  1
  Zn  Zn69  1  0.68546699  0.19759836  0.67172602  1
  Zn  Zn70  1  0.69790960  0.67641545  0.18862483  1
  Zn  Zn71  1  0.66583466  0.69216251  0.60529314  1
  Zn  Zn72  1  0.33376852  0.29998920  0.31859803  1
  Zn  Zn73  1  0.29315545  0.31125441  0.81338780  1
  Zn  Zn74  1  0.29875089  0.80454096  0.31734152  1
  Zn  Zn75  1  0.31816379  0.70080895  0.82080799  1
  Zn  Zn76  1  0.81905480  0.30843585  0.31432539  1
  Zn  Zn77  1  0.81453279  0.31008998  0.78989245  1
  Zn  Zn78  1  0.80683721  0.79314558  0.31328750  1
  Zn  Zn79  1  0.81751221  0.80317738  0.81599934  1
  Zn  Zn80  1  0.19333638  0.45240074  0.42525525  1
  Zn  Zn81  1  0.20336967  0.45923619  0.96704172  1
  Zn  Zn82  1  0.18256120  0.95232804  0.39891972  1
  Zn  Zn83  1  0.19014067  0.94364625  0.94629417  1
  Zn  Zn84  1  0.68831020  0.45200102  0.43781163  1
  Zn  Zn85  1  0.63882417  0.49160314  0.86002610  1
  Zn  Zn86  1  0.68755449  0.93850650  0.42916519  1
  Zn  Zn87  1  0.69300446  0.94702612  0.94612382  1
  Zn  Zn88  1  0.31621868  -0.04341937  0.07663262  1
  Zn  Zn89  1  0.36383119  0.06676579  0.45156745  1
  Zn  Zn90  1  0.31137647  0.55002520  0.08532088  1
  Zn  Zn91  1  0.30886584  0.55701698  0.56353578  1
  Zn  Zn92  1  0.81530737  0.07011122  0.06264997  1
  Zn  Zn93  1  0.79175766  0.03863760  0.54841899  1
  Zn  Zn94  1  0.81780518  0.56113043  0.05358377  1
  Zn  Zn95  1  0.80348126  0.57048127  0.58990586  1
  Zn  Zn96  1  0.44150692  0.43321196  0.17849798  1
  Zn  Zn97  1  0.42411565  0.44329961  0.67924955  1
  Zn  Zn98  1  0.44968277  0.93736677  0.19993748  1
  Zn  Zn99  1  0.39956847  0.96107145  0.63375059  1
  Zn  Zn100  1  0.98163601  0.42879461  0.18950193  1
  Zn  Zn101  1  0.94893402  0.44696359  0.68805228  1
  Zn  Zn102  1  0.94770580  0.93497144  0.18604714  1
  Zn  Zn103  1  0.92011472  0.88879572  0.70938351  1
  Zn  Zn104  1  0.05825968  0.03421407  0.28506112  1
  Zn  Zn105  1  0.05628226  0.05444939  0.81211072  1
  Zn  Zn106  1  -0.00274920  0.56605304  0.33250282  1
  Zn  Zn107  1  0.05709285  0.56747129  0.80800837  1
  Zn  Zn108  1  0.57014975  0.05217601  0.31656602  1
  Zn  Zn109  1  0.54075007  0.07672868  0.82409639  1
  Zn  Zn110  1  0.52317393  0.54410560  0.28598786  1
  Zn  Zn111  1  0.44794783  0.56036976  0.82418400  1
  Zn  Zn112  1  0.47564971  0.19748226  0.45344310  1
  Zn  Zn113  1  0.40858615  0.12128018  0.97546763  1
  Zn  Zn114  1  0.42414513  0.69383688  0.43708570  1
  Zn  Zn115  1  0.41749752  0.66320094  0.97897774  1
  Zn  Zn116  1  0.94256156  0.17441199  0.43117155  1
  Zn  Zn117  1  0.94120020  0.19647545  0.93005261  1
  Zn  Zn118  1  0.97091225  0.72586662  0.48782267  1
  Zn  Zn119  1  0.93330870  0.69017835  0.93771631  1
  Zn  Zn120  1  0.05761539  0.32273891  0.06286305  1
  Zn  Zn121  1  0.09105371  0.29378132  0.56594905  1
  Zn  Zn122  1  0.06791078  0.81991365  0.06564356  1
  Zn  Zn123  1  0.11546344  0.75756715  0.57978823  1
  Zn  Zn124  1  0.56739642  0.31935214  0.06912361  1
  Zn  Zn125  1  0.55564635  0.32550331  0.56645790  1
  Zn  Zn126  1  0.56402768  0.81312250  0.06801652  1
  Zn  Zn127  1  0.55859707  0.82273701  0.56141169  1
  O  O128  1  0.11050649  0.12997034  0.11351331  1
  O  O129  1  0.13094060  0.11794080  0.61217317  1
  O  O130  1  0.09211970  0.59845939  0.13338338  1
  O  O131  1  0.12353639  0.63263178  0.63426316  1
  O  O132  1  0.63200273  0.12458111  0.12271286  1
  O  O133  1  0.63835149  0.10968792  0.61745811  1
  O  O134  1  0.62156244  0.62021426  0.12760461  1
  O  O135  1  0.59860635  0.60587243  0.62590438  1
  O  O136  1  0.39300115  0.38396502  0.37399375  1
  O  O137  1  0.36396247  0.36827384  0.89690909  1
  O  O138  1  0.37865763  0.86494567  0.38134060  1
  O  O139  1  0.40474111  0.86833680  0.88015570  1
  O  O140  1  0.90365423  0.35525739  0.38158466  1
  O  O141  1  0.87140009  0.36719741  0.87915954  1
  O  O142  1  0.86119960  0.88462298  0.35483477  1
  O  O143  1  0.88640694  0.88323750  0.88795339  1
  O  O144  1  0.17030161  0.01038632  0.30191454  1
  O  O145  1  0.26293372  -0.01308894  0.87246402  1
  O  O146  1  0.26955369  0.49082005  0.35282161  1
  O  O147  1  0.24544307  0.50210800  0.87039074  1
  O  O148  1  0.76093717  0.01120898  0.36831591  1
  O  O149  1  0.76049084  0.01497055  0.87718354  1
  O  O150  1  0.75417894  0.53307900  0.37247030  1
  O  O151  1  0.75533458  0.51103000  0.86157613  1
  O  O152  1  0.23094214  0.45808377  0.07720785  1
  O  O153  1  0.23958789  0.51398073  0.64844413  1
  O  O154  1  0.24205502  1.01146894  0.15010712  1
  O  O155  1  0.17031330  1.06028325  0.59403376  1
  O  O156  1  0.73971325  0.51283872  0.12486675  1
  O  O157  1  0.72977691  0.49812827  0.64038109  1
  O  O158  1  0.74817964  1.00092960  0.12322297  1
  O  O159  1  0.73095037  0.98314622  0.62560860  1
  O  O160  1  0.01584726  0.35889364  0.28529743  1
  O  O161  1  0.02188744  0.37435816  0.74620141  1
  O  O162  1  -0.01567187  0.85098422  0.25852046  1
  O  O163  1  0.01381688  0.88415532  0.77696871  1
  O  O164  1  0.51221665  0.37030260  0.25790294  1
  O  O165  1  0.48177277  0.36339343  0.74974522  1
  O  O166  1  0.50157120  0.86983763  0.26972965  1
  O  O167  1  0.50987834  0.86562360  0.77425438  1
  O  O168  1  0.52458323  0.14367105  0.24778019  1
  O  O169  1  0.48657443  0.15390723  0.73527150  1
  O  O170  1  0.51541734  0.64501509  0.23824806  1
  O  O171  1  0.47619710  0.61871369  0.72685864  1
  O  O172  1  0.99897568  0.11781150  0.23348478  1
  O  O173  1  1.04329782  0.15071848  0.75415600  1
  O  O174  1  0.97899985  0.63942693  0.23443750  1
  O  O175  1  1.00496699  0.64805917  0.74819345  1
  O  O176  1  0.39053193  0.22636943  0.01877219  1
  O  O177  1  0.36781272  0.26498186  0.48610492  1
  O  O178  1  0.35438659  0.75149314  0.01795324  1
  O  O179  1  0.35277530  0.76137143  0.49791166  1
  O  O180  1  0.88893137  0.26898805  0.01109134  1
  O  O181  1  0.89528117  0.25457755  0.48889796  1
  O  O182  1  0.86445065  0.76111101  0.00625510  1
  O  O183  1  0.85909054  0.76703495  0.50109228  1
  O  O184  1  0.17967239  0.24374806  0.52200069  1
  O  O185  1  0.11614430  0.24390373  0.99803344  1
  O  O186  1  0.09516150  0.72581184  0.47339282  1
  O  O187  1  0.13588371  0.75157664  0.99945749  1
  O  O188  1  0.56484655  0.23128032  0.51533639  1
  O  O189  1  0.63798420  0.25362769  1.00463627  1
  O  O190  1  0.64430429  0.76145287  0.51013592  1
  O  O191  1  0.63961465  0.74213326  1.01152044  1
  O  O192  1  0.50935135  0.24872070  0.13992984  1
  O  O193  1  0.47905517  0.27178170  0.64516477  1
  O  O194  1  0.48502670  0.74805782  0.11994226  1
  O  O195  1  0.50619477  0.73527275  0.61904744  1
  O  O196  1  0.99428502  0.23845311  0.12173249  1
  O  O197  1  1.01801263  0.25349244  0.64066912  1
  O  O198  1  0.99726442  0.74721853  0.12945672  1
  O  O199  1  0.99666818  0.73359373  0.60455036  1
  O  O200  1  0.01939251  0.25268061  0.38337070  1
  O  O201  1  0.02034034  0.25756162  0.87072745  1
  O  O202  1  0.00323581  0.74698020  0.35420077  1
  O  O203  1  0.00909631  0.76818491  0.89513219  1
  O  O204  1  0.50870360  0.26970342  0.36355281  1
  O  O205  1  0.51131866  0.25812942  0.85008986  1
  O  O206  1  0.50168793  0.75707800  0.38479015  1
  O  O207  1  0.52694675  0.77144481  0.87657110  1
  O  O208  1  0.26929668  0.12354336  0.47123397  1
  O  O209  1  0.22966876  0.12014879  1.00925612  1
  O  O210  1  0.21331668  0.57764918  0.49517968  1
  O  O211  1  0.24848448  0.62950022  1.00792925  1
  O  O212  1  0.76214430  0.12360623  0.48417421  1
  O  O213  1  0.74440340  0.13420589  0.99356292  1
  O  O214  1  0.75090714  0.64952587  0.52589234  1
  O  O215  1  0.74307189  0.63952068  1.00668180  1
  O  O216  1  0.33014984  0.37693267  -0.03782828  1
  O  O217  1  0.26283901  0.38136167  0.48335288  1
  O  O218  1  0.22644564  0.88322100  0.03973615  1
  O  O219  1  0.24956733  0.89191002  0.46672974  1
  O  O220  1  0.77007153  0.36932963  0.00513207  1
  O  O221  1  0.74575168  0.39909562  0.51651459  1
  O  O222  1  0.75843723  0.86721925  -0.00383433  1
  O  O223  1  0.76056834  0.87012711  0.49113072  1
  O  O224  1  0.14380491  0.48278553  0.23837128  1
  O  O225  1  0.13053397  0.49964000  0.74580368  1
  O  O226  1  0.07797569  0.94930997  0.19855943  1
  O  O227  1  0.13232546  0.98386390  0.76159047  1
  O  O228  1  0.62146270  0.49626584  0.24115308  1
  O  O229  1  0.60626237  0.50151607  0.75025459  1
  O  O230  1  0.63570953  1.00049095  0.23889119  1
  O  O231  1  0.60001937  1.02595823  0.73899734  1
  O  O232  1  0.39516819  0.02150078  0.25393172  1
  O  O233  1  0.34867696  -0.00742217  0.72691093  1
  O  O234  1  0.40575507  0.50464767  0.26170777  1
  O  O235  1  0.36545549  0.49561224  0.76238603  1
  O  O236  1  0.87891601  0.00951771  0.25103050  1
  O  O237  1  0.88308581  -0.01101201  0.76971143  1
  O  O238  1  0.93797031  0.49038276  0.27364167  1
  O  O239  1  0.88819302  0.49779457  0.77075562  1
  O  O240  1  0.11273198  0.37513775  0.39115559  1
  O  O241  1  0.13405986  0.37861746  0.90971177  1
  O  O242  1  0.10350038  0.86464632  0.37514466  1
  O  O243  1  0.11299176  0.87408078  0.89234829  1
  O  O244  1  0.61564221  0.39457080  0.36275469  1
  O  O245  1  0.65239757  0.38019461  0.89758468  1
  O  O246  1  0.61881882  0.86734289  0.37757283  1
  O  O247  1  0.61264188  0.89520393  0.88359517  1
  O  O248  1  0.40829537  0.13549464  0.14622479  1
  O  O249  1  0.33558824  0.13506440  0.63587797  1
  O  O250  1  0.39307812  0.63519308  0.12743566  1
  O  O251  1  0.37446959  0.64671867  0.60299628  1
  O  O252  1  0.88318694  0.13513060  0.13386305  1
  O  O253  1  0.88496428  0.11836799  0.61174774  1
  O  O254  1  0.87680886  0.64683803  0.11388254  1
  O  O255  1  0.87546990  0.62986273  0.65199944  1
  O  O256  1  0.27671019  0.22946121  0.12902915  1
  O  O257  1  0.30058622  0.19804771  0.62649409  1
  O  O258  1  0.25609503  0.74415539  0.12220575  1
  O  O259  1  0.23039495  0.74554512  0.61465531  1
  O  O260  1  0.77248897  0.25348404  0.12972657  1
  O  O261  1  0.74722174  0.27714067  0.62253841  1
  O  O262  1  0.76039603  0.75204644  0.11940339  1
  O  O263  1  0.74694159  0.77800451  0.62497239  1
  O  O264  1  0.24744389  0.25203872  0.37262916  1
  O  O265  1  0.21998734  0.24548476  0.86967292  1
  O  O266  1  0.21933082  0.73091463  0.36073650  1
  O  O267  1  0.24180598  0.75006493  0.89910215  1
  O  O268  1  0.75682361  0.23522395  0.37291287  1
  O  O269  1  0.75399080  0.24674278  0.87972457  1
  O  O270  1  0.74993422  0.73401425  0.38785613  1
  O  O271  1  0.75289338  0.75135345  0.89211944  1
  O  O272  1  -0.00340801  0.12138423  0.00496603  1
  O  O273  1  0.01710136  0.10932662  0.49115634  1
  O  O274  1  -0.01095573  0.61982179  0.01014813  1
  O  O275  1  -0.06369759  0.56291428  0.49495883  1
  O  O276  1  0.52509532  0.13463282  0.02409744  1
  O  O277  1  0.47582051  0.09047745  0.49651959  1
  O  O278  1  0.51929136  0.62883018  0.01909765  1
  O  O279  1  0.48972823  0.61798957  0.50097122  1
  O  O280  1  0.49376937  0.38602621  0.48519718  1
  O  O281  1  0.50377228  0.39798367  1.01786227  1
  O  O282  1  0.49365341  0.87912402  0.48783200  1
  O  O283  1  0.50730868  0.86733883  0.98181483  1
  O  O284  1  1.01271047  0.34824262  0.49313145  1
  O  O285  1  0.98001944  0.39629775  1.00246019  1
  O  O286  1  0.96948245  0.85695739  0.46778123  1
  O  O287  1  0.99401772  0.89328256  0.99908058  1
  O  O288  1  0.49405628  0.49686206  0.38506768  1
  O  O289  1  0.51550601  0.50352174  0.89782260  1
  O  O290  1  0.50787152  0.98373944  0.38591944  1
  O  O291  1  0.50393826  0.97999768  0.87480306  1
  O  O292  1  0.99754860  0.46255101  0.40223483  1
  O  O293  1  0.99229679  0.51452209  0.88657424  1
  O  O294  1  0.98635809  0.97572672  0.35817147  1
  O  O295  1  0.98700630  0.99867520  0.88808427  1
  O  O296  1  -0.01816815  0.01776315  0.10702495  1
  O  O297  1  -0.05279985  0.08761733  0.63488885  1
  O  O298  1  -0.04112372  0.51710248  0.11017274  1
  O  O299  1  0.03261060  0.50071098  0.62512242  1
  O  O300  1  0.51937448  0.01720573  0.13729328  1
  O  O301  1  0.51199901  -0.01173357  0.61057326  1
  O  O302  1  0.50856949  0.51874216  0.12535502  1
  O  O303  1  0.48827542  0.51058324  0.60887955  1
  O  O304  1  0.25351082  0.36302712  0.24013169  1
  O  O305  1  0.23577299  0.39318307  0.76005637  1
  O  O306  1  0.23160054  0.87236684  0.25070390  1
  O  O307  1  0.23530269  0.88882072  0.73611540  1
  O  O308  1  0.74196572  0.38007721  0.26648794  1
  O  O309  1  0.74132944  0.36177578  0.72474287  1
  O  O310  1  0.70332872  0.83196769  0.25329180  1
  O  O311  1  0.75181267  0.87356757  0.75275250  1
  O  O312  1  0.28139194  0.13322966  0.25658184  1
  O  O313  1  0.23802642  0.09671923  0.75280153  1
  O  O314  1  0.23598383  0.57421890  0.16926015  1
  O  O315  1  0.25262742  0.61740243  0.76784165  1
  O  O316  1  0.76534541  0.12675350  0.25722850  1
  O  O317  1  0.73616455  0.14278330  0.76819488  1
  O  O318  1  0.75899761  0.61667621  0.27063223  1
  O  O319  1  0.71860746  0.66397109  0.76990609  1
  O  O320  1  0.40245819  0.13712325  0.36625561  1
  O  O321  1  0.44445098  0.11632367  0.87078355  1
  O  O322  1  0.37108378  0.61356357  0.37584982  1
  O  O323  1  0.39919746  0.64884165  0.87334663  1
  O  O324  1  0.88178914  0.11184968  0.35827388  1
  O  O325  1  0.86536360  0.11813122  0.87709548  1
  O  O326  1  0.94795734  0.61750540  0.43322576  1
  O  O327  1  0.86837342  0.62765252  0.87024230  1
  O  O328  1  0.08009895  0.41049997  0.12998907  1
  O  O329  1  0.13881541  0.38125719  0.63004463  1
  O  O330  1  0.16077327  0.88808519  0.09733439  1
  O  O331  1  0.10832967  0.85866358  0.64293412  1
  O  O332  1  0.62955374  0.39363312  0.13972488  1
  O  O333  1  0.60971898  0.40389756  0.62131788  1
  O  O334  1  0.62336271  0.89378879  0.11677036  1
  O  O335  1  0.62466676  0.88073996  0.64497571  1
  O  O336  1  0.19667080  0.32479644  0.21548537  1
  O  O337  1  0.12584654  0.28124482  0.76467649  1
  O  O338  1  0.11008377  0.73615199  0.24786722  1
  O  O339  1  0.13773607  0.77213268  0.78000683  1
  O  O340  1  0.62557511  0.27255337  0.24382421  1
  O  O341  1  0.59327140  0.25566435  0.73319587  1
  O  O342  1  0.65213861  0.77744255  0.24362822  1
  O  O343  1  0.65509474  0.69267450  0.74841254  1
  O  O344  1  0.40249412  0.24344179  0.24589569  1
  O  O345  1  0.38544606  0.25481035  0.76927459  1
  O  O346  1  0.36199675  0.75237086  0.23469333  1
  O  O347  1  0.34604032  0.75049952  0.72005934  1
  O  O348  1  0.88147331  0.23429540  0.24361021  1
  O  O349  1  0.90562848  0.25035910  0.75664672  1
  O  O350  1  0.87277021  0.75311909  0.23108182  1
  O  O351  1  0.89494800  0.77632919  0.73727354  1
  O  O352  1  0.37934040  0.49334026  0.48275082  1
  O  O353  1  0.39706284  0.52360856  1.00929862  1
  O  O354  1  0.38010270  0.97255084  0.51214602  1
  O  O355  1  0.37809051  1.02365843  1.01635087  1
  O  O356  1  0.86836780  0.52601484  0.49468095  1
  O  O357  1  0.87042551  0.49283388  0.97593626  1
  O  O358  1  0.87150436  0.98293301  0.47482252  1
  O  O359  1  0.87849267  0.99742511  0.99092515  1
  O  O360  1  0.10555961  0.01528836  -0.00308206  1
  O  O361  1  0.11011208  0.01520925  0.47541411  1
  O  O362  1  0.09827951  0.50677007  0.00403369  1
  O  O363  1  0.15195749  0.52418077  0.51577251  1
  O  O364  1  0.63469505  0.01912735  0.01581870  1
  O  O365  1  0.61694976  -0.00579620  0.50483098  1
  O  O366  1  0.61947470  0.51474263  0.02035391  1
  O  O367  1  0.60394309  0.50812626  0.49531389  1
  O  O368  1  0.38181121  0.35340559  0.12802910  1
  O  O369  1  0.37007327  0.38529164  0.59855455  1
  O  O370  1  0.37982074  0.87157307  0.13019136  1
  O  O371  1  0.36108216  0.85504223  0.60273399  1
  O  O372  1  0.89377454  0.36009126  0.14650822  1
  O  O373  1  0.86559075  0.40192081  0.62379731  1
  O  O374  1  0.88445842  0.86555334  0.11309330  1
  O  O375  1  0.86984217  0.89649945  0.60884137  1
  O  O376  1  0.07988796  0.08227877  0.44753748  1
  O  O377  1  0.12192086  0.12471071  0.89067954  1
  O  O378  1  0.10193417  0.61333278  0.35519063  1
  O  O379  1  0.11571177  0.64757440  0.87494026  1
  O  O380  1  0.64011657  0.12244638  0.37594278  1
  O  O381  1  0.63627186  0.12005706  0.89203053  1
  O  O382  1  0.71310837  0.58283838  0.32786501  1
  O  O383  1  0.62671570  0.61419823  0.90059444  1
