# generated using pymatgen
data_VZnO4
_symmetry_space_group_name_H-M   'P 1'
_cell_length_a   16.86842132
_cell_length_b   16.86075611
_cell_length_c   16.87080880
_cell_angle_alpha   90.07129016
_cell_angle_beta   90.25112371
_cell_angle_gamma   89.96144396
_symmetry_Int_Tables_number   1
_chemical_formula_structural   VZnO4
_chemical_formula_sum   'V64 Zn64 O256'
_cell_volume   4798.24904138
_cell_formula_units_Z   64
loop_
 _symmetry_equiv_pos_site_id
 _symmetry_equiv_pos_as_xyz
  1  'x, y, z'
loop_
 _atom_site_type_symbol
 _atom_site_label
 _atom_site_symmetry_multiplicity
 _atom_site_fract_x
 _atom_site_fract_y
 _atom_site_fract_z
 _atom_site_occupancy
  V  V0  1  0.63907694  0.38808080  0.26231099  1
  V  V1  1  0.62730371  0.36938244  0.75398343  1
  V  V2  1  0.37507147  0.64937495  0.75736920  1
  V  V3  1  0.01136357  0.51056743  0.50055784  1
  V  V4  1  0.00922794  0.86458380  0.36585409  1
  V  V5  1  0.24599564  0.88480540  0.12961584  1
  V  V6  1  0.12582069  0.50523213  0.12400778  1
  V  V7  1  0.59776874  0.89285336  0.75611252  1
  V  V8  1  0.48569328  0.37722727  0.37058768  1
  V  V9  1  0.89149147  0.87633289  -0.01211880  1
  V  V10  1  0.00247527  0.63545266  0.64238371  1
  V  V11  1  0.76199676  0.37112090  0.62784244  1
  V  V12  1  0.85513146  0.76065619  0.61700035  1
  V  V13  1  0.11245535  0.00489156  0.12425573  1
  V  V14  1  0.24598741  0.85243462  0.62836908  1
  V  V15  1  0.37758051  0.88504283  -0.01201903  1
  V  V16  1  0.00686146  0.37752865  0.85110690  1
  V  V17  1  0.62923689  0.87841701  0.25416398  1
  V  V18  1  0.24609863  0.10985416  0.88708059  1
  V  V19  1  0.36049434  0.88745896  0.49747566  1
  V  V20  1  0.87623044  0.01775600  0.87831252  1
  V  V21  1  -0.00820623  -0.00181363  0.49968992  1
  V  V22  1  0.11405609  0.84922274  0.76291514  1
  V  V23  1  0.61897911  0.50359579  0.11536172  1
  V  V24  1  0.62333087  0.01550976  0.11141723  1
  V  V25  1  0.13810177  0.11424959  0.49454179  1
  V  V26  1  0.13621747  0.40805386  0.73872257  1
  V  V27  1  0.88307452  0.38936616  -0.01116676  1
  V  V28  1  0.87991570  0.23522822  0.12892129  1
  V  V29  1  0.13333449  0.24452331  0.37679318  1
  V  V30  1  -0.00176741  0.22798500  0.25426563  1
  V  V31  1  0.25633485  0.38903170  0.61341838  1
  V  V32  1  0.63172757  0.63337517  0.49358024  1
  V  V33  1  0.84508264  0.62146861  0.75404737  1
  V  V34  1  0.51138725  0.74747561  0.26141366  1
  V  V35  1  0.87927732  0.38482251  0.49133865  1
  V  V36  1  0.40273567  0.10437119  0.24649896  1
  V  V37  1  0.38059953  0.24946641  0.59967698  1
  V  V38  1  0.22566052  0.61626659  0.87094784  1
  V  V39  1  0.76168697  0.38550895  0.13370381  1
  V  V40  1  0.65067469  -0.00241604  0.61164826  1
  V  V41  1  0.63311545  0.24561895  0.37642131  1
  V  V42  1  0.50956372  0.11755265  0.60589896  1
  V  V43  1  0.87886890  0.75127647  0.12209637  1
  V  V44  1  0.00226678  0.38209330  0.36659705  1
  V  V45  1  0.49661263  0.63059393  0.63293406  1
  V  V46  1  0.86940509  0.01927774  0.35581062  1
  V  V47  1  0.37592856  0.75837072  0.12798202  1
  V  V48  1  0.63379186  0.49711493  0.62361235  1
  V  V49  1  0.25002336  0.00241193  0.26748296  1
  V  V50  1  0.12892842  0.65016419  0.49128339  1
  V  V51  1  0.74883565  0.24476343  -0.00840699  1
  V  V52  1  0.48784289  0.49539667  0.49672948  1
  V  V53  1  0.49655487  0.62722889  0.10615361  1
  V  V54  1  0.50136835  0.24612712  0.75726292  1
  V  V55  1  0.76041710  0.24150592  0.49691859  1
  V  V56  1  0.87754986  0.62335634  0.24331931  1
  V  V57  1  0.90271247  0.12270099  0.73129646  1
  V  V58  1  0.49471315  0.02208734  -0.00483613  1
  V  V59  1  0.74475147  0.62205528  0.35239962  1
  V  V60  1  0.26650661  0.61400813  0.37589819  1
  V  V61  1  0.12120230  -0.00372887  0.63974144  1
  V  V62  1  0.11898885  0.14803218  0.01113956  1
  V  V63  1  0.73714820  0.86639150  0.10112189  1
  Zn  Zn64  1  0.19724013  0.18481658  0.19523803  1
  Zn  Zn65  1  0.19124923  0.17833137  0.65980398  1
  Zn  Zn66  1  0.22842160  0.71472520  0.23695763  1
  Zn  Zn67  1  0.18401059  0.67229460  0.69146812  1
  Zn  Zn68  1  0.68836956  0.20080119  0.18045490  1
  Zn  Zn69  1  0.67928684  0.16325198  0.71198064  1
  Zn  Zn70  1  0.68236829  0.69050528  0.17562982  1
  Zn  Zn71  1  0.68620835  0.69018394  0.68254313  1
  Zn  Zn72  1  0.32263180  0.27171752  0.30045702  1
  Zn  Zn73  1  0.29205581  0.28423130  0.76503740  1
  Zn  Zn74  1  0.32501394  0.81725015  0.31641625  1
  Zn  Zn75  1  0.29126891  0.81308570  0.81359865  1
  Zn  Zn76  1  0.80714624  0.17852891  0.31026331  1
  Zn  Zn77  1  0.81599846  0.31919841  0.81394917  1
  Zn  Zn78  1  0.78571411  0.79572778  0.30424813  1
  Zn  Zn79  1  0.81548651  0.80967607  0.80801100  1
  Zn  Zn80  1  0.18913985  0.43507914  0.43526563  1
  Zn  Zn81  1  0.13401156  0.48719950  0.90234938  1
  Zn  Zn82  1  0.18005723  0.91854559  0.44102727  1
  Zn  Zn83  1  0.18352218  0.93404563  0.94364871  1
  Zn  Zn84  1  0.69607677  0.44904106  0.44392692  1
  Zn  Zn85  1  0.66028228  0.38880062  0.96143638  1
  Zn  Zn86  1  0.71217526  0.93299390  0.42854486  1
  Zn  Zn87  1  0.68708176  0.95220039  0.92490175  1
  Zn  Zn88  1  0.31329003  0.07160006  0.06859288  1
  Zn  Zn89  1  0.31492695  0.05419900  0.59188964  1
  Zn  Zn90  1  0.30408226  0.57563133  0.07295108  1
  Zn  Zn91  1  0.31314637  0.57703889  0.55889542  1
  Zn  Zn92  1  0.80707314  0.05739781  0.05664504  1
  Zn  Zn93  1  0.82370107  0.06318190  0.57093061  1
  Zn  Zn94  1  0.81041808  0.56216491  0.06205808  1
  Zn  Zn95  1  0.81900288  0.56671066  0.56199698  1
  Zn  Zn96  1  0.45723233  0.42604958  0.17885184  1
  Zn  Zn97  1  0.44622942  0.42486599  0.67733584  1
  Zn  Zn98  1  0.44655932  0.94006504  0.19006319  1
  Zn  Zn99  1  0.42330138  0.94542899  0.68673038  1
  Zn  Zn100  1  0.93740331  0.44212205  0.19339820  1
  Zn  Zn101  1  0.93721511  0.45399923  0.68351584  1
  Zn  Zn102  1  0.92401384  0.93722743  0.18634034  1
  Zn  Zn103  1  0.93693809  0.93335442  0.69599398  1
  Zn  Zn104  1  0.06689567  0.05111002  0.31583550  1
  Zn  Zn105  1  0.05977845  0.06134330  0.83123523  1
  Zn  Zn106  1  0.08365462  0.63528645  0.28815801  1
  Zn  Zn107  1  -0.00399652  0.59388898  0.85802722  1
  Zn  Zn108  1  0.62145442  0.08300823  0.28162725  1
  Zn  Zn109  1  0.56670031  0.06678243  0.80582002  1
  Zn  Zn110  1  0.55584457  0.56168301  0.30919294  1
  Zn  Zn111  1  0.56309782  0.55210343  0.80984263  1
  Zn  Zn112  1  0.44683556  0.18998721  0.42329209  1
  Zn  Zn113  1  0.44767476  0.15315536  0.90844308  1
  Zn  Zn114  1  0.44778142  0.69495319  0.44627746  1
  Zn  Zn115  1  0.35034334  0.69490395  0.94126592  1
  Zn  Zn116  1  0.94663641  0.18983935  0.45020972  1
  Zn  Zn117  1  0.94427129  0.19907053  0.93712229  1
  Zn  Zn118  1  0.92271781  0.68935185  0.43132756  1
  Zn  Zn119  1  0.81715672  0.69595861  0.93091203  1
  Zn  Zn120  1  0.06174108  0.31751354  0.07272949  1
  Zn  Zn121  1  0.08063654  0.32118935  0.55022467  1
  Zn  Zn122  1  0.06377679  0.81135210  0.19349967  1
  Zn  Zn123  1  0.04646730  0.81833650  0.56600013  1
  Zn  Zn124  1  0.57580469  0.29523899  0.08536441  1
  Zn  Zn125  1  0.56789476  0.31171186  0.55532958  1
  Zn  Zn126  1  0.54330005  0.82798833  0.06033305  1
  Zn  Zn127  1  0.57124764  0.81414244  0.57252726  1
  O  O128  1  0.13567075  0.11568867  0.12150284  1
  O  O129  1  0.12009835  0.10485294  0.61175044  1
  O  O130  1  0.10821527  0.60172189  0.09213974  1
  O  O131  1  0.10682895  0.63370057  0.60897542  1
  O  O132  1  0.62460200  0.11533619  0.12498418  1
  O  O133  1  0.62323750  0.11053180  0.62056991  1
  O  O134  1  0.61841250  0.61124946  0.11476453  1
  O  O135  1  0.61804123  0.61080337  0.62340155  1
  O  O136  1  0.38988294  0.35600269  0.35699464  1
  O  O137  1  0.35825226  0.34143173  0.90085339  1
  O  O138  1  0.36949361  0.87978665  0.39702067  1
  O  O139  1  0.35394095  0.87338518  0.89177969  1
  O  O140  1  0.89153252  0.37463265  0.38999848  1
  O  O141  1  0.88652620  0.38376552  0.87971671  1
  O  O142  1  0.87826506  0.90256060  0.37465822  1
  O  O143  1  0.87824822  0.87101956  0.88396717  1
  O  O144  1  0.23958065  -0.01485904  0.36470646  1
  O  O145  1  0.24711915  0.01040359  0.87749804  1
  O  O146  1  0.25489771  0.51263768  0.39142328  1
  O  O147  1  0.24577168  0.51400894  0.87507454  1
  O  O148  1  0.77089858  0.01644385  0.37939133  1
  O  O149  1  0.77300849  -0.00624059  0.86565909  1
  O  O150  1  0.75124127  0.52245669  0.38123435  1
  O  O151  1  0.70021322  0.56466747  0.91630818  1
  O  O152  1  0.22799121  0.51279887  0.13598719  1
  O  O153  1  0.26367931  0.48836050  0.61619541  1
  O  O154  1  0.24952511  0.99246734  0.13556902  1
  O  O155  1  0.22241700  0.98263628  0.61920177  1
  O  O156  1  0.73436906  0.49044436  0.11648655  1
  O  O157  1  0.73973394  0.49070792  0.61664311  1
  O  O158  1  0.72994315  0.98896265  0.11032094  1
  O  O159  1  0.74844251  1.00608751  0.63439087  1
  O  O160  1  -0.00373381  0.37536234  0.26493710  1
  O  O161  1  0.00987884  0.38757586  0.74535231  1
  O  O162  1  -0.00557294  0.87725209  0.25832808  1
  O  O163  1  0.01503721  0.87036942  0.75066430  1
  O  O164  1  0.51745587  0.38191761  0.26655845  1
  O  O165  1  0.51930211  0.36284346  0.74252648  1
  O  O166  1  0.51754158  0.86252219  0.23997391  1
  O  O167  1  0.49761760  0.87989144  0.73994184  1
  O  O168  1  0.50247086  0.09324302  0.25348748  1
  O  O169  1  0.51263111  0.14380418  0.72588290  1
  O  O170  1  0.51057121  0.64262301  0.23993374  1
  O  O171  1  0.49268971  0.61230322  0.74022623  1
  O  O172  1  1.00126196  0.13002440  0.25307017  1
  O  O173  1  0.99650105  0.13656452  0.76710076  1
  O  O174  1  0.97588270  0.63307612  0.25501870  1
  O  O175  1  1.00721187  0.62314194  0.74058955  1
  O  O176  1  0.36612225  0.29261174  -0.04531866  1
  O  O177  1  0.37600345  0.25082560  0.50086221  1
  O  O178  1  0.38505452  0.77133477  0.01558810  1
  O  O179  1  0.41328509  0.78120304  0.51984406  1
  O  O180  1  0.86981140  0.26106900  0.01501406  1
  O  O181  1  0.86919534  0.26568098  0.49912116  1
  O  O182  1  0.86899766  0.76400055  0.01027623  1
  O  O183  1  0.87211420  0.73985104  0.51728220  1
  O  O184  1  0.11391331  0.22937572  0.48946196  1
  O  O185  1  0.13507732  0.24793786  1.02143737  1
  O  O186  1  0.11401033  0.74764738  0.49526334  1
  O  O187  1  0.04061640  0.70282897  0.98906961  1
  O  O188  1  0.64780202  0.26587884  0.48623531  1
  O  O189  1  0.64352132  0.27595746  0.99953692  1
  O  O190  1  0.61347881  0.73226009  0.50432436  1
  O  O191  1  0.59309456  0.75434423  0.94972865  1
  O  O192  1  0.49812792  0.22822681  0.14316998  1
  O  O193  1  0.49228624  0.25383987  0.61913610  1
  O  O194  1  0.50029623  0.73984665  0.12224859  1
  O  O195  1  0.51531806  0.72754178  0.63496586  1
  O  O196  1  0.98929554  0.25779952  0.14428597  1
  O  O197  1  1.02653419  0.25150820  0.64783507  1
  O  O198  1  0.97687341  0.76359478  0.12760436  1
  O  O199  1  0.98718201  0.73709648  0.62285919  1
  O  O200  1  -0.00030757  0.25654433  0.36440547  1
  O  O201  1  -0.00122504  0.27824693  0.87311916  1
  O  O202  1  -0.01646615  0.76727443  0.37494758  1
  O  O203  1  0.06620736  0.74739892  0.93504574  1
  O  O204  1  0.52446569  0.27632772  0.38823966  1
  O  O205  1  0.50995849  0.23487295  0.85758519  1
  O  O206  1  0.50160623  0.74862663  0.36048233  1
  O  O207  1  0.54849041  0.74520038  0.89262136  1
  O  O208  1  0.23672237  0.11483876  0.51200941  1
  O  O209  1  0.24104528  0.12467209  0.99652387  1
  O  O210  1  0.23159278  0.63393458  0.50364954  1
  O  O211  1  0.26520823  0.62031446  0.97818748  1
  O  O212  1  0.76459831  0.14413237  0.51128941  1
  O  O213  1  0.74848850  0.14609539  1.00842794  1
  O  O214  1  0.73213655  0.62125398  0.50751491  1
  O  O215  1  0.74012432  0.61143574  0.97459355  1
  O  O216  1  0.30638318  0.40677452  0.04467423  1
  O  O217  1  0.23667634  0.36742163  0.51634538  1
  O  O218  1  0.26262662  0.88403165  0.02124921  1
  O  O219  1  0.25228065  0.86575088  0.51152975  1
  O  O220  1  0.76681687  0.37189472  0.01173257  1
  O  O221  1  0.76785016  0.37831198  0.50468285  1
  O  O222  1  0.74340176  0.87765526  0.00008714  1
  O  O223  1  0.81247797  0.85987400  0.40121098  1
  O  O224  1  0.11642881  0.52779026  0.22630430  1
  O  O225  1  0.13208956  0.50382196  0.73426485  1
  O  O226  1  0.14087491  1.00421110  0.23943825  1
  O  O227  1  0.11344889  1.00231828  0.73961188  1
  O  O228  1  0.62332836  0.49210816  0.23864763  1
  O  O229  1  0.61966157  0.48703708  0.73128737  1
  O  O230  1  0.61851124  0.98322352  0.22433286  1
  O  O231  1  0.61725734  0.99536563  0.72956450  1
  O  O232  1  0.37165491  0.00047901  0.25793275  1
  O  O233  1  0.34715521  0.02729876  0.70179506  1
  O  O234  1  0.35181711  0.46581029  0.22047088  1
  O  O235  1  0.40770831  0.47030889  0.79536640  1
  O  O236  1  0.87287190  0.01320269  0.25519106  1
  O  O237  1  0.88329205  0.01891495  0.75570976  1
  O  O238  1  0.86817656  0.52306719  0.22733853  1
  O  O239  1  0.86997590  0.52177855  0.74400377  1
  O  O240  1  0.10922107  0.35813493  0.39064137  1
  O  O241  1  0.12023912  0.37929712  0.84659308  1
  O  O242  1  0.11006932  0.86739777  0.36590382  1
  O  O243  1  0.13724339  0.87349784  0.86025892  1
  O  O244  1  0.63578305  0.38457970  0.36695652  1
  O  O245  1  0.63796123  0.38911318  0.85178045  1
  O  O246  1  0.63749779  0.88545885  0.35369445  1
  O  O247  1  0.60740769  0.90559892  0.85645681  1
  O  O248  1  0.37541464  0.12473858  0.15055746  1
  O  O249  1  0.39271351  0.14344990  0.61623014  1
  O  O250  1  0.38409321  0.64303887  0.12108661  1
  O  O251  1  0.38866349  0.62241174  0.63642969  1
  O  O252  1  0.87232648  0.13769752  0.11737874  1
  O  O253  1  0.90585957  0.11893708  0.63097136  1
  O  O254  1  0.86237808  0.64228584  0.12391541  1
  O  O255  1  0.87969214  0.63217642  0.63621683  1
  O  O256  1  0.27521891  0.26507939  0.19877449  1
  O  O257  1  0.27301014  0.25230052  0.64055386  1
  O  O258  1  0.27034531  0.76328878  0.13713942  1
  O  O259  1  0.24120191  0.75244555  0.62624461  1
  O  O260  1  0.76344456  0.26642099  0.12260374  1
  O  O261  1  0.74608958  0.27010312  0.60734955  1
  O  O262  1  0.74454646  0.76122899  0.10916216  1
  O  O263  1  0.75245658  0.75286033  0.61626237  1
  O  O264  1  0.23010148  0.26028226  0.37349424  1
  O  O265  1  0.21233552  0.21874144  0.82022337  1
  O  O266  1  0.25268601  0.73522633  0.34841013  1
  O  O267  1  0.25470872  0.72360102  0.87443940  1
  O  O268  1  0.74661800  0.24670183  0.38598725  1
  O  O269  1  0.76051773  0.25865004  0.89304012  1
  O  O270  1  0.73459657  0.72230096  0.37696715  1
  O  O271  1  0.74223401  0.76503460  0.88306012  1
  O  O272  1  0.01748452  0.14310979  0.00870936  1
  O  O273  1  0.01241793  0.10552637  0.49382308  1
  O  O274  1  -0.01253674  0.64663706  -0.02924975  1
  O  O275  1  0.00800825  0.61664307  0.48400382  1
  O  O276  1  0.48056400  0.12017773  0.01711089  1
  O  O277  1  0.50697955  0.13700050  0.50594424  1
  O  O278  1  0.49400627  0.62092733  0.01017607  1
  O  O279  1  0.50835824  0.61342222  0.51256980  1
  O  O280  1  0.50446748  0.38880045  0.48830928  1
  O  O281  1  0.46153459  0.34737288  1.09205169  1
  O  O282  1  0.46800947  0.84725545  0.51917374  1
  O  O283  1  0.48451060  0.89116073  0.98645589  1
  O  O284  1  0.99221404  0.38408482  0.50682075  1
  O  O285  1  0.98318465  0.36926848  1.00612842  1
  O  O286  1  1.00541922  0.88875140  0.48257280  1
  O  O287  1  0.98596375  0.87665564  1.00452045  1
  O  O288  1  0.49684102  0.49198611  0.38426620  1
  O  O289  1  0.46315803  0.47691625  0.84666298  1
  O  O290  1  0.51873100  0.98584449  0.40179715  1
  O  O291  1  0.49570760  1.03823048  0.88899325  1
  O  O292  1  1.00575351  0.48293525  0.38754235  1
  O  O293  1  1.01450318  0.48098275  0.88585664  1
  O  O294  1  0.99017915  0.99067255  0.37812007  1
  O  O295  1  0.97814795  0.99468641  0.87491367  1
  O  O296  1  0.01437534  -0.00330371  0.13740128  1
  O  O297  1  0.01092337  -0.01666289  0.60726917  1
  O  O298  1  0.01879016  0.49090974  0.12414761  1
  O  O299  1  -0.00680214  0.52297318  0.60781086  1
  O  O300  1  0.51340967  -0.00780611  0.10806774  1
  O  O301  1  0.49761725  0.01805885  0.61396720  1
  O  O302  1  0.50653640  0.51754157  0.13391221  1
  O  O303  1  0.50978522  0.49919907  0.61417030  1
  O  O304  1  0.29778485  0.41729351  0.23755419  1
  O  O305  1  0.24183042  0.38439043  0.73850772  1
  O  O306  1  0.26579742  0.88585465  0.23762675  1
  O  O307  1  0.23147035  0.86974947  0.73534243  1
  O  O308  1  0.74742839  0.38447690  0.23804705  1
  O  O309  1  0.74559158  0.37031799  0.73393192  1
  O  O310  1  0.73304495  0.86954854  0.22722518  1
  O  O311  1  0.70697760  0.84158659  0.74701396  1
  O  O312  1  0.26201189  0.10472367  0.25932696  1
  O  O313  1  0.21101130  0.14570518  0.77572279  1
  O  O314  1  0.27221493  0.61283313  0.27136095  1
  O  O315  1  0.26769106  0.62167457  0.75726342  1
  O  O316  1  0.72516288  0.12598542  0.25421775  1
  O  O317  1  0.79700219  0.16787750  0.74690491  1
  O  O318  1  0.74217078  0.62265245  0.24841259  1
  O  O319  1  0.74341244  0.62141426  0.75585953  1
  O  O320  1  0.45994729  0.02808659  0.40034169  1
  O  O321  1  0.34179612  0.14371408  0.87548677  1
  O  O322  1  0.36130364  0.63253369  0.41128349  1
  O  O323  1  0.39318177  0.62886633  0.85577516  1
  O  O324  1  0.88614196  0.12375404  0.37529426  1
  O  O325  1  0.87829422  0.12040271  0.88375019  1
  O  O326  1  0.85744323  0.63247452  0.35275606  1
  O  O327  1  0.88093271  0.63338367  0.85506811  1
  O  O328  1  0.12533789  0.39718150  0.13596603  1
  O  O329  1  0.13919179  0.37270743  0.63395537  1
  O  O330  1  0.14053821  0.88270332  0.13220765  1
  O  O331  1  0.12465107  0.87531244  0.63435123  1
  O  O332  1  0.63504979  0.37986430  0.14180958  1
  O  O333  1  0.63616379  0.38445622  0.62361179  1
  O  O334  1  0.62995597  0.87644572  0.11529999  1
  O  O335  1  0.61996813  0.89383062  0.63208643  1
  O  O336  1  0.10990609  0.24058259  0.26539064  1
  O  O337  1  0.07879075  0.23920244  0.70023943  1
  O  O338  1  0.11942020  0.71858226  0.22068098  1
  O  O339  1  0.12239205  0.74883271  0.75499494  1
  O  O340  1  0.63569379  0.27263110  0.26618601  1
  O  O341  1  0.62341139  0.26414512  0.73886711  1
  O  O342  1  0.61905508  0.76126827  0.24327415  1
  O  O343  1  0.64753022  0.78366052  0.75158759  1
  O  O344  1  0.38869793  0.17824929  0.32533038  1
  O  O345  1  0.39985055  0.25935217  0.74582531  1
  O  O346  1  0.39880884  0.76406529  0.23445788  1
  O  O347  1  0.37526825  0.74770917  0.75285917  1
  O  O348  1  0.88204848  0.24082938  0.23983533  1
  O  O349  1  0.85413667  0.23095119  0.74093984  1
  O  O350  1  0.85594118  0.74438406  0.22915621  1
  O  O351  1  0.86097444  0.73449199  0.73409583  1
  O  O352  1  0.39038263  0.50255422  0.50730400  1
  O  O353  1  0.35273181  0.46509615  1.04286599  1
  O  O354  1  0.36819929  0.98673522  0.51316652  1
  O  O355  1  0.38284487  0.99525250  1.00752840  1
  O  O356  1  0.88568940  0.49149013  0.49991225  1
  O  O357  1  0.87569026  0.48868760  1.00438024  1
  O  O358  1  0.88913577  1.00503115  0.49589673  1
  O  O359  1  0.86972017  0.98810943  0.99049979  1
  O  O360  1  0.12594327  -0.00260459  0.02262753  1
  O  O361  1  0.11792660  0.00522618  0.49370276  1
  O  O362  1  0.13525479  0.48360095  0.02046671  1
  O  O363  1  0.11185605  0.50164972  0.50198729  1
  O  O364  1  0.60953288  0.00673523  0.00093672  1
  O  O365  1  0.65123930  -0.01762882  0.51039454  1
  O  O366  1  0.60612390  0.47207577  0.02019475  1
  O  O367  1  0.61673165  0.50662869  0.51130150  1
  O  O368  1  0.43553909  0.27612551  0.13435942  1
  O  O369  1  0.36636826  0.36453306  0.62336549  1
  O  O370  1  0.37759975  0.87135116  0.11893992  1
  O  O371  1  0.34834383  0.87492318  0.62589169  1
  O  O372  1  0.86775390  0.37770668  0.12516604  1
  O  O373  1  0.86557771  0.38237269  0.62096583  1
  O  O374  1  0.85604869  0.87261921  0.11372513  1
  O  O375  1  0.87511880  0.86054539  0.63281038  1
  O  O376  1  0.12801641  0.13072315  0.38320700  1
  O  O377  1  0.12851449  0.11931196  0.90473280  1
  O  O378  1  0.13931943  0.62626398  0.38633524  1
  O  O379  1  0.12327924  0.61158085  0.87165504  1
  O  O380  1  0.61206982  0.14865333  0.37691940  1
  O  O381  1  0.66631438  0.11723134  0.81714008  1
  O  O382  1  0.62542933  0.61493768  0.38819582  1
  O  O383  1  0.62838086  0.59494037  0.90074307  1
