# generated using pymatgen
data_VZnO4
_symmetry_space_group_name_H-M   'P 1'
_cell_length_a   16.95706402
_cell_length_b   16.87473727
_cell_length_c   16.99064930
_cell_angle_alpha   90.39346814
_cell_angle_beta   89.76856826
_cell_angle_gamma   89.25704646
_symmetry_Int_Tables_number   1
_chemical_formula_structural   VZnO4
_chemical_formula_sum   'V64 Zn64 O256'
_cell_volume   4861.24154061
_cell_formula_units_Z   64
loop_
 _symmetry_equiv_pos_site_id
 _symmetry_equiv_pos_as_xyz
  1  'x, y, z'
loop_
 _atom_site_type_symbol
 _atom_site_label
 _atom_site_symmetry_multiplicity
 _atom_site_fract_x
 _atom_site_fract_y
 _atom_site_fract_z
 _atom_site_occupancy
  V  V0  1  0.37903543  0.90463963  -0.00063475  1
  V  V1  1  0.12581691  0.13600081  -0.00199926  1
  V  V2  1  0.12033200  0.00860795  0.12685468  1
  V  V3  1  0.48825677  0.36474381  0.89108833  1
  V  V4  1  0.73478074  0.61538400  0.36261254  1
  V  V5  1  0.26205322  0.03608529  0.24738621  1
  V  V6  1  0.63087495  0.12955485  0.00415582  1
  V  V7  1  0.25637937  0.01769093  0.76389140  1
  V  V8  1  0.49084837  0.88451548  0.87793403  1
  V  V9  1  0.74218181  0.75522796  -0.01474970  1
  V  V10  1  -0.00877240  0.01076289  0.50487529  1
  V  V11  1  0.38211515  0.36282277  0.50945092  1
  V  V12  1  0.75905851  -0.00179519  0.25331398  1
  V  V13  1  0.24441541  0.88114327  0.62801862  1
  V  V14  1  0.50024832  0.23509350  0.22953626  1
  V  V15  1  0.48335292  0.74103918  0.75235781  1
  V  V16  1  0.60391523  0.86776084  0.26112725  1
  V  V17  1  0.23624310  0.27132493  -0.01123592  1
  V  V18  1  0.87210428  0.23921244  0.15225267  1
  V  V19  1  0.63304444  0.62050685  -0.03340852  1
  V  V20  1  0.37488086  0.86442014  0.50623480  1
  V  V21  1  0.25955382  0.62863804  0.86623982  1
  V  V22  1  0.18268677  0.64626513  0.50891239  1
  V  V23  1  0.63851878  0.23899637  0.36664191  1
  V  V24  1  0.25832235  0.46182833  0.24149433  1
  V  V25  1  0.76259287  0.38320976  0.13953765  1
  V  V26  1  0.11627579  0.87658587  0.77126701  1
  V  V27  1  0.75412087  0.01456464  0.75146143  1
  V  V28  1  0.01250064  0.39154342  0.39257634  1
  V  V29  1  0.87782031  0.01244219  0.87169019  1
  V  V30  1  0.62904698  0.38360137  0.24325258  1
  V  V31  1  0.84195772  0.38996160  0.51196213  1
  V  V32  1  0.37412968  0.49769116  0.37001816  1
  V  V33  1  0.60917090  0.61327418  0.50334470  1
  V  V34  1  -0.00963250  0.00117744  0.00535556  1
  V  V35  1  0.25869494  0.87450977  0.12829489  1
  V  V36  1  0.75678530  0.86696133  0.12411894  1
  V  V37  1  0.10336493  0.37539204  0.74892818  1
  V  V38  1  0.66127711  0.24479777  0.87444319  1
  V  V39  1  0.11720996  0.22961580  0.35464272  1
  V  V40  1  0.62504657  0.86789318  0.76323882  1
  V  V41  1  0.93242322  0.82802345  -0.05781028  1
  V  V42  1  0.48670276  0.50488436  0.00977961  1
  V  V43  1  0.87707689  0.50934394  0.36978445  1
  V  V44  1  0.48632252  -0.00350691  0.46898867  1
  V  V45  1  0.85532540  0.51200035  0.85830042  1
  V  V46  1  0.00373315  0.50347446  -0.01972714  1
  V  V47  1  0.73536911  0.75605509  0.49175626  1
  V  V48  1  0.60874648  -0.00290797  0.12128000  1
  V  V49  1  0.75591899  0.86646321  0.62725812  1
  V  V50  1  0.90293444  0.63610447  0.73787285  1
  V  V51  1  0.11777809  0.64228278  0.00770000  1
  V  V52  1  0.27805013  0.74693502  -0.00318892  1
  V  V53  1  0.60688480  -0.00010347  0.63147186  1
  V  V54  1  0.62355455  0.12253144  0.49691322  1
  V  V55  1  0.35299638  0.26171554  0.12031683  1
  V  V56  1  0.12804957  0.86530071  0.25830339  1
  V  V57  1  0.23937571  0.23495996  0.51049913  1
  V  V58  1  0.87534312  0.37117609  -0.02966635  1
  V  V59  1  0.28105407  0.47525810  0.75735849  1
  V  V60  1  0.49682934  0.36378501  0.37431129  1
  V  V61  1  0.63652273  0.37162084  0.74387989  1
  V  V62  1  0.12757405  0.50884494  0.62902123  1
  V  V63  1  0.39082592  0.22076894  0.63141051  1
  Zn  Zn64  1  0.17097193  0.20285493  0.17704690  1
  Zn  Zn65  1  0.20896209  0.21382781  0.70068934  1
  Zn  Zn66  1  0.15586058  0.64805841  0.21602234  1
  Zn  Zn67  1  0.18957230  0.70505973  0.68432377  1
  Zn  Zn68  1  0.69850479  0.18459338  0.18348116  1
  Zn  Zn69  1  0.67415730  0.18323327  0.68746826  1
  Zn  Zn70  1  0.69281482  0.70704544  0.19423091  1
  Zn  Zn71  1  0.63201618  0.71520133  0.64985227  1
  Zn  Zn72  1  0.30917706  0.27847273  0.32022363  1
  Zn  Zn73  1  0.31060499  0.29867014  0.81988482  1
  Zn  Zn74  1  0.32793775  0.79157132  0.30091087  1
  Zn  Zn75  1  0.30436415  0.82111809  0.81228049  1
  Zn  Zn76  1  0.82406559  0.31646966  0.32252034  1
  Zn  Zn77  1  0.82413225  0.31100238  0.79707180  1
  Zn  Zn78  1  0.78565221  0.85493119  0.33502921  1
  Zn  Zn79  1  0.81412940  0.81363630  0.80369177  1
  Zn  Zn80  1  0.20511901  0.42605555  0.44607877  1
  Zn  Zn81  1  0.18090956  0.44584515  0.92033211  1
  Zn  Zn82  1  0.25293260  0.92043071  0.40330585  1
  Zn  Zn83  1  0.19093860  0.94382879  0.93721721  1
  Zn  Zn84  1  0.67895954  0.44042443  0.43284327  1
  Zn  Zn85  1  0.69249951  0.43373055  0.93804450  1
  Zn  Zn86  1  0.67549410  0.93956483  0.44078250  1
  Zn  Zn87  1  0.69486162  0.95464833  0.94375800  1
  Zn  Zn88  1  0.31106328  0.07985665  0.07001473  1
  Zn  Zn89  1  0.31062341  0.05596515  0.56741037  1
  Zn  Zn90  1  0.29869918  0.55753574  0.07064911  1
  Zn  Zn91  1  0.30083354  0.52203899  0.55974415  1
  Zn  Zn92  1  0.79657066  0.05414277  0.06846299  1
  Zn  Zn93  1  0.79935128  0.04523946  0.55140929  1
  Zn  Zn94  1  0.79233626  0.55043913  0.04359109  1
  Zn  Zn95  1  0.83736181  0.60713596  0.53634233  1
  Zn  Zn96  1  0.44452489  0.43264098  0.18070207  1
  Zn  Zn97  1  0.43452934  0.36546258  0.71569811  1
  Zn  Zn98  1  0.43456516  0.94529150  0.19029370  1
  Zn  Zn99  1  0.42956241  0.93542145  0.69651738  1
  Zn  Zn100  1  0.95491171  0.42477346  0.20502407  1
  Zn  Zn101  1  0.94013523  0.46258062  0.66675496  1
  Zn  Zn102  1  0.92472187  0.86353159  0.23093592  1
  Zn  Zn103  1  0.93434707  0.93313083  0.69275495  1
  Zn  Zn104  1  0.11838196  0.01787154  0.34800141  1
  Zn  Zn105  1  0.07285348  0.05712841  0.82339058  1
  Zn  Zn106  1  0.09816401  0.53749266  0.34721632  1
  Zn  Zn107  1  0.07741084  0.57555537  0.81544484  1
  Zn  Zn108  1  0.56824649  0.05817215  0.30327268  1
  Zn  Zn109  1  0.56940752  0.06263030  0.83009399  1
  Zn  Zn110  1  0.55680788  0.55810399  0.32377471  1
  Zn  Zn111  1  0.54836845  0.54595783  0.81188396  1
  Zn  Zn112  1  0.44060852  0.18222843  0.43033147  1
  Zn  Zn113  1  0.44556273  0.19161893  0.99064238  1
  Zn  Zn114  1  0.39491384  0.65470078  0.47829920  1
  Zn  Zn115  1  0.45138541  0.68358796  0.92287806  1
  Zn  Zn116  1  0.94982008  0.22228028  0.47164359  1
  Zn  Zn117  1  0.90728656  0.16519024  0.99588977  1
  Zn  Zn118  1  0.88680971  0.72924653  0.39783555  1
  Zn  Zn119  1  0.92858807  0.66977999  0.93558736  1
  Zn  Zn120  1  0.04744473  0.32166267  0.07718765  1
  Zn  Zn121  1  0.07210356  0.33899535  0.56305703  1
  Zn  Zn122  1  0.05976206  0.81660834  0.08374825  1
  Zn  Zn123  1  0.09789650  0.82930936  0.53165293  1
  Zn  Zn124  1  0.57735415  0.31470557  0.05454886  1
  Zn  Zn125  1  0.56398585  0.30240635  0.56195714  1
  Zn  Zn126  1  0.57352682  0.82022486  0.04969650  1
  Zn  Zn127  1  0.51769989  0.77356980  0.53450645  1
  O  O128  1  0.11951057  0.11309023  0.12191838  1
  O  O129  1  0.01723690  0.19180391  0.64059183  1
  O  O130  1  0.14163836  0.61779365  0.10292295  1
  O  O131  1  0.14587760  0.62745069  0.60977064  1
  O  O132  1  0.63897091  0.11072577  0.11283525  1
  O  O133  1  0.62621545  0.11349574  0.60944546  1
  O  O134  1  0.57996757  0.66132232  0.12768763  1
  O  O135  1  0.62231640  0.61126049  0.60437429  1
  O  O136  1  0.39137521  0.35836753  0.37755355  1
  O  O137  1  0.38934195  0.36236057  0.87996681  1
  O  O138  1  0.34600298  0.85267419  0.39480984  1
  O  O139  1  0.38237419  0.88035948  0.88754127  1
  O  O140  1  0.86252733  0.39985551  0.39109438  1
  O  O141  1  0.87317515  0.39128710  0.86779214  1
  O  O142  1  0.89114746  0.81708888  0.33061451  1
  O  O143  1  0.87658068  0.88656259  0.87650487  1
  O  O144  1  0.24189124  0.02138101  0.34931728  1
  O  O145  1  0.24721160  0.01004657  0.86675661  1
  O  O146  1  0.27221503  0.47921186  0.36744801  1
  O  O147  1  0.25291612  0.51484290  0.85840319  1
  O  O148  1  0.75230760  -0.03212818  0.35704531  1
  O  O149  1  0.76272472  -0.00774308  0.85775029  1
  O  O150  1  0.74775709  0.51230917  0.36647908  1
  O  O151  1  0.75758550  0.49984128  0.86340645  1
  O  O152  1  0.26671819  0.47722079  0.14198416  1
  O  O153  1  0.26231614  0.51823191  0.66564769  1
  O  O154  1  0.24625290  0.99686666  0.12721553  1
  O  O155  1  0.25523875  0.99291267  0.64241336  1
  O  O156  1  0.76297670  0.48402781  0.13054461  1
  O  O157  1  0.73393578  0.54363759  0.69404860  1
  O  O158  1  0.73652603  0.98215505  0.13238886  1
  O  O159  1  0.74642823  0.99091359  0.63778082  1
  O  O160  1  -0.02094983  0.36333001  0.30120516  1
  O  O161  1  0.00513069  0.38493334  0.72878425  1
  O  O162  1  0.03317084  0.89522900  0.25828828  1
  O  O163  1  0.01662540  0.89257453  0.75077000  1
  O  O164  1  0.51548578  0.35934235  0.25098802  1
  O  O165  1  0.52086403  0.35702984  0.78743150  1
  O  O166  1  0.50356109  0.88145135  0.24972503  1
  O  O167  1  0.50864812  0.87206892  0.76109322  1
  O  O168  1  0.50711540  0.13738432  0.24757113  1
  O  O169  1  0.46074844  0.13364439  0.79788247  1
  O  O170  1  0.49612960  0.63303560  0.25397668  1
  O  O171  1  0.49754740  0.64151530  0.77219685  1
  O  O172  1  0.88419150  0.09918720  0.34624641  1
  O  O173  1  0.98703795  0.13263409  0.77084385  1
  O  O174  1  1.05025131  0.60917290  0.26079785  1
  O  O175  1  1.00225512  0.63567147  0.75296360  1
  O  O176  1  0.34187186  0.26062930  0.00188414  1
  O  O177  1  0.38505686  0.24985672  0.51517561  1
  O  O178  1  0.37698322  0.74621310  0.00118887  1
  O  O179  1  0.39594695  0.76434899  0.51429773  1
  O  O180  1  0.88905540  0.27245809  -0.03294287  1
  O  O181  1  0.86272871  0.28747387  0.48909960  1
  O  O182  1  0.86687137  0.76065492  -0.00889255  1
  O  O183  1  0.83682303  0.72871793  0.50837803  1
  O  O184  1  0.14283393  0.24876564  0.53635466  1
  O  O185  1  0.12078582  0.24428383  1.02139414  1
  O  O186  1  0.16595381  0.74590612  0.49792254  1
  O  O187  1  0.11497570  0.74328191  1.01079368  1
  O  O188  1  0.62203624  0.22966128  0.48756789  1
  O  O189  1  0.64739680  0.23448785  0.99737168  1
  O  O190  1  0.63000398  0.74567491  0.51485438  1
  O  O191  1  0.63310303  0.73796294  0.99120207  1
  O  O192  1  0.52174903  0.24769681  0.13169755  1
  O  O193  1  0.49049242  0.24148326  0.62626415  1
  O  O194  1  0.52790016  0.71405490  0.11780287  1
  O  O195  1  0.51663463  0.75006249  0.65169447  1
  O  O196  1  0.96661819  0.24889476  0.11523226  1
  O  O197  1  0.98472464  0.24605545  0.60251852  1
  O  O198  1  0.97636722  0.79145971  0.15322046  1
  O  O199  1  1.00066618  0.74708430  0.53375415  1
  O  O200  1  0.03321120  0.26932811  0.40744090  1
  O  O201  1  -0.03911986  0.20314871  0.79524913  1
  O  O202  1  -0.01602612  0.66506582  0.27033675  1
  O  O203  1  -0.01375331  0.76359433  0.88890397  1
  O  O204  1  0.51146958  0.25379174  0.35792150  1
  O  O205  1  0.50518495  0.26600099  0.92450901  1
  O  O206  1  0.47031113  0.69632763  0.29499875  1
  O  O207  1  0.50029444  0.77007817  0.86359649  1
  O  O208  1  0.25698107  0.13542165  0.50101699  1
  O  O209  1  0.22893676  0.13697219  1.00828208  1
  O  O210  1  0.28765061  0.62954206  0.51230871  1
  O  O211  1  0.25071797  0.64136129  0.99937374  1
  O  O212  1  0.71832371  0.08708357  0.48379189  1
  O  O213  1  0.72114189  0.07451940  0.98321730  1
  O  O214  1  0.72596098  0.63495722  0.48442964  1
  O  O215  1  0.74448890  0.64382921  0.99815733  1
  O  O216  1  0.22277985  0.37099297  -0.00465959  1
  O  O217  1  0.27661166  0.35011854  0.49635555  1
  O  O218  1  0.27027658  0.87515959  -0.00070632  1
  O  O219  1  0.26386954  0.89194140  0.51638973  1
  O  O220  1  0.77798660  0.38410302  0.01299718  1
  O  O221  1  0.74017241  0.38816812  0.51056655  1
  O  O222  1  0.73551431  0.86544780  0.01059361  1
  O  O223  1  0.73850190  0.86931352  0.51629937  1
  O  O224  1  0.17914891  0.53358099  0.26111196  1
  O  O225  1  0.12940032  0.50260404  0.73857848  1
  O  O226  1  0.14501830  0.99803090  0.23344892  1
  O  O227  1  0.13608714  0.99401370  0.75545677  1
  O  O228  1  0.61556085  0.48140868  0.25401165  1
  O  O229  1  0.61663104  0.47193592  0.75705018  1
  O  O230  1  0.63300567  0.98816807  0.23968874  1
  O  O231  1  0.63463819  1.00809548  0.74561241  1
  O  O232  1  0.35941262  0.01405512  0.23852292  1
  O  O233  1  0.35866902  -0.00252461  0.75760437  1
  O  O234  1  0.36966410  0.48015513  0.25930032  1
  O  O235  1  0.38003700  0.46489842  0.75520537  1
  O  O236  1  0.85583106  -0.02649876  0.24018370  1
  O  O237  1  0.86846823  0.00413576  0.76179021  1
  O  O238  1  0.88448952  0.49833707  0.26986806  1
  O  O239  1  0.88515333  0.51322347  0.75726391  1
  O  O240  1  0.11243943  0.41623833  0.38153676  1
  O  O241  1  0.11292083  0.38952411  0.84884398  1
  O  O242  1  0.15077844  0.89050739  0.35828024  1
  O  O243  1  0.12529780  0.87855451  0.87254820  1
  O  O244  1  0.61824907  0.36136611  0.36492534  1
  O  O245  1  0.63804572  0.35199097  0.88195760  1
  O  O246  1  0.61852706  0.88146987  0.36082193  1
  O  O247  1  0.61923025  0.88942447  0.86525912  1
  O  O248  1  0.38966546  0.16011123  0.09247104  1
  O  O249  1  0.38509269  0.12176015  0.63011277  1
  O  O250  1  0.34544349  0.64062619  0.15100792  1
  O  O251  1  0.42609725  0.57874886  0.62345005  1
  O  O252  1  0.85669975  0.14371898  0.09989274  1
  O  O253  1  0.83177296  0.15421971  0.59984633  1
  O  O254  1  0.89946805  0.58234160  0.11624997  1
  O  O255  1  0.88370402  0.61005416  0.64024978  1
  O  O256  1  0.24968217  0.26372811  0.11993988  1
  O  O257  1  0.27645998  0.24469983  0.61370184  1
  O  O258  1  0.25016479  0.77394191  0.10153331  1
  O  O259  1  0.26368926  0.78013476  0.63793805  1
  O  O260  1  0.76421047  0.26433346  0.13000456  1
  O  O261  1  0.78167419  0.20965121  0.61494558  1
  O  O262  1  0.74433278  0.75925032  0.11023626  1
  O  O263  1  0.73595647  0.76521384  0.62696581  1
  O  O264  1  0.21199801  0.25683272  0.39552970  1
  O  O265  1  0.23556260  0.25287629  0.88951826  1
  O  O266  1  0.26970375  0.69094933  0.25421484  1
  O  O267  1  0.25442492  0.75045481  0.89392205  1
  O  O268  1  0.73588869  0.25196151  0.36873878  1
  O  O269  1  0.75959293  0.24138976  0.86966871  1
  O  O270  1  0.73932428  0.75947550  0.38962399  1
  O  O271  1  0.75075720  0.76434180  0.88746934  1
  O  O272  1  0.00743870  0.10583590  0.00989141  1
  O  O273  1  -0.02500724  0.11345509  0.49553904  1
  O  O274  1  0.00949444  0.61750985  -0.00123776  1
  O  O275  1  -0.00210350  0.71938505  0.46410286  1
  O  O276  1  0.53150076  0.11329744  -0.00745933  1
  O  O277  1  0.50908573  0.10625185  0.48587853  1
  O  O278  1  0.52243349  0.61261691  -0.01649586  1
  O  O279  1  0.51051742  0.65256958  0.49167732  1
  O  O280  1  0.49904831  0.35850645  0.48100706  1
  O  O281  1  0.51312983  0.39468172  1.00239722  1
  O  O282  1  0.48502429  0.88721271  0.49415800  1
  O  O283  1  0.48681407  0.87141492  0.98992253  1
  O  O284  1  0.99188902  0.38414338  0.49684384  1
  O  O285  1  0.97454526  0.39822338  1.00607233  1
  O  O286  1  1.01363151  0.90502021  0.50656759  1
  O  O287  1  1.00074046  0.88409832  1.00186985  1
  O  O288  1  0.48814103  0.47328047  0.36280348  1
  O  O289  1  0.50591188  0.48064918  0.89532055  1
  O  O290  1  0.49456225  0.99807705  0.37122790  1
  O  O291  1  0.49966662  0.98494854  0.87051171  1
  O  O292  1  0.98434878  0.50242706  0.38734706  1
  O  O293  1  0.99718098  0.50894325  0.88003551  1
  O  O294  1  1.01405788  1.00139086  0.40429530  1
  O  O295  1  0.98774544  1.00137463  0.89061261  1
  O  O296  1  0.01886377  -0.01133342  0.11424350  1
  O  O297  1  -0.03788728  0.00863758  0.60859904  1
  O  O298  1  -0.04686063  0.52885640  0.11179392  1
  O  O299  1  0.03033203  0.51547264  0.61075343  1
  O  O300  1  0.51140379  0.01126616  0.13778422  1
  O  O301  1  0.51006903  0.00421103  0.64630700  1
  O  O302  1  0.50300996  0.50331773  0.11078486  1
  O  O303  1  0.48317658  0.53437009  0.63422595  1
  O  O304  1  0.25118084  0.36267945  0.25962813  1
  O  O305  1  0.24544961  0.37997946  0.75915163  1
  O  O306  1  0.26281815  0.86767653  0.23155506  1
  O  O307  1  0.23953813  0.89064443  0.74772123  1
  O  O308  1  0.73963147  0.37361411  0.24905306  1
  O  O309  1  0.73928204  0.36446960  0.74600062  1
  O  O310  1  0.73172382  0.87062050  0.23181597  1
  O  O311  1  0.73818704  0.88315674  0.74440638  1
  O  O312  1  0.25163225  0.13388939  0.23014699  1
  O  O313  1  0.24312595  0.11835582  0.74606800  1
  O  O314  1  0.32383705  0.63119071  0.22490465  1
  O  O315  1  0.24254672  0.64628749  0.77047970  1
  O  O316  1  0.74889095  0.09952376  0.24683749  1
  O  O317  1  0.75064474  0.11287635  0.74448903  1
  O  O318  1  0.74284781  0.63767546  0.26484301  1
  O  O319  1  0.74253766  0.60760595  0.72690364  1
  O  O320  1  0.35441737  0.18222292  0.36224992  1
  O  O321  1  0.40771164  0.13623223  0.84870101  1
  O  O322  1  0.38312450  0.59689224  0.37815789  1
  O  O323  1  0.35934401  0.63040099  0.87773027  1
  O  O324  1  0.85461427  0.14343104  0.39670240  1
  O  O325  1  0.86928271  0.10879900  0.89420748  1
  O  O326  1  0.85184158  0.61929474  0.38158451  1
  O  O327  1  0.86778596  0.61916842  0.85495436  1
  O  O328  1  0.05132331  0.40683914  0.15037925  1
  O  O329  1  0.13570065  0.39870563  0.63560549  1
  O  O330  1  0.14422189  0.88663356  0.13150151  1
  O  O331  1  0.14066867  0.88063521  0.62342665  1
  O  O332  1  0.64423215  0.36908761  0.13752719  1
  O  O333  1  0.61503773  0.35364520  0.64660577  1
  O  O334  1  0.61819476  0.88215362  0.13344471  1
  O  O335  1  0.62833758  0.89409063  0.64578693  1
  O  O336  1  0.11317328  0.25518792  0.25780698  1
  O  O337  1  0.12101419  0.27363200  0.73208361  1
  O  O338  1  0.13131346  0.76494582  0.24702302  1
  O  O339  1  0.12766636  0.77678994  0.74712320  1
  O  O340  1  0.62389813  0.24826432  0.25670897  1
  O  O341  1  0.63310541  0.24889317  0.76987553  1
  O  O342  1  0.61521373  0.76657394  0.25040859  1
  O  O343  1  0.62862289  0.76782909  0.75882024  1
  O  O344  1  0.39127925  0.25085485  0.22582288  1
  O  O345  1  0.37308085  0.26308418  0.72981893  1
  O  O346  1  0.42913255  0.74760253  0.25166724  1
  O  O347  1  0.38534259  0.76132111  0.75197907  1
  O  O348  1  0.87233769  0.23527035  0.25254538  1
  O  O349  1  0.89748521  0.22768979  0.75339413  1
  O  O350  1  0.95326550  0.68471282  0.20555946  1
  O  O351  1  0.86809511  0.73175631  0.74759234  1
  O  O352  1  0.37535452  0.47255720  0.48253744  1
  O  O353  1  0.38763917  0.51836598  1.00661371  1
  O  O354  1  0.38508708  0.99948877  0.49086984  1
  O  O355  1  0.37433287  1.00260136  1.00083542  1
  O  O356  1  0.85814551  0.50320490  0.48812255  1
  O  O357  1  0.87667197  0.50715932  0.97103050  1
  O  O358  1  0.88550048  0.99384232  0.49406819  1
  O  O359  1  0.88652495  0.99821017  1.00009836  1
  O  O360  1  0.12445052  0.00937326  0.01086028  1
  O  O361  1  0.08574550  0.03161516  0.54048447  1
  O  O362  1  0.10307729  0.49567891  -0.00310268  1
  O  O363  1  0.18373715  0.50053414  0.53353078  1
  O  O364  1  0.61108664  -0.01741680  0.02013965  1
  O  O365  1  0.59972692  -0.00454240  0.51488140  1
  O  O366  1  0.65085841  0.52309245  0.00042200  1
  O  O367  1  0.60414260  0.51400893  0.48184203  1
  O  O368  1  0.39114058  0.35449005  0.11347959  1
  O  O369  1  0.39711381  0.38096278  0.60625857  1
  O  O370  1  0.36925679  0.88645612  0.10926179  1
  O  O371  1  0.37436703  0.88676181  0.61010501  1
  O  O372  1  0.86702117  0.36193941  0.14807087  1
  O  O373  1  0.86811684  0.39878792  0.60953060  1
  O  O374  1  0.85365798  0.87480530  0.12493115  1
  O  O375  1  0.85520668  0.87044484  0.63794717  1
  O  O376  1  0.10622463  0.13091280  0.35993178  1
  O  O377  1  0.11237384  0.13260010  0.89994386  1
  O  O378  1  0.13502855  0.60761203  0.42966563  1
  O  O379  1  0.14464871  0.62006133  0.90045770  1
  O  O380  1  0.62210776  0.13314430  0.37710754  1
  O  O381  1  0.62921700  0.14126325  0.88126696  1
  O  O382  1  0.62980947  0.62590507  0.37773653  1
  O  O383  1  0.63460988  0.61551186  0.86953323  1
