# generated using pymatgen
data_VZnO4
_symmetry_space_group_name_H-M   'P 1'
_cell_length_a   17.07610225
_cell_length_b   17.06502834
_cell_length_c   17.03309954
_cell_angle_alpha   88.97557168
_cell_angle_beta   90.88473797
_cell_angle_gamma   89.86806950
_symmetry_Int_Tables_number   1
_chemical_formula_structural   VZnO4
_chemical_formula_sum   'V64 Zn64 O256'
_cell_volume   4962.11470464
_cell_formula_units_Z   64
loop_
 _symmetry_equiv_pos_site_id
 _symmetry_equiv_pos_as_xyz
  1  'x, y, z'
loop_
 _atom_site_type_symbol
 _atom_site_label
 _atom_site_symmetry_multiplicity
 _atom_site_fract_x
 _atom_site_fract_y
 _atom_site_fract_z
 _atom_site_occupancy
  V  V0  1  0.88420773  0.62974947  0.73926199  1
  V  V1  1  0.38096118  0.22561065  0.14042655  1
  V  V2  1  0.91716792  0.84828221  -0.00521236  1
  V  V3  1  0.54360597  0.19836868  0.25138204  1
  V  V4  1  0.49740818  0.13201966  0.61876294  1
  V  V5  1  0.75682176  0.63499992  0.89266053  1
  V  V6  1  0.79032096  0.89009811  0.11360178  1
  V  V7  1  0.79267792  0.38252020  0.62525124  1
  V  V8  1  0.87103140  0.90097775  0.47989386  1
  V  V9  1  0.91064877  0.14005891  0.74748825  1
  V  V10  1  0.38890379  0.88922589  -0.01664410  1
  V  V11  1  0.24107361  0.86831143  0.64340316  1
  V  V12  1  0.11568670  0.36612594  0.74075651  1
  V  V13  1  0.23631059  0.64809541  0.35123093  1
  V  V14  1  0.62439170  0.09582475  -0.00871966  1
  V  V15  1  0.50516178  -0.00943715  0.51170761  1
  V  V16  1  0.87097673  0.78587221  0.63408191  1
  V  V17  1  0.88111582  0.38425869  0.01194390  1
  V  V18  1  0.23916060  0.24804499  0.02391089  1
  V  V19  1  0.74804239  0.50414094  0.74230729  1
  V  V20  1  0.36393972  -0.00654143  0.37299662  1
  V  V21  1  0.24426806  0.12100160  0.88277168  1
  V  V22  1  0.71127345  0.37415157  0.12148196  1
  V  V23  1  0.23704129  0.48947827  0.75947612  1
  V  V24  1  0.74301006  0.25553595  -0.03311946  1
  V  V25  1  0.38235292  0.34631757  0.47545168  1
  V  V26  1  0.75192208  0.76458760  0.49967302  1
  V  V27  1  0.00479559  0.38499510  0.88092673  1
  V  V28  1  0.12362527  0.61940397  -0.01871326  1
  V  V29  1  0.78092822  0.27769609  0.48691037  1
  V  V30  1  0.10478656  0.24658644  0.89571622  1
  V  V31  1  0.12806039  0.89391794  0.77711592  1
  V  V32  1  -0.02797031  0.51609038  0.45602195  1
  V  V33  1  0.00889274  0.24705023  0.24560541  1
  V  V34  1  0.87721140  0.11160078  0.24955353  1
  V  V35  1  0.75571407  0.01901695  0.74369325  1
  V  V36  1  0.13112864  0.25051704  0.37625183  1
  V  V37  1  0.11372511  0.54241471  0.58663084  1
  V  V38  1  0.17597053  0.89648521  0.14885556  1
  V  V39  1  0.32317909  0.42587404  0.16687192  1
  V  V40  1  0.11592960  0.39266667  0.24395164  1
  V  V41  1  0.36363941  0.85874439  0.51221791  1
  V  V42  1  0.63954959  0.61451490  0.51587064  1
  V  V43  1  0.49346193  0.84233691  0.39371419  1
  V  V44  1  0.38130635  0.74143297  0.65711635  1
  V  V45  1  0.01486069  0.01047601  0.51306689  1
  V  V46  1  0.10438538  0.50647200  0.11272700  1
  V  V47  1  0.87599132  0.50237981  0.88144726  1
  V  V48  1  0.47174840  0.49302944  0.54474689  1
  V  V49  1  0.52189462  0.41002759  0.35269906  1
  V  V50  1  0.02129120  0.87170475  0.37421031  1
  V  V51  1  0.61578810  0.74258365  0.88056243  1
  V  V52  1  0.87562916  0.25316776  0.13396556  1
  V  V53  1  0.64632905  0.87469366  0.74755172  1
  V  V54  1  0.88023921  0.01343171  0.88817851  1
  V  V55  1  0.01306576  0.75812357  0.75755748  1
  V  V56  1  0.38546484  0.34953886  -0.01249981  1
  V  V57  1  0.73488832  0.51592458  0.24451693  1
  V  V58  1  0.49017385  0.50924217  -0.02079668  1
  V  V59  1  0.51337606  0.91071807  0.86945556  1
  V  V60  1  0.39171855  0.75829187  0.10831656  1
  V  V61  1  0.60333271  0.83854487  0.25635210  1
  V  V62  1  0.26070035  0.63342265  0.86724147  1
  V  V63  1  0.66259990  0.15742221  0.49774150  1
  Zn  Zn64  1  0.23120683  0.20835522  0.23776595  1
  Zn  Zn65  1  0.11832355  0.15524573  0.73909745  1
  Zn  Zn66  1  0.22031366  0.68663379  0.13236247  1
  Zn  Zn67  1  0.19144907  0.68440245  0.69144282  1
  Zn  Zn68  1  0.70748961  0.17424553  0.17569769  1
  Zn  Zn69  1  0.70458417  0.19147947  0.66423831  1
  Zn  Zn70  1  0.72921243  0.71834411  0.20226614  1
  Zn  Zn71  1  0.69327285  0.69602244  0.69154481  1
  Zn  Zn72  1  0.31759011  0.33177728  0.32091039  1
  Zn  Zn73  1  0.28741867  0.30126387  0.82067204  1
  Zn  Zn74  1  0.30370779  0.84913950  0.29090598  1
  Zn  Zn75  1  0.31096274  0.82239444  0.83195856  1
  Zn  Zn76  1  0.67945756  0.32467329  0.30976232  1
  Zn  Zn77  1  0.82705739  0.31810941  0.80557680  1
  Zn  Zn78  1  0.79074343  0.84586309  0.31179291  1
  Zn  Zn79  1  0.82207861  0.81626852  0.82319087  1
  Zn  Zn80  1  0.20218933  0.44265262  0.42129803  1
  Zn  Zn81  1  0.20129485  0.43807931  0.95248081  1
  Zn  Zn82  1  0.18426081  0.93895204  0.45046999  1
  Zn  Zn83  1  0.20394443  0.93563406  0.96213041  1
  Zn  Zn84  1  0.71052350  0.45196930  0.43267185  1
  Zn  Zn85  1  0.69871256  0.46009279  0.96831001  1
  Zn  Zn86  1  0.67068702  0.90801204  0.44888196  1
  Zn  Zn87  1  0.70534253  0.93067686  0.93072284  1
  Zn  Zn88  1  0.26295616  0.06902278  0.09328486  1
  Zn  Zn89  1  0.33990343  0.04809442  0.57468120  1
  Zn  Zn90  1  0.33650084  0.57548350  0.04029309  1
  Zn  Zn91  1  0.31116493  0.54454514  0.61927977  1
  Zn  Zn92  1  0.79601627  0.07724386  0.06084399  1
  Zn  Zn93  1  0.82983132  0.07349845  0.57206795  1
  Zn  Zn94  1  0.79373112  0.56055812  0.09126512  1
  Zn  Zn95  1  0.81400439  0.57429227  0.55892804  1
  Zn  Zn96  1  0.49643138  0.42995039  0.16447609  1
  Zn  Zn97  1  0.39721899  0.39399433  0.67792757  1
  Zn  Zn98  1  0.42354072  0.89727569  0.19874231  1
  Zn  Zn99  1  0.44209006  0.92912612  0.69413941  1
  Zn  Zn100  1  0.93126274  0.45324493  0.19242624  1
  Zn  Zn101  1  0.95359717  0.45497245  0.69343687  1
  Zn  Zn102  1  0.97190035  0.93338446  0.18388077  1
  Zn  Zn103  1  0.95094757  0.95664868  0.70501781  1
  Zn  Zn104  1  0.02583414  0.08231819  0.35231180  1
  Zn  Zn105  1  0.07776049  0.03589514  0.86076230  1
  Zn  Zn106  1  0.06392367  0.57127657  0.29397419  1
  Zn  Zn107  1  0.06170984  0.55932843  0.80825949  1
  Zn  Zn108  1  0.57865961  0.03299655  0.34816604  1
  Zn  Zn109  1  0.59030778  0.07677196  0.80107087  1
  Zn  Zn110  1  0.58597467  0.59527381  0.33352861  1
  Zn  Zn111  1  0.58376990  0.54015072  0.83655968  1
  Zn  Zn112  1  0.44664456  0.16634883  0.42022378  1
  Zn  Zn113  1  0.44005070  0.07844252  0.94358441  1
  Zn  Zn114  1  0.46219009  0.68579486  0.51300961  1
  Zn  Zn115  1  0.43204036  0.68774660  0.92856315  1
  Zn  Zn116  1  0.94313588  0.19746607  0.42928134  1
  Zn  Zn117  1  0.91642967  0.19241442  0.94247304  1
  Zn  Zn118  1  1.06116534  0.69351643  0.45575173  1
  Zn  Zn119  1  0.94688891  0.68087235  0.93238522  1
  Zn  Zn120  1  0.06125783  0.32468986  0.07009988  1
  Zn  Zn121  1  0.08523851  0.37124158  0.52921813  1
  Zn  Zn122  1  0.08233960  0.78541299  0.05779324  1
  Zn  Zn123  1  0.04907167  0.82356752  0.57455324  1
  Zn  Zn124  1  0.54510539  0.24185046  0.04434839  1
  Zn  Zn125  1  0.56208777  0.31603803  0.54394306  1
  Zn  Zn126  1  0.56199517  0.81056087  0.05572621  1
  Zn  Zn127  1  0.56299391  0.80551473  0.58353135  1
  O  O128  1  0.11325473  0.09190360  0.13490473  1
  O  O129  1  0.09774963  0.17569950  0.61436510  1
  O  O130  1  0.14282798  0.60540233  0.10629422  1
  O  O131  1  0.13269537  0.64004262  0.60531595  1
  O  O132  1  0.68207461  0.11530381  0.08151074  1
  O  O133  1  0.63448495  0.12642389  0.59040976  1
  O  O134  1  0.44552832  0.62393792  0.22715592  1
  O  O135  1  0.62689500  0.65174852  0.61039836  1
  O  O136  1  0.42593396  0.36666452  0.36737694  1
  O  O137  1  0.37082608  0.33414779  0.88998299  1
  O  O138  1  0.37355600  0.86598167  0.39993011  1
  O  O139  1  0.41351783  0.88203880  0.86524361  1
  O  O140  1  0.90207142  0.37866766  0.37311447  1
  O  O141  1  0.88406151  0.38617026  0.88501310  1
  O  O142  1  0.87020068  0.89285883  0.37928078  1
  O  O143  1  0.87417613  0.88050905  0.90367671  1
  O  O144  1  0.26607128  -0.01025099  0.39253117  1
  O  O145  1  0.18951813  0.03421671  0.90675050  1
  O  O146  1  0.22206584  0.54580488  0.36455307  1
  O  O147  1  0.25304957  0.48261699  0.85943580  1
  O  O148  1  0.67890748  -0.03083143  0.34415654  1
  O  O149  1  0.77403752  -0.00764448  0.86112622  1
  O  O150  1  0.75928950  0.50892314  0.34180885  1
  O  O151  1  0.76230089  0.50822320  0.86372298  1
  O  O152  1  0.28234823  0.49427673  0.10352256  1
  O  O153  1  0.20394936  0.51085810  0.64068826  1
  O  O154  1  0.22022096  0.96282558  0.07612655  1
  O  O155  1  0.28680488  0.98024322  0.65898412  1
  O  O156  1  0.71108828  0.47349821  0.08724482  1
  O  O157  1  0.76656781  0.49579749  0.63528897  1
  O  O158  1  0.77065270  0.98314599  0.13355535  1
  O  O159  1  0.76516340  1.00684280  0.64553532  1
  O  O160  1  0.01306509  0.38319127  0.24043879  1
  O  O161  1  0.00413177  0.38095299  0.77349784  1
  O  O162  1  -0.00400402  0.86965378  0.27668946  1
  O  O163  1  0.02125158  0.86935664  0.75021267  1
  O  O164  1  0.53741861  0.38253496  0.25662256  1
  O  O165  1  0.43759085  0.24476479  0.75153805  1
  O  O166  1  0.49917857  0.85222898  0.27777677  1
  O  O167  1  0.52512455  0.89117056  0.76485911  1
  O  O168  1  0.55355819  0.09963455  0.25598446  1
  O  O169  1  0.53750716  0.12268567  0.71263135  1
  O  O170  1  0.48884298  0.66169716  0.27108726  1
  O  O171  1  0.47987271  0.52250160  0.87112265  1
  O  O172  1  1.00657612  0.14691794  0.24392517  1
  O  O173  1  1.01068069  0.12262522  0.74896046  1
  O  O174  1  1.00193049  0.65339116  0.23715304  1
  O  O175  1  0.98836202  0.63580072  0.75758427  1
  O  O176  1  0.35418795  0.24261881  0.03043264  1
  O  O177  1  0.38505833  0.24758518  0.46583870  1
  O  O178  1  0.39347032  0.76934357  -0.00278540  1
  O  O179  1  0.36368998  0.75806779  0.51873184  1
  O  O180  1  0.87262370  0.27370903  0.01186058  1
  O  O181  1  0.87959368  0.26523883  0.49015214  1
  O  O182  1  0.89424125  0.75222743  0.00362435  1
  O  O183  1  0.86846726  0.78743670  0.52465799  1
  O  O184  1  0.12529488  0.28277391  0.47071396  1
  O  O185  1  0.12711613  0.26277025  1.00144101  1
  O  O186  1  0.12042040  0.76363036  0.51573179  1
  O  O187  1  0.14369511  0.71661875  0.99427315  1
  O  O188  1  0.64983543  0.26065424  0.49648822  1
  O  O189  1  0.64693372  0.24223624  0.99193246  1
  O  O190  1  0.65532334  0.78836452  0.51716025  1
  O  O191  1  0.62468131  0.75163746  0.98068720  1
  O  O192  1  0.48991294  0.22433364  0.15521695  1
  O  O193  1  0.50797375  0.22926180  0.59155396  1
  O  O194  1  0.48934064  0.74075503  0.11909822  1
  O  O195  1  0.48109509  0.73652021  0.61868838  1
  O  O196  1  0.98656705  0.26603258  0.13366579  1
  O  O197  1  1.03295348  0.20746292  0.60013784  1
  O  O198  1  1.00512999  0.73624196  0.13414067  1
  O  O199  1  0.97924915  0.76197195  0.64535270  1
  O  O200  1  0.01198514  0.26172509  0.35192978  1
  O  O201  1  -0.00052936  0.27352890  0.89759111  1
  O  O202  1  -0.00070197  0.77246350  0.40260652  1
  O  O203  1  -0.00761262  0.75306565  0.85494004  1
  O  O204  1  0.50418122  0.22430353  0.33725520  1
  O  O205  1  0.43374882  0.20876496  0.81602944  1
  O  O206  1  0.47845432  0.74581982  0.41235423  1
  O  O207  1  0.51901905  0.72872520  0.86629645  1
  O  O208  1  0.24099070  0.13059371  0.54023325  1
  O  O209  1  0.23862138  0.14231487  1.00402167  1
  O  O210  1  0.24754661  0.66428196  0.45186893  1
  O  O211  1  0.24788894  0.60128234  0.96927381  1
  O  O212  1  0.76762340  0.15977008  0.50689463  1
  O  O213  1  0.78698902  0.16414364  0.97676966  1
  O  O214  1  0.74548549  0.65503512  0.51033394  1
  O  O215  1  0.76102332  0.61433031  0.99014690  1
  O  O216  1  0.26197987  0.35185676  -0.00196674  1
  O  O217  1  0.29422326  0.38014590  0.43064304  1
  O  O218  1  0.29343472  0.87219556  -0.05828716  1
  O  O219  1  0.26039242  0.88516542  0.53094600  1
  O  O220  1  0.75647591  0.36289177  0.00546832  1
  O  O221  1  0.76836113  0.38494806  0.51450700  1
  O  O222  1  0.74984817  0.86838150  0.02439954  1
  O  O223  1  0.76871244  0.88634441  0.50270252  1
  O  O224  1  0.12353253  0.49964323  0.22978650  1
  O  O225  1  0.12408418  0.47384047  0.76268117  1
  O  O226  1  0.14006272  1.08119264  0.20449715  1
  O  O227  1  0.11881129  0.99154585  0.76035802  1
  O  O228  1  0.63583205  0.54107990  0.25046605  1
  O  O229  1  0.65000780  0.50631220  0.75083200  1
  O  O230  1  0.56020118  1.00655349  0.14023131  1
  O  O231  1  0.65189197  0.98738778  0.76137947  1
  O  O232  1  0.36698507  -0.04382516  0.27578635  1
  O  O233  1  0.33932773  -0.01590310  0.72173510  1
  O  O234  1  0.39781738  0.47092124  0.21509439  1
  O  O235  1  0.33111551  0.47630188  0.71796578  1
  O  O236  1  0.91071881  0.02111265  0.22266632  1
  O  O237  1  0.87309511  0.02282614  0.76001461  1
  O  O238  1  0.86397671  0.39138155  0.31271906  1
  O  O239  1  0.87787636  0.51591718  0.76045373  1
  O  O240  1  0.13726693  0.38280210  0.34504537  1
  O  O241  1  0.10742738  0.37513101  0.89184032  1
  O  O242  1  0.12185766  0.87175853  0.38409060  1
  O  O243  1  0.13403350  0.88486735  0.87600950  1
  O  O244  1  0.62221898  0.38735301  0.38775408  1
  O  O245  1  0.57178444  0.31762041  0.84187342  1
  O  O246  1  0.59539077  0.84542703  0.38351089  1
  O  O247  1  0.62142852  0.86488126  0.87109101  1
  O  O248  1  0.35878965  0.12897691  0.13208676  1
  O  O249  1  0.39738485  0.12570220  0.63023376  1
  O  O250  1  0.32902261  0.67288218  0.10563921  1
  O  O251  1  0.35404072  0.64593770  0.64271216  1
  O  O252  1  0.86727467  0.15078310  0.12932933  1
  O  O253  1  0.87895625  0.13659988  0.65056931  1
  O  O254  1  0.83557043  0.50946119  0.19275461  1
  O  O255  1  0.87962487  0.62557458  0.64064454  1
  O  O256  1  0.23066186  0.24642007  0.12271415  1
  O  O257  1  0.24675375  0.19612393  0.57064171  1
  O  O258  1  0.18172634  0.79612116  0.12262537  1
  O  O259  1  0.26130356  0.76643064  0.64707662  1
  O  O260  1  0.76729338  0.27377191  0.13550755  1
  O  O261  1  0.76357521  0.28174702  0.61906511  1
  O  O262  1  0.77708723  0.82117847  0.19725069  1
  O  O263  1  0.77091845  0.75452636  0.62695463  1
  O  O264  1  0.23093053  0.25074628  0.34469414  1
  O  O265  1  0.22399624  0.23550528  0.89334046  1
  O  O266  1  0.24869773  0.74992085  0.33625169  1
  O  O267  1  0.24513134  0.73083916  0.85814152  1
  O  O268  1  0.76058401  0.28701420  0.38923385  1
  O  O269  1  0.74308952  0.27806217  0.86954279  1
  O  O270  1  0.75860740  0.77149116  0.39923418  1
  O  O271  1  0.76173709  0.73525441  0.88222978  1
  O  O272  1  -0.01348644  0.14276728  0.02957656  1
  O  O273  1  -0.00381657  0.10911919  0.48362642  1
  O  O274  1  0.02270842  0.61823954  -0.01336770  1
  O  O275  1  0.03929736  0.58818907  0.49509696  1
  O  O276  1  0.52378904  0.12755104  0.00494899  1
  O  O277  1  0.49635573  0.09834088  0.50360901  1
  O  O278  1  0.45030445  0.60108802  0.00651834  1
  O  O279  1  0.51656305  0.58439518  0.52146547  1
  O  O280  1  0.49602288  0.39907361  0.49251268  1
  O  O281  1  0.48194051  0.32308927  0.99865603  1
  O  O282  1  0.48512789  0.86867057  0.50689391  1
  O  O283  1  0.50705117  0.88087075  0.97582343  1
  O  O284  1  0.99043782  0.42380687  0.49313611  1
  O  O285  1  0.98510434  0.38624128  0.99829156  1
  O  O286  1  0.98212339  0.89235607  0.50454466  1
  O  O287  1  1.01627652  0.85312185  0.99377555  1
  O  O288  1  0.51241537  0.50827331  0.35903136  1
  O  O289  1  0.53233681  0.37239766  0.81527618  1
  O  O290  1  0.48988574  0.97231184  0.39457183  1
  O  O291  1  0.50853294  1.01276812  0.86802645  1
  O  O292  1  0.98641513  0.52169978  0.35462293  1
  O  O293  1  0.98735312  0.49413470  0.87656868  1
  O  O294  1  1.00821643  0.98132118  0.39568732  1
  O  O295  1  0.97917844  0.98879224  0.87792852  1
  O  O296  1  0.01703493  0.01491767  0.04840021  1
  O  O297  1  -0.00527447  0.00541020  0.61249028  1
  O  O298  1  0.00634640  0.51241242  0.12147563  1
  O  O299  1  0.03424140  0.51025025  0.63830965  1
  O  O300  1  0.48809989  0.00043535  0.13984805  1
  O  O301  1  0.49177169  -0.00191514  0.61479466  1
  O  O302  1  0.52501024  0.47567422  0.07122682  1
  O  O303  1  0.48411700  0.46522811  0.64062147  1
  O  O304  1  0.25491928  0.38987410  0.23699222  1
  O  O305  1  0.22236604  0.37086711  0.75342017  1
  O  O306  1  0.21521283  0.90498934  0.23928014  1
  O  O307  1  0.23402152  0.87294784  0.75549885  1
  O  O308  1  0.71946840  0.40246691  0.22607542  1
  O  O309  1  0.77053699  0.39414403  0.73572650  1
  O  O310  1  0.68792426  0.91011076  0.28383635  1
  O  O311  1  0.74980476  0.87963791  0.75835030  1
  O  O312  1  0.22628565  0.09516110  0.20749870  1
  O  O313  1  0.21929014  0.13077595  0.78296118  1
  O  O314  1  0.22303954  0.64466155  0.24717762  1
  O  O315  1  0.23260662  0.59987032  0.76212710  1
  O  O316  1  0.77759709  0.11467224  0.24700371  1
  O  O317  1  0.73720667  0.11974261  0.74741095  1
  O  O318  1  0.74521079  0.61525440  0.18296091  1
  O  O319  1  0.76635137  0.61602488  0.75157929  1
  O  O320  1  0.38531074  0.09066706  0.36397636  1
  O  O321  1  0.34229580  0.10692881  0.88697840  1
  O  O322  1  0.33613901  0.62759536  0.34090199  1
  O  O323  1  0.35996571  0.62823575  0.86251852  1
  O  O324  1  0.90257633  0.12261284  0.34864398  1
  O  O325  1  0.89101044  0.11858000  0.86259527  1
  O  O326  1  0.87305823  0.65615633  0.33390441  1
  O  O327  1  0.86858375  0.61906985  0.87079742  1
  O  O328  1  0.12742480  0.39732528  0.13011609  1
  O  O329  1  0.10017435  0.35204225  0.64480810  1
  O  O330  1  0.07773398  0.91638451  0.14760666  1
  O  O331  1  0.14173449  0.87713066  0.63800252  1
  O  O332  1  0.62129029  0.34141547  0.11115200  1
  O  O333  1  0.60590574  0.34021739  0.66490942  1
  O  O334  1  0.60014248  0.85718161  0.15667819  1
  O  O335  1  0.62509916  0.87115059  0.65075663  1
  O  O336  1  0.11447102  0.26972244  0.24192199  1
  O  O337  1  0.11254986  0.26593943  0.78348905  1
  O  O338  1  0.04140812  0.70949749  0.19949707  1
  O  O339  1  0.11196490  0.74708755  0.74895569  1
  O  O340  1  0.64090426  0.23484625  0.24757367  1
  O  O341  1  0.62307300  0.27911206  0.70632499  1
  O  O342  1  0.63638394  0.74418585  0.26389521  1
  O  O343  1  0.64369568  0.76468464  0.76876562  1
  O  O344  1  0.34758920  0.24609799  0.23396872  1
  O  O345  1  0.36792513  0.29478110  0.73248944  1
  O  O346  1  0.35890257  0.79161839  0.20478743  1
  O  O347  1  0.38239191  0.76273053  0.75338109  1
  O  O348  1  0.89057564  0.24800769  0.23910012  1
  O  O349  1  0.89188350  0.23751276  0.76689772  1
  O  O350  1  0.86313225  0.70970243  0.28540701  1
  O  O351  1  0.87517777  0.74151555  0.74741789  1
  O  O352  1  0.37498616  0.51501807  0.53014714  1
  O  O353  1  0.39564366  0.45542090  0.98675381  1
  O  O354  1  0.38319869  0.98041232  0.49704341  1
  O  O355  1  0.38888089  0.98926069  0.99401604  1
  O  O356  1  0.87609555  0.53788141  0.47677396  1
  O  O357  1  0.85925680  0.48859443  0.99294125  1
  O  O358  1  0.87423150  1.00065917  0.50012115  1
  O  O359  1  0.86533789  1.02124895  0.98719827  1
  O  O360  1  0.02985457  0.07861364  0.01100226  1
  O  O361  1  0.11500859  -0.00036244  0.51415789  1
  O  O362  1  0.12557651  0.49825511  0.00891787  1
  O  O363  1  0.14407509  0.47221426  0.50948854  1
  O  O364  1  0.63197562  -0.00403311  -0.00934290  1
  O  O365  1  0.60321924  -0.02545859  0.50844941  1
  O  O366  1  0.59672299  0.49251358  -0.05620975  1
  O  O367  1  0.66292296  0.51729321  0.51103660  1
  O  O368  1  0.37862990  0.35085180  0.11782759  1
  O  O369  1  0.36912826  0.35819698  0.57336372  1
  O  O370  1  0.38922771  0.87291521  0.09052579  1
  O  O371  1  0.37597471  0.85922558  0.62629923  1
  O  O372  1  0.87663378  0.37736304  0.11505546  1
  O  O373  1  0.89037367  0.38424031  0.62925739  1
  O  O374  1  0.89632367  0.88951995  0.09573145  1
  O  O375  1  0.87330540  0.88121313  0.65394598  1
  O  O376  1  0.11618336  0.15152107  0.37570631  1
  O  O377  1  0.09020151  0.14939527  0.89019653  1
  O  O378  1  0.13028549  0.65541028  0.35872213  1
  O  O379  1  0.13437887  0.60904365  0.87747029  1
  O  O380  1  0.63168172  0.11164810  0.41513248  1
  O  O381  1  0.64129554  0.11856204  0.89405552  1
  O  O382  1  0.61170245  0.65294883  0.42417902  1
  O  O383  1  0.65002366  0.63618632  0.86619224  1
