# generated using pymatgen
data_VZnO4
_symmetry_space_group_name_H-M   'P 1'
_cell_length_a   16.91487066
_cell_length_b   16.97237889
_cell_length_c   16.95397621
_cell_angle_alpha   89.75061941
_cell_angle_beta   90.20291689
_cell_angle_gamma   90.08426072
_symmetry_Int_Tables_number   1
_chemical_formula_structural   VZnO4
_chemical_formula_sum   'V64 Zn64 O256'
_cell_volume   4867.16054363
_cell_formula_units_Z   64
loop_
 _symmetry_equiv_pos_site_id
 _symmetry_equiv_pos_as_xyz
  1  'x, y, z'
loop_
 _atom_site_type_symbol
 _atom_site_label
 _atom_site_symmetry_multiplicity
 _atom_site_fract_x
 _atom_site_fract_y
 _atom_site_fract_z
 _atom_site_occupancy
  V  V0  1  -0.03864355  0.62424438  0.66289243  1
  V  V1  1  0.13342583  -0.01509164  0.64290278  1
  V  V2  1  0.38695667  0.75305220  0.11480438  1
  V  V3  1  -0.01090502  0.37902874  0.87030748  1
  V  V4  1  -0.01314254  0.87186062  0.85502639  1
  V  V5  1  0.86786494  0.23434305  0.64330618  1
  V  V6  1  0.38349558  0.61643975  0.24809014  1
  V  V7  1  0.49145154  0.27575875  0.23668242  1
  V  V8  1  0.38884146  0.25866150  0.63639220  1
  V  V9  1  0.88798271  0.49365728  0.38633369  1
  V  V10  1  0.74820684  0.63383787  0.37089606  1
  V  V11  1  0.61712713  0.50776091  0.63116251  1
  V  V12  1  0.47106720  0.86861784  0.36880664  1
  V  V13  1  0.50638940  0.49776720  0.47924944  1
  V  V14  1  0.89569878  0.64263645  0.24208741  1
  V  V15  1  0.51072329  0.60325864  0.11131636  1
  V  V16  1  0.50160115  0.75835106  0.73101656  1
  V  V17  1  0.24424351  0.24506383  0.50489566  1
  V  V18  1  0.23904634  0.50528078  0.74790331  1
  V  V19  1  0.24315211  0.63554517  0.36623080  1
  V  V20  1  0.36819110  0.90100129  0.51235425  1
  V  V21  1  0.62634411  0.63492810  0.49370702  1
  V  V22  1  -0.01602421  0.49925955  0.00322088  1
  V  V23  1  0.38964827  0.62765031  0.74149026  1
  V  V24  1  0.61503100  0.27497789  0.37002849  1
  V  V25  1  0.61360292  0.36637370  0.74003975  1
  V  V26  1  0.33455542  0.12913893  0.25980650  1
  V  V27  1  0.89819076  0.24700918  0.12554781  1
  V  V28  1  0.00103160  0.23907727  0.75398289  1
  V  V29  1  -0.01018776  0.26482944  0.28465999  1
  V  V30  1  0.61616387  0.13465949  0.48582102  1
  V  V31  1  0.14893092  0.11992857  -0.00570087  1
  V  V32  1  0.27035599  0.74233722  0.52674501  1
  V  V33  1  0.35757367  0.36730763  0.00039751  1
  V  V34  1  0.24212668  0.61952822  0.88645689  1
  V  V35  1  0.39736690  0.50718068  0.87861401  1
  V  V36  1  0.11299714  0.75205085  0.86705201  1
  V  V37  1  0.87484116  0.87168629  0.01855825  1
  V  V38  1  0.12280754  0.62537470  0.51436990  1
  V  V39  1  0.00399422  0.86974036  0.38189275  1
  V  V40  1  0.76113838  0.38695645  0.63275150  1
  V  V41  1  -0.02034107  0.00580878  0.51410685  1
  V  V42  1  0.61040984  0.75395369  0.87975899  1
  V  V43  1  0.50442603  0.36795087  0.87760369  1
  V  V44  1  0.37898427  0.38462626  0.49238356  1
  V  V45  1  0.12458560  0.11517452  0.51233532  1
  V  V46  1  0.12641047  0.52187613  0.11624644  1
  V  V47  1  0.24476598  0.48385346  0.24893515  1
  V  V48  1  0.25413597  0.76429611  -0.00137121  1
  V  V49  1  0.49883173  0.12684099  0.13600193  1
  V  V50  1  0.62481703  0.22942761  0.87314726  1
  V  V51  1  0.74057597  0.86741143  0.63449556  1
  V  V52  1  0.75184737  0.74408944  0.00156853  1
  V  V53  1  0.24372489  0.38418762  0.63203038  1
  V  V54  1  0.76379826  0.24028459  0.00486555  1
  V  V55  1  0.01487601  0.00021243  0.00075783  1
  V  V56  1  0.14325930  0.24706944  0.87000841  1
  V  V57  1  0.86086687  0.84455129  0.50218919  1
  V  V58  1  0.76044898  0.25768695  0.49204363  1
  V  V59  1  0.50170271  0.11983730  0.62258762  1
  V  V60  1  0.63696200  0.38761610  0.22407098  1
  V  V61  1  0.76405175  0.49867930  0.24015802  1
  V  V62  1  0.86404777  0.00804388  0.86623767  1
  V  V63  1  0.39062714  -0.00311513  0.87027572  1
  Zn  Zn64  1  0.13633695  0.15777471  0.19663305  1
  Zn  Zn65  1  0.18992208  0.18074574  0.69341432  1
  Zn  Zn66  1  0.20174375  0.67921599  0.17809214  1
  Zn  Zn67  1  0.18845023  0.68462926  0.69194067  1
  Zn  Zn68  1  0.67646372  0.19988344  0.17247509  1
  Zn  Zn69  1  0.67685164  0.19397051  0.67923525  1
  Zn  Zn70  1  0.73895584  0.64855913  0.14626875  1
  Zn  Zn71  1  0.67915802  0.69141042  0.68947274  1
  Zn  Zn72  1  0.30815398  0.29970175  0.32199458  1
  Zn  Zn73  1  0.31865260  0.32030681  0.81107103  1
  Zn  Zn74  1  0.33384549  0.81062594  0.30062532  1
  Zn  Zn75  1  0.31233193  0.80457045  0.80546848  1
  Zn  Zn76  1  0.82289489  0.31913588  0.30474452  1
  Zn  Zn77  1  0.80103754  0.30701186  0.81801220  1
  Zn  Zn78  1  0.83223614  0.80781719  0.32568834  1
  Zn  Zn79  1  0.76512159  0.85778745  0.83785863  1
  Zn  Zn80  1  0.20194252  0.45403405  0.44434460  1
  Zn  Zn81  1  0.17738103  0.43345198  0.93358981  1
  Zn  Zn82  1  0.14961067  0.85843262  0.50687120  1
  Zn  Zn83  1  0.19282825  0.93118918  0.90496376  1
  Zn  Zn84  1  0.70410238  0.44529726  0.44043007  1
  Zn  Zn85  1  0.69547251  0.40074404  0.93629857  1
  Zn  Zn86  1  0.67500883  0.94309861  0.51070379  1
  Zn  Zn87  1  0.68508645  0.92759210  0.95099137  1
  Zn  Zn88  1  0.33696888  0.10383654  0.06776112  1
  Zn  Zn89  1  0.30467475  0.06963384  0.59963286  1
  Zn  Zn90  1  0.31955662  0.54877079  0.06570044  1
  Zn  Zn91  1  0.31846561  0.56499127  0.55809306  1
  Zn  Zn92  1  0.83790864  0.07759701  0.04540461  1
  Zn  Zn93  1  0.79384357  0.07066934  0.56877085  1
  Zn  Zn94  1  0.77686009  0.52781206  0.02335493  1
  Zn  Zn95  1  0.81236094  0.57070212  0.56089266  1
  Zn  Zn96  1  0.43334363  0.43384874  0.18401276  1
  Zn  Zn97  1  0.43709628  0.44777055  0.68513414  1
  Zn  Zn98  1  0.39801779  0.95815552  0.19008715  1
  Zn  Zn99  1  0.44559766  0.93769156  0.67767397  1
  Zn  Zn100  1  0.94601831  0.42861120  0.18715204  1
  Zn  Zn101  1  0.96692591  0.43507754  0.68154679  1
  Zn  Zn102  1  0.98441270  0.90377361  0.17589803  1
  Zn  Zn103  1  0.91526314  0.94423909  0.68046036  1
  Zn  Zn104  1  0.11459797  0.00183303  0.37587796  1
  Zn  Zn105  1  0.06018653  0.06163605  0.81589190  1
  Zn  Zn106  1  0.06715271  0.55939455  0.30689552  1
  Zn  Zn107  1  0.05796228  0.56307942  0.81714883  1
  Zn  Zn108  1  0.56206274  0.08855405  0.31006207  1
  Zn  Zn109  1  0.56621436  0.06606507  0.79896057  1
  Zn  Zn110  1  0.57087270  0.56129160  0.30459554  1
  Zn  Zn111  1  0.59446505  0.56315670  0.94081290  1
  Zn  Zn112  1  0.42884512  0.20126781  0.43340564  1
  Zn  Zn113  1  0.44653356  0.18887318  0.94255341  1
  Zn  Zn114  1  0.44275793  0.68372708  0.42912098  1
  Zn  Zn115  1  0.44250038  0.68556545  0.94183058  1
  Zn  Zn116  1  0.95154493  0.19931194  0.46985584  1
  Zn  Zn117  1  0.94167788  0.18453404  0.93513486  1
  Zn  Zn118  1  0.94293337  0.68146120  0.42846088  1
  Zn  Zn119  1  0.92915514  0.68658606  0.93936139  1
  Zn  Zn120  1  0.05800967  0.30197194  0.03933578  1
  Zn  Zn121  1  0.06815311  0.30338147  0.58462688  1
  Zn  Zn122  1  0.06912326  0.81002780  0.03301811  1
  Zn  Zn123  1  0.01573772  0.82142113  0.60868946  1
  Zn  Zn124  1  0.57063526  0.31307551  0.05429607  1
  Zn  Zn125  1  0.56563398  0.31885480  0.55467621  1
  Zn  Zn126  1  0.60416585  0.75102235  0.09985969  1
  Zn  Zn127  1  0.54700023  0.81791286  0.55158552  1
  O  O128  1  0.12841590  0.11843079  0.09290627  1
  O  O129  1  0.13532368  0.10463043  0.62430900  1
  O  O130  1  0.12283294  0.62076692  0.11590910  1
  O  O131  1  0.13083220  0.62583740  0.61584146  1
  O  O132  1  0.59845895  0.13811039  0.11680415  1
  O  O133  1  0.60901863  0.14649236  0.59829050  1
  O  O134  1  0.60851125  0.63266265  0.13388436  1
  O  O135  1  0.63779068  0.61307569  0.60826530  1
  O  O136  1  0.36514394  0.37710712  0.39567281  1
  O  O137  1  0.39221790  0.38738422  0.87239635  1
  O  O138  1  0.36672359  0.87578581  0.39745508  1
  O  O139  1  0.38119528  0.89290729  0.86949294  1
  O  O140  1  0.87320159  0.39426788  0.37430030  1
  O  O141  1  0.89077570  0.37828242  0.86023112  1
  O  O142  1  0.88667240  0.87563654  0.39795537  1
  O  O143  1  0.88215386  0.87592717  0.88112714  1
  O  O144  1  0.22090578  -0.07779427  0.29449662  1
  O  O145  1  0.28856174  0.01072381  0.87976649  1
  O  O146  1  0.24442554  0.50959811  0.35413118  1
  O  O147  1  0.24967099  0.50701440  0.86437157  1
  O  O148  1  0.75148541  -0.04000732  0.32504197  1
  O  O149  1  0.76478517  -0.01641598  0.88618934  1
  O  O150  1  0.76345336  0.50936801  0.36423863  1
  O  O151  1  0.79121141  0.49905935  0.83312755  1
  O  O152  1  0.23510726  0.50149750  0.13068353  1
  O  O153  1  0.26009156  0.49645327  0.63901639  1
  O  O154  1  0.33715345  0.99613005  0.09852314  1
  O  O155  1  0.23316854  0.98115876  0.63577037  1
  O  O156  1  0.75620842  0.51718573  0.14087360  1
  O  O157  1  0.73764242  0.48705880  0.61430001  1
  O  O158  1  0.72542101  1.01220339  0.09687326  1
  O  O159  1  0.74364451  0.97854571  0.60099133  1
  O  O160  1  0.01339870  0.35839291  0.25302568  1
  O  O161  1  0.00815035  0.36683600  0.76040446  1
  O  O162  1  -0.00198280  0.89895147  0.28505697  1
  O  O163  1  -0.01826376  0.86854845  0.75630703  1
  O  O164  1  0.52752146  0.38168647  0.24037600  1
  O  O165  1  0.50995033  0.38916603  0.75820149  1
  O  O166  1  0.43895606  0.87977523  0.26961270  1
  O  O167  1  0.49681698  0.85841294  0.73926238  1
  O  O168  1  0.50347882  0.16598990  0.24911458  1
  O  O169  1  0.51385527  0.13031933  0.72231306  1
  O  O170  1  0.48792238  0.61019776  0.24044680  1
  O  O171  1  0.48851376  0.63213014  0.75408337  1
  O  O172  1  0.89457462  0.05000107  0.24562868  1
  O  O173  1  0.99278613  0.14105527  0.75728432  1
  O  O174  1  0.99459903  0.62517957  0.24516584  1
  O  O175  1  0.97858996  0.62084454  0.76396183  1
  O  O176  1  0.37790458  0.27020540  -0.01974040  1
  O  O177  1  0.36340860  0.26921664  0.50943666  1
  O  O178  1  0.36461986  0.74513069  0.00220150  1
  O  O179  1  0.36906677  0.72893946  0.50109483  1
  O  O180  1  0.87477408  0.24119575  0.01196556  1
  O  O181  1  0.86436616  0.24748616  0.52499015  1
  O  O182  1  0.87161650  0.76311454  0.00541131  1
  O  O183  1  0.87118402  0.74582368  0.49742272  1
  O  O184  1  0.13469177  0.23210921  0.52654840  1
  O  O185  1  0.12834533  0.23173226  0.98100868  1
  O  O186  1  0.16287132  0.73508058  0.49983431  1
  O  O187  1  0.14266133  0.74572429  0.98026433  1
  O  O188  1  0.63356503  0.26063291  0.48229477  1
  O  O189  1  0.64006305  0.25847298  0.97518236  1
  O  O190  1  0.61406206  0.73116269  0.49831883  1
  O  O191  1  0.63840942  0.76457594  0.98944616  1
  O  O192  1  0.50621961  0.26254859  0.13431120  1
  O  O193  1  0.49025434  0.26188678  0.61950335  1
  O  O194  1  0.48985951  0.73288761  0.10956673  1
  O  O195  1  0.50672636  0.74541770  0.63269187  1
  O  O196  1  0.99846226  0.24036187  0.11541580  1
  O  O197  1  0.98069683  0.25851589  0.64043485  1
  O  O198  1  1.14004430  0.76420023  0.23979139  1
  O  O199  1  0.99302828  0.71790160  0.63261927  1
  O  O200  1  -0.02490109  0.26237523  0.38494663  1
  O  O201  1  -0.00249772  0.25752591  0.86393886  1
  O  O202  1  0.00370215  0.77012334  0.38367306  1
  O  O203  1  0.00558246  0.75348541  0.87739301  1
  O  O204  1  0.51306272  0.27462775  0.36144488  1
  O  O205  1  0.50702219  0.26312582  0.87180957  1
  O  O206  1  0.49518006  0.77054522  0.37251116  1
  O  O207  1  0.50792931  0.75910049  0.88311108  1
  O  O208  1  0.25307101  0.14373930  0.51396300  1
  O  O209  1  0.24925792  0.12112999  0.99588499  1
  O  O210  1  0.25541582  0.62575482  0.48098519  1
  O  O211  1  0.25608243  0.61432372  0.98540024  1
  O  O212  1  0.73370700  0.15407408  0.50954810  1
  O  O213  1  0.75423321  0.14209845  0.98794646  1
  O  O214  1  0.73771260  0.61962797  0.48304709  1
  O  O215  1  0.76292527  0.64336667  1.01035740  1
  O  O216  1  0.25807873  0.37335256  -0.01179719  1
  O  O217  1  0.26320514  0.38865006  0.51777491  1
  O  O218  1  0.24732129  0.86246281  -0.01071371  1
  O  O219  1  0.26675809  0.84872149  0.50753866  1
  O  O220  1  0.77200873  0.32204582  -0.06723972  1
  O  O221  1  0.74664228  0.36318229  0.52041861  1
  O  O222  1  0.77005555  0.87286165  0.01083144  1
  O  O223  1  0.76149000  0.86623645  0.48641128  1
  O  O224  1  0.13359941  0.50013633  0.23013644  1
  O  O225  1  0.14072735  0.51055750  0.75011310  1
  O  O226  1  0.16892225  0.97677833  0.26988447  1
  O  O227  1  0.11271505  0.99524289  0.74174438  1
  O  O228  1  0.64332692  0.49043681  0.25027864  1
  O  O229  1  0.62565275  0.49665602  0.72925072  1
  O  O230  1  0.66463479  1.05076091  0.25118978  1
  O  O231  1  0.66536332  1.03163886  0.74683319  1
  O  O232  1  0.35622032  0.03330116  0.27580552  1
  O  O233  1  0.38242817  -0.00560223  0.76452495  1
  O  O234  1  0.35758404  0.50695347  0.23434503  1
  O  O235  1  0.37475953  0.50954118  0.76505655  1
  O  O236  1  0.71672825  -0.04150999  0.14590096  1
  O  O237  1  0.87083914  -0.00059938  0.76641605  1
  O  O238  1  0.87115556  0.50273248  0.25313419  1
  O  O239  1  0.83006133  0.50337053  0.77233355  1
  O  O240  1  0.09054187  0.37717917  0.42748011  1
  O  O241  1  0.11816640  0.35083454  0.87678991  1
  O  O242  1  0.10923295  0.88720942  0.40516102  1
  O  O243  1  0.10204771  0.86038996  0.87490621  1
  O  O244  1  0.64129001  0.37316900  0.37182172  1
  O  O245  1  0.61675863  0.36907416  0.85493396  1
  O  O246  1  0.57074207  0.92682133  0.36306519  1
  O  O247  1  0.64337115  0.86005555  0.86851569  1
  O  O248  1  0.37607038  0.15388016  0.16608773  1
  O  O249  1  0.39565394  0.14933622  0.60903034  1
  O  O250  1  0.39111069  0.61886068  0.12338221  1
  O  O251  1  0.37741262  0.61398594  0.64367626  1
  O  O252  1  0.86002174  0.14537344  0.13103976  1
  O  O253  1  0.85905827  0.13677233  0.64203051  1
  O  O254  1  0.86398604  0.63146564  0.14780175  1
  O  O255  1  0.85923507  0.62225878  0.64766099  1
  O  O256  1  0.18695083  0.28968500  0.15289325  1
  O  O257  1  0.26086308  0.27176201  0.62287121  1
  O  O258  1  0.25984511  0.74279575  0.10270301  1
  O  O259  1  0.26755672  0.73523920  0.62638395  1
  O  O260  1  0.74374878  0.25989252  0.10288599  1
  O  O261  1  0.75997535  0.26270344  0.63156157  1
  O  O262  1  0.72220711  0.75658948  0.11032892  1
  O  O263  1  0.74099074  0.76485151  0.63084727  1
  O  O264  1  0.23391746  0.27245889  0.40926381  1
  O  O265  1  0.24177953  0.25036501  0.85672411  1
  O  O266  1  0.26249095  0.73390620  0.35746360  1
  O  O267  1  0.25413736  0.73251045  0.88375412  1
  O  O268  1  0.76415480  0.26183775  0.39171511  1
  O  O269  1  0.71633750  0.21907655  0.83127533  1
  O  O270  1  0.75175403  0.73275142  0.36297603  1
  O  O271  1  0.75431897  0.76010453  0.89816004  1
  O  O272  1  0.00360666  0.10155087  -0.00993876  1
  O  O273  1  0.01449640  0.11892736  0.51221046  1
  O  O274  1  -0.01096767  0.59924423  -0.01624916  1
  O  O275  1  0.02540264  0.63888189  0.49236585  1
  O  O276  1  0.45414823  0.12879137  0.03845969  1
  O  O277  1  0.50969353  0.14387677  0.48902094  1
  O  O278  1  0.50860074  0.61210454  0.00478529  1
  O  O279  1  0.51554812  0.60957861  0.48591989  1
  O  O280  1  0.48938541  0.38602543  0.49882749  1
  O  O281  1  0.51136527  0.37923721  0.97803458  1
  O  O282  1  0.47767060  0.88411900  0.48718666  1
  O  O283  1  0.55504229  0.91689009  1.05340582  1
  O  O284  1  1.03959486  0.37876556  0.48170473  1
  O  O285  1  1.00053295  0.37922043  0.98185346  1
  O  O286  1  0.97336053  0.88460959  0.51147864  1
  O  O287  1  0.99105845  0.87885843  0.98721861  1
  O  O288  1  0.50904782  0.49389637  0.38099222  1
  O  O289  1  0.49845620  0.49996505  0.87844310  1
  O  O290  1  0.51872578  0.98965603  0.35536940  1
  O  O291  1  0.49521433  0.99102301  0.85361240  1
  O  O292  1  0.98741139  0.50836587  0.36942088  1
  O  O293  1  1.01149764  0.48414052  0.88533567  1
  O  O294  1  1.00181430  0.99412123  0.41034462  1
  O  O295  1  0.99083595  0.98270481  0.87462362  1
  O  O296  1  0.02244725  -0.01600560  0.09955144  1
  O  O297  1  -0.00162398  -0.00521241  0.61897806  1
  O  O298  1  0.01419885  0.48864535  0.11213596  1
  O  O299  1  -0.00846438  0.52882847  0.63063518  1
  O  O300  1  0.49357055  0.03103212  0.16630189  1
  O  O301  1  0.49519287  0.02013263  0.61589582  1
  O  O302  1  0.50729328  0.50480067  0.12368491  1
  O  O303  1  0.51425302  0.49992094  0.61412951  1
  O  O304  1  0.25151461  0.38587945  0.25973915  1
  O  O305  1  0.25762611  0.39393778  0.74246458  1
  O  O306  1  0.26435779  0.88988380  0.23760801  1
  O  O307  1  0.24079799  0.88792411  0.80644969  1
  O  O308  1  0.74930463  0.38928141  0.24551371  1
  O  O309  1  0.73069669  0.37267975  0.73847076  1
  O  O310  1  0.77233286  0.90857328  0.27715733  1
  O  O311  1  0.74795496  0.88491628  0.73187092  1
  O  O312  1  0.23535310  0.14422850  0.24584577  1
  O  O313  1  0.28108699  0.11821577  0.70314962  1
  O  O314  1  0.25824592  0.61434102  0.25315015  1
  O  O315  1  0.26231106  0.61559975  0.76191061  1
  O  O316  1  0.71772922  0.10305563  0.23589066  1
  O  O317  1  0.71510326  0.08575784  0.72629475  1
  O  O318  1  0.74991459  0.61259497  0.26099419  1
  O  O319  1  0.75033012  0.63951677  0.77869523  1
  O  O320  1  0.35939530  0.18902641  0.34500983  1
  O  O321  1  0.40143954  0.10092847  0.87248586  1
  O  O322  1  0.37460044  0.62261381  0.35166704  1
  O  O323  1  0.37189637  0.61319407  0.87309707  1
  O  O324  1  0.86661682  0.05792511  0.31156219  1
  O  O325  1  0.87555093  0.10642506  0.88274106  1
  O  O326  1  0.86705909  0.61971862  0.36174452  1
  O  O327  1  0.84901364  0.63395373  0.86445256  1
  O  O328  1  0.14419446  0.34254780  0.12291526  1
  O  O329  1  0.14413063  0.37898295  0.62444892  1
  O  O330  1  0.05019794  0.80805642  0.14556651  1
  O  O331  1  0.11318922  0.87936861  0.61518213  1
  O  O332  1  0.63651454  0.38026004  0.12557736  1
  O  O333  1  0.62586888  0.38322817  0.63124414  1
  O  O334  1  0.59395326  0.84497456  0.19622430  1
  O  O335  1  0.63510650  0.87514573  0.59622532  1
  O  O336  1  0.05580643  0.19156614  0.26256167  1
  O  O337  1  0.11224586  0.24103507  0.75508919  1
  O  O338  1  0.12583767  0.82204582  0.19150441  1
  O  O339  1  0.13434515  0.74682656  0.76964375  1
  O  O340  1  0.63469407  0.27350904  0.25657042  1
  O  O341  1  0.60756256  0.26449906  0.74257455  1
  O  O342  1  0.63911149  0.83837542  0.25345597  1
  O  O343  1  0.60584069  0.74409766  0.76148270  1
  O  O344  1  0.39649617  0.30431792  0.24216919  1
  O  O345  1  0.37872236  0.25949505  0.73537189  1
  O  O346  1  0.36753943  0.72471891  0.22401590  1
  O  O347  1  0.38728476  0.73819857  0.75752299  1
  O  O348  1  0.89044573  0.24497794  0.24543124  1
  O  O349  1  0.87939922  0.25445619  0.74714541  1
  O  O350  1  0.88530834  0.74376399  0.25340147  1
  O  O351  1  0.81679822  0.67174828  0.80312865  1
  O  O352  1  0.39306956  0.49475545  0.50291811  1
  O  O353  1  0.37116490  0.48840692  0.97860996  1
  O  O354  1  0.34893165  0.99866446  0.51506682  1
  O  O355  1  0.40863830  0.98729356  0.97212908  1
  O  O356  1  0.87295185  0.51136641  0.48504796  1
  O  O357  1  0.88429385  0.48844462  1.00911828  1
  O  O358  1  0.88294218  1.02997471  0.50702737  1
  O  O359  1  0.89045007  0.98851567  0.99369166  1
  O  O360  1  0.12281541  0.00592108  -0.03090506  1
  O  O361  1  0.11528440  0.00687944  0.52378828  1
  O  O362  1  0.12242070  0.49188438  0.01529084  1
  O  O363  1  0.13552067  0.52564560  0.49510090  1
  O  O364  1  0.59160305  -0.03076161  0.01490854  1
  O  O365  1  0.63144077  0.03727421  0.47226400  1
  O  O366  1  0.67608531  0.49661280  -0.02050115  1
  O  O367  1  0.61613845  0.49790098  0.50330783  1
  O  O368  1  0.37769607  0.38480968  0.09715521  1
  O  O369  1  0.37268501  0.37362663  0.62060184  1
  O  O370  1  0.38539695  0.84898647  0.12644622  1
  O  O371  1  0.38104887  0.87491837  0.60992996  1
  O  O372  1  0.88105999  0.34860690  0.13245081  1
  O  O373  1  0.86150996  0.38547239  0.64190627  1
  O  O374  1  0.88830894  0.88081401  0.11696236  1
  O  O375  1  0.85759536  0.87134792  0.61039680  1
  O  O376  1  0.14382658  0.10524506  0.41275516  1
  O  O377  1  0.12528305  0.13568744  0.87620221  1
  O  O378  1  0.14174824  0.63087906  0.36572626  1
  O  O379  1  0.13760562  0.63145220  0.87412119  1
  O  O380  1  0.62639655  0.16060751  0.37763455  1
  O  O381  1  0.59273470  0.13475802  0.88450287  1
  O  O382  1  0.63651323  0.62014572  0.38015166  1
  O  O383  1  0.63023609  0.65317128  0.88286012  1
