# generated using pymatgen
data_VZnO4
_symmetry_space_group_name_H-M   'P 1'
_cell_length_a   16.97884757
_cell_length_b   16.93956110
_cell_length_c   16.96826540
_cell_angle_alpha   90.02329845
_cell_angle_beta   89.46287062
_cell_angle_gamma   89.76752335
_symmetry_Int_Tables_number   1
_chemical_formula_structural   VZnO4
_chemical_formula_sum   'V64 Zn64 O256'
_cell_volume   4880.05941440
_cell_formula_units_Z   64
loop_
 _symmetry_equiv_pos_site_id
 _symmetry_equiv_pos_as_xyz
  1  'x, y, z'
loop_
 _atom_site_type_symbol
 _atom_site_label
 _atom_site_symmetry_multiplicity
 _atom_site_fract_x
 _atom_site_fract_y
 _atom_site_fract_z
 _atom_site_occupancy
  V  V0  1  0.10860479  0.37776994  0.75682336  1
  V  V1  1  0.75987772  0.24521540  -0.00716910  1
  V  V2  1  -0.00740591  0.12596151  0.14449578  1
  V  V3  1  0.86668982  0.87999214  -0.01492192  1
  V  V4  1  0.73966267  0.74697393  0.00111015  1
  V  V5  1  0.19298568  0.74641933  0.40618106  1
  V  V6  1  0.34227053  0.47514069  0.88707773  1
  V  V7  1  0.50219128  0.26066486  0.23798139  1
  V  V8  1  0.65037125  0.38399925  0.25354718  1
  V  V9  1  0.75552327  0.88008877  0.14195261  1
  V  V10  1  0.50941383  0.37666767  0.86441753  1
  V  V11  1  0.85987677  0.07682164  0.76379944  1
  V  V12  1  0.87936911  0.75349388  0.62532877  1
  V  V13  1  0.49477692  0.63000709  0.62405233  1
  V  V14  1  0.37441109  0.33654768  -0.01638902  1
  V  V15  1  0.50171542  0.13883350  0.64044701  1
  V  V16  1  0.63447896  0.00186127  0.64075245  1
  V  V17  1  0.64989380  0.12780152  0.49668430  1
  V  V18  1  0.00710808  0.62804254  0.63845694  1
  V  V19  1  0.23962689  0.12755039  0.35734174  1
  V  V20  1  0.12566912  0.85673278  0.74117392  1
  V  V21  1  -0.00841222  0.86358459  0.84988690  1
  V  V22  1  0.76902508  0.02301396  0.26088937  1
  V  V23  1  0.02083503  0.75425406  0.24145562  1
  V  V24  1  0.37831239  0.60134864  0.77336804  1
  V  V25  1  0.38649771  0.88736017  0.49701856  1
  V  V26  1  0.87619112  0.74537574  0.13040498  1
  V  V27  1  0.24634719  0.63702041  0.90152638  1
  V  V28  1  0.23227071  0.47524523  0.24831320  1
  V  V29  1  0.25934221  0.36621810  0.63501141  1
  V  V30  1  0.49453084  0.37368656  0.39540264  1
  V  V31  1  0.48963318  -0.00589616  0.02635238  1
  V  V32  1  0.11710810  0.22565032  0.87302246  1
  V  V33  1  0.23897901  0.88256752  0.61434363  1
  V  V34  1  0.27736345  0.24425375  0.50076887  1
  V  V35  1  -0.00735567  0.00641318  -0.00061364  1
  V  V36  1  0.64964846  0.25416111  0.38181207  1
  V  V37  1  0.88709383  0.51022904  0.86659606  1
  V  V38  1  0.02673661  0.51535086  0.48515820  1
  V  V39  1  0.87270833  0.38278909  -0.00618716  1
  V  V40  1  0.87349638  0.25651849  0.13456029  1
  V  V41  1  0.73663251  0.87044373  0.59347097  1
  V  V42  1  0.39287067  0.79135715  0.66524938  1
  V  V43  1  0.63951672  0.37903077  0.73583367  1
  V  V44  1  0.60256145  0.75677894  0.36436802  1
  V  V45  1  0.63579643  0.01480696  0.14001277  1
  V  V46  1  0.86388386  0.52529694  0.36307593  1
  V  V47  1  0.73071287  0.62250834  0.88042545  1
  V  V48  1  0.62999615  0.24449362  0.86472978  1
  V  V49  1  0.75217143  0.50968399  0.73461702  1
  V  V50  1  0.37824612  0.01897884  0.35377180  1
  V  V51  1  0.86224435  0.27296563  0.63750294  1
  V  V52  1  0.22084867  0.01437631  0.75034164  1
  V  V53  1  0.01461166  0.50400225  0.01844050  1
  V  V54  1  0.14523860  0.51259356  0.63062118  1
  V  V55  1  0.50371932  0.47525808  0.02313353  1
  V  V56  1  0.38595263  0.75328620  0.14515681  1
  V  V57  1  0.50351980  0.01618254  0.49296403  1
  V  V58  1  0.88517780  0.38635097  0.48581421  1
  V  V59  1  -0.01204715  -0.01227185  0.49059608  1
  V  V60  1  0.38391627  0.50937482  0.36694747  1
  V  V61  1  -0.04568623  0.85434939  0.37592431  1
  V  V62  1  0.39049736  -0.00968558  0.85806737  1
  V  V63  1  0.62075452  0.12742275  0.00529724  1
  Zn  Zn64  1  0.16158968  0.07011867  0.19074688  1
  Zn  Zn65  1  0.31578571  0.18356391  0.69361760  1
  Zn  Zn66  1  0.20113770  0.69495913  0.23796195  1
  Zn  Zn67  1  0.22260311  0.68672227  0.68001020  1
  Zn  Zn68  1  0.69844009  0.20034677  0.19028672  1
  Zn  Zn69  1  0.70114621  0.18834981  0.67854597  1
  Zn  Zn70  1  0.64364772  0.59609063  0.25524030  1
  Zn  Zn71  1  0.68301455  0.68635985  0.68632125  1
  Zn  Zn72  1  0.31812390  0.30311635  0.31713435  1
  Zn  Zn73  1  0.29187042  0.31066521  0.82149220  1
  Zn  Zn74  1  0.33042551  0.82416124  0.32259569  1
  Zn  Zn75  1  0.37360649  0.79175933  0.87999119  1
  Zn  Zn76  1  0.83461139  0.32226781  0.32841369  1
  Zn  Zn77  1  0.81482244  0.32325245  0.81421574  1
  Zn  Zn78  1  0.80994251  0.71182518  0.32442396  1
  Zn  Zn79  1  0.81695345  0.79389487  0.81315497  1
  Zn  Zn80  1  0.23454459  0.45679666  0.45617670  1
  Zn  Zn81  1  0.16812116  0.39260455  0.95734011  1
  Zn  Zn82  1  0.18675044  0.93213029  0.30518665  1
  Zn  Zn83  1  0.13087678  0.96205315  0.90594726  1
  Zn  Zn84  1  0.70594936  0.43614981  0.42432593  1
  Zn  Zn85  1  0.68879428  0.43449568  0.93657404  1
  Zn  Zn86  1  0.68054253  0.94125733  0.42418871  1
  Zn  Zn87  1  0.64704917  0.90568199  0.99285090  1
  Zn  Zn88  1  0.30690351  0.05384505  0.02807962  1
  Zn  Zn89  1  0.31066693  0.06385209  0.56480895  1
  Zn  Zn90  1  0.28240527  0.58224472  0.10439443  1
  Zn  Zn91  1  0.35720983  0.52439780  0.57401208  1
  Zn  Zn92  1  0.81791523  0.06759915  0.06460216  1
  Zn  Zn93  1  0.83573384  0.08488643  0.58700784  1
  Zn  Zn94  1  0.82386508  0.57320161  0.04867272  1
  Zn  Zn95  1  0.83762307  0.57973682  0.55453897  1
  Zn  Zn96  1  0.36676301  0.39665129  0.17825363  1
  Zn  Zn97  1  0.44333628  0.43117197  0.69377203  1
  Zn  Zn98  1  0.34508816  0.93988483  0.16882482  1
  Zn  Zn99  1  0.42471991  0.98923873  0.68624429  1
  Zn  Zn100  1  0.92719000  0.44426021  0.18556560  1
  Zn  Zn101  1  0.94131621  0.45333585  0.67553418  1
  Zn  Zn102  1  0.93593822  0.93754228  0.19141752  1
  Zn  Zn103  1  0.91617739  0.93719642  0.67227065  1
  Zn  Zn104  1  0.04200427  0.06166669  0.34109022  1
  Zn  Zn105  1  0.04111534  0.05189382  0.79409888  1
  Zn  Zn106  1  0.08798030  0.57781789  0.29602792  1
  Zn  Zn107  1  0.08304279  0.56741654  0.81876881  1
  Zn  Zn108  1  0.56717025  0.08239856  0.31060635  1
  Zn  Zn109  1  0.55880617  0.05948820  0.82314138  1
  Zn  Zn110  1  0.50771514  0.48659792  0.23485331  1
  Zn  Zn111  1  0.56476330  0.55939127  0.80809245  1
  Zn  Zn112  1  0.44973998  0.18920871  0.43049480  1
  Zn  Zn113  1  0.32683878  0.16862181  0.87909278  1
  Zn  Zn114  1  0.40582598  0.69170515  0.44224989  1
  Zn  Zn115  1  0.43970588  0.64348778  0.96441998  1
  Zn  Zn116  1  0.96743096  0.19380054  0.49241238  1
  Zn  Zn117  1  0.92604196  0.18067342  0.90646449  1
  Zn  Zn118  1  0.97406377  0.66918828  0.42147712  1
  Zn  Zn119  1  0.93851759  0.68486551  0.94158767  1
  Zn  Zn120  1  0.03082905  0.28428808  0.01715737  1
  Zn  Zn121  1  0.09913424  0.35217399  0.53541632  1
  Zn  Zn122  1  0.05227957  0.84047410  0.07198180  1
  Zn  Zn123  1  0.06480630  0.80649779  0.54090642  1
  Zn  Zn124  1  0.58870642  0.33048122  0.06334509  1
  Zn  Zn125  1  0.56959312  0.30854310  0.56122704  1
  Zn  Zn126  1  0.52607991  0.78175731  0.01092224  1
  Zn  Zn127  1  0.55333053  0.82039037  0.56579911  1
  O  O128  1  0.09077044  0.12455877  0.11972946  1
  O  O129  1  0.09590100  0.11607123  0.60434592  1
  O  O130  1  0.12927656  0.69751579  0.04816883  1
  O  O131  1  0.14699437  0.61499957  0.62427936  1
  O  O132  1  0.65040487  0.12259152  0.11505812  1
  O  O133  1  0.62733317  0.12041824  0.61383123  1
  O  O134  1  0.67836374  0.55533078  0.12403879  1
  O  O135  1  0.59460970  0.63119862  0.64145311  1
  O  O136  1  0.39390188  0.36374381  0.38354700  1
  O  O137  1  0.40244847  0.37765863  0.85224084  1
  O  O138  1  0.38298427  0.90404821  0.39098199  1
  O  O139  1  0.36720609  0.90370394  0.90066066  1
  O  O140  1  0.88949259  0.41199007  0.37775649  1
  O  O141  1  0.87039600  0.39536419  0.88437447  1
  O  O142  1  0.86120880  0.82380269  0.37782776  1
  O  O143  1  0.87766717  0.86903603  0.87744500  1
  O  O144  1  0.27015559  0.01890097  0.36776994  1
  O  O145  1  0.21386470  0.00933480  0.85211546  1
  O  O146  1  0.26501576  0.50066671  0.34693588  1
  O  O147  1  0.25162431  0.51468935  0.87940569  1
  O  O148  1  0.74634975  -0.00244156  0.35664076  1
  O  O149  1  0.62042932  -0.09729174  0.86972371  1
  O  O150  1  0.76469103  0.52014164  0.37273599  1
  O  O151  1  0.75080547  0.51457582  0.87864169  1
  O  O152  1  0.28086405  0.47706662  0.14822029  1
  O  O153  1  0.24586711  0.48112785  0.60747447  1
  O  O154  1  0.23964876  0.99506034  0.11801485  1
  O  O155  1  0.25385800  0.98619506  0.63245870  1
  O  O156  1  0.74487620  0.52218712  0.12972107  1
  O  O157  1  0.76650875  0.52227343  0.63815740  1
  O  O158  1  0.75678983  0.99994536  0.13935375  1
  O  O159  1  0.73807901  0.98224786  0.61568104  1
  O  O160  1  0.00112503  0.37560178  0.25120650  1
  O  O161  1  0.01141595  0.39357290  0.74105906  1
  O  O162  1  -0.01904290  0.86163655  0.26525688  1
  O  O163  1  -0.00250706  0.87375389  0.74442454  1
  O  O164  1  0.53019803  0.37047266  0.27319437  1
  O  O165  1  0.52547139  0.38226396  0.75464324  1
  O  O166  1  0.42977495  0.85213457  0.18355488  1
  O  O167  1  0.47558567  0.98333920  0.79153833  1
  O  O168  1  0.50702597  0.15970339  0.25507294  1
  O  O169  1  0.52280300  0.13341020  0.73712773  1
  O  O170  1  0.53950005  0.59538579  0.21858880  1
  O  O171  1  0.48097415  0.62460651  0.76175930  1
  O  O172  1  0.99261194  0.12032880  0.24315199  1
  O  O173  1  0.95588456  0.09076452  0.73174586  1
  O  O174  1  1.01541124  0.65319996  0.24788121  1
  O  O175  1  1.03326616  0.63277278  0.73384757  1
  O  O176  1  0.37283708  0.24028754  -0.03806107  1
  O  O177  1  0.37516118  0.24861923  0.50092781  1
  O  O178  1  0.37705743  0.70413075  0.04479775  1
  O  O179  1  0.40140355  0.78857459  0.50609114  1
  O  O180  1  0.86816982  0.26404851  -0.01163541  1
  O  O181  1  0.90059969  0.28790636  0.46327301  1
  O  O182  1  0.86788832  0.76244958  0.00483901  1
  O  O183  1  0.83657651  0.69651121  0.55423854  1
  O  O184  1  0.07350447  0.24968558  0.48715729  1
  O  O185  1  0.13513800  0.28263160  0.97267812  1
  O  O186  1  0.14972367  0.74137855  0.49857560  1
  O  O187  1  0.13347622  0.76343855  1.01442517  1
  O  O188  1  0.63414638  0.23619491  0.49597068  1
  O  O189  1  0.64199314  0.24659562  0.99292946  1
  O  O190  1  0.59343321  0.76117128  0.47071684  1
  O  O191  1  0.64042371  0.76609820  1.00461273  1
  O  O192  1  0.52940577  0.27034679  0.14156260  1
  O  O193  1  0.50383985  0.23706321  0.62178036  1
  O  O194  1  0.48723906  0.74320567  0.11805434  1
  O  O195  1  0.49049861  0.75456274  0.63742576  1
  O  O196  1  0.98331622  0.23872819  0.11244492  1
  O  O197  1  1.09255476  0.17340426  0.64794064  1
  O  O198  1  0.98553813  0.77036567  0.13393658  1
  O  O199  1  0.98672179  0.74095470  0.61456203  1
  O  O200  1  0.02785329  0.23830243  0.35697160  1
  O  O201  1  0.01136971  0.24994500  0.90417856  1
  O  O202  1  0.01011318  0.75911345  0.36024184  1
  O  O203  1  -0.01176957  0.76540358  0.87331339  1
  O  O204  1  0.51724231  0.26133042  0.37308353  1
  O  O205  1  0.52942008  0.26293781  0.86816431  1
  O  O206  1  0.49849337  0.75144546  0.36557720  1
  O  O207  1  0.46745764  0.74441177  0.92502447  1
  O  O208  1  0.25244895  0.14433822  0.51093389  1
  O  O209  1  0.24896854  0.15337365  1.05803029  1
  O  O210  1  0.31971876  0.63142778  0.61551252  1
  O  O211  1  0.25573426  0.60872211  1.00018996  1
  O  O212  1  0.74667370  0.11506600  0.51109685  1
  O  O213  1  0.75631452  0.14290111  0.99582940  1
  O  O214  1  0.69801366  0.58929956  0.50980221  1
  O  O215  1  0.74299000  0.63790773  0.99637098  1
  O  O216  1  0.28398494  0.37793793  -0.07174054  1
  O  O217  1  0.22667618  0.34807399  0.50974852  1
  O  O218  1  0.19875760  0.92470021  0.08455691  1
  O  O219  1  0.27682554  0.88713760  0.51780758  1
  O  O220  1  0.76484395  0.37078255  -0.00105845  1
  O  O221  1  0.78496497  0.39840867  0.49783425  1
  O  O222  1  0.75883725  0.86524863  -0.01222750  1
  O  O223  1  0.73681494  0.87243925  0.49503553  1
  O  O224  1  0.13166953  0.47998397  0.25688833  1
  O  O225  1  0.13701644  0.50107419  0.73271468  1
  O  O226  1  0.11062877  1.00290511  0.26808605  1
  O  O227  1  0.11643963  0.98615588  0.73283637  1
  O  O228  1  0.62914993  0.48552610  0.27479523  1
  O  O229  1  0.64011882  0.49120381  0.74607372  1
  O  O230  1  0.63840179  1.01673077  0.24219171  1
  O  O231  1  0.63550884  1.01184732  0.73820553  1
  O  O232  1  0.39165635  0.00927778  0.25680970  1
  O  O233  1  0.33435875  -0.00194802  0.76657956  1
  O  O234  1  0.39247724  0.47978928  0.26333515  1
  O  O235  1  0.36968681  0.49730478  0.77106024  1
  O  O236  1  0.86764325  0.00634206  0.25210515  1
  O  O237  1  0.84856259  -0.02502726  0.75810635  1
  O  O238  1  0.88468513  0.51477176  0.26436099  1
  O  O239  1  0.86077055  0.49580108  0.76119656  1
  O  O240  1  0.07904803  0.27164336  0.39724603  1
  O  O241  1  0.12551824  0.40956736  0.84995053  1
  O  O242  1  0.16983213  0.83659169  0.36750055  1
  O  O243  1  0.10571463  0.86293006  0.84994533  1
  O  O244  1  0.62806894  0.36245801  0.39028788  1
  O  O245  1  0.62811980  0.36556520  0.86221189  1
  O  O246  1  0.60786597  0.86222937  0.37084873  1
  O  O247  1  0.56843106  0.85443818  0.85076476  1
  O  O248  1  0.36321425  0.15032588  0.12345440  1
  O  O249  1  0.39490874  0.10924594  0.64088055  1
  O  O250  1  0.37942316  0.63988018  0.15783215  1
  O  O251  1  0.38278010  0.66134624  0.66439129  1
  O  O252  1  0.87839659  0.14486116  0.12305984  1
  O  O253  1  0.90563491  0.18753876  0.59057060  1
  O  O254  1  0.87630829  0.64725227  0.11235221  1
  O  O255  1  0.91151601  0.60048367  0.64711244  1
  O  O256  1  0.30111540  0.19045281  0.10808630  1
  O  O257  1  0.26514595  0.25890464  0.61699688  1
  O  O258  1  0.27860037  0.74301240  0.16684963  1
  O  O259  1  0.28444552  0.78299560  0.63903252  1
  O  O260  1  0.76590857  0.25224258  0.10733342  1
  O  O261  1  0.76417568  0.26767505  0.62144929  1
  O  O262  1  0.75942958  0.76808480  0.11150596  1
  O  O263  1  0.71492503  0.77415854  0.62219479  1
  O  O264  1  0.25980276  0.23587435  0.38965788  1
  O  O265  1  0.22291855  0.22418063  0.87045447  1
  O  O266  1  0.29899944  0.74222711  0.39875058  1
  O  O267  1  0.27905443  0.73365629  0.90294427  1
  O  O268  1  0.74800567  0.25705125  0.38119885  1
  O  O269  1  0.74490384  0.26023813  0.88546006  1
  O  O270  1  0.70577943  0.74622711  0.37749977  1
  O  O271  1  0.75580078  0.73230930  0.88907268  1
  O  O272  1  -0.02749259  0.10254880  -0.01755078  1
  O  O273  1  -0.01095182  0.08967000  0.44929402  1
  O  O274  1  0.00253764  0.60243215  -0.01176854  1
  O  O275  1  0.01483339  0.62101546  0.51707578  1
  O  O276  1  0.52487798  0.12727763  0.02145515  1
  O  O277  1  0.51106765  0.12388727  0.51004833  1
  O  O278  1  0.51107835  0.57529481  0.01513451  1
  O  O279  1  0.47276824  0.64025397  0.52725169  1
  O  O280  1  0.50819718  0.37396886  0.49552937  1
  O  O281  1  0.48452349  0.35997235  0.97982877  1
  O  O282  1  0.49898456  0.90751458  0.50671638  1
  O  O283  1  0.52426446  0.89749148  1.01446228  1
  O  O284  1  1.00375867  0.41091347  0.49630585  1
  O  O285  1  0.98174412  0.39235103  0.99709338  1
  O  O286  1  0.98391284  0.86277078  0.48322565  1
  O  O287  1  0.97962111  0.88299166  0.99584812  1
  O  O288  1  0.48965936  0.48160948  0.38180151  1
  O  O289  1  0.52028611  0.47824580  0.88365054  1
  O  O290  1  0.49516426  1.02189475  0.38600231  1
  O  O291  1  0.48352428  1.02194401  0.92634467  1
  O  O292  1  1.02297716  0.53810935  0.38591795  1
  O  O293  1  0.98623582  0.51238219  0.85958285  1
  O  O294  1  0.96909962  0.96289652  0.38181220  1
  O  O295  1  1.00120521  0.97467227  0.88097275  1
  O  O296  1  -0.02506740  0.01512567  0.11121875  1
  O  O297  1  -0.08102548  0.00203144  0.57411169  1
  O  O298  1  -0.00598980  0.50620980  0.11658285  1
  O  O299  1  0.02988813  0.51470169  0.61635508  1
  O  O300  1  0.53478863  0.01089977  0.12583372  1
  O  O301  1  0.52145544  0.01855203  0.61648944  1
  O  O302  1  0.47775806  0.45508791  0.11958959  1
  O  O303  1  0.45869275  0.52786088  0.63262035  1
  O  O304  1  0.25457793  0.37350112  0.25311585  1
  O  O305  1  0.23861768  0.36688492  0.73705533  1
  O  O306  1  0.27824249  0.89137240  0.25089067  1
  O  O307  1  0.22511387  0.88677814  0.73749211  1
  O  O308  1  0.74846796  0.38062032  0.27805477  1
  O  O309  1  0.74580139  0.39505892  0.75050960  1
  O  O310  1  0.75569627  0.88348100  0.23858449  1
  O  O311  1  0.70649680  0.83841319  0.77307224  1
  O  O312  1  0.23685242  0.13378317  0.25709974  1
  O  O313  1  0.22820775  0.11072806  0.72343573  1
  O  O314  1  0.22257828  0.59207211  0.20310472  1
  O  O315  1  0.28192118  0.64312833  0.77529191  1
  O  O316  1  0.75559354  0.12279163  0.25230981  1
  O  O317  1  0.79216103  0.11754715  0.69332386  1
  O  O318  1  0.73268928  0.65774164  0.25583475  1
  O  O319  1  0.73828645  0.61650390  0.76411353  1
  O  O320  1  0.37246241  0.12267422  0.37361741  1
  O  O321  1  0.33886834  0.06516967  0.91843547  1
  O  O322  1  0.39470615  0.60794446  0.36753184  1
  O  O323  1  0.37545676  0.59492435  0.88257487  1
  O  O324  1  0.87971779  0.16371690  0.34233531  1
  O  O325  1  0.84962771  0.11686211  0.85685416  1
  O  O326  1  0.87415526  0.63356792  0.38032807  1
  O  O327  1  0.86343855  0.61213403  0.88206610  1
  O  O328  1  0.05865328  0.34879976  0.20073353  1
  O  O329  1  0.13622374  0.38462097  0.63759823  1
  O  O330  1  0.13984333  0.90106972  0.12953797  1
  O  O331  1  0.13608714  0.86475784  0.61777161  1
  O  O332  1  0.64970450  0.37429163  0.15494007  1
  O  O333  1  0.63063487  0.36683774  0.63844968  1
  O  O334  1  0.65272706  0.90400283  0.11489370  1
  O  O335  1  0.62466708  0.89543243  0.61843306  1
  O  O336  1  0.11105537  0.30528702  0.22990711  1
  O  O337  1  0.10859359  0.27257638  0.77684289  1
  O  O338  1  0.11660176  0.77200882  0.21969701  1
  O  O339  1  0.13796839  0.75914906  0.72998219  1
  O  O340  1  0.63509793  0.25996609  0.26967208  1
  O  O341  1  0.65124333  0.25865918  0.75937123  1
  O  O342  1  0.60822618  0.77136897  0.26326902  1
  O  O343  1  0.65349079  0.78510201  0.76817247  1
  O  O344  1  0.40112881  0.28875448  0.23567057  1
  O  O345  1  0.36016437  0.22520319  0.78572937  1
  O  O346  1  0.38830074  0.74442389  0.25245231  1
  O  O347  1  0.39333607  0.79739578  0.76287656  1
  O  O348  1  0.87144164  0.26777052  0.23236905  1
  O  O349  1  0.87743053  0.26836085  0.73729700  1
  O  O350  1  0.86780143  0.74828798  0.23051904  1
  O  O351  1  0.85158045  0.73733996  0.72186962  1
  O  O352  1  0.34486396  0.49224473  0.46851312  1
  O  O353  1  0.38804450  0.47601326  0.98021015  1
  O  O354  1  0.39280830  1.00749091  0.50362471  1
  O  O355  1  0.39378218  0.98601804  1.06615922  1
  O  O356  1  0.89826161  0.51219459  0.48339125  1
  O  O357  1  0.87967162  0.49519322  0.98958260  1
  O  O358  1  0.85183069  1.12282993  0.39489446  1
  O  O359  1  0.86692364  0.98365007  0.99515353  1
  O  O360  1  0.09395521  -0.00287943  0.00537151  1
  O  O361  1  0.07815610  -0.01888283  0.52049359  1
  O  O362  1  0.11255437  0.47979011  0.00783335  1
  O  O363  1  0.13115580  0.49546483  0.50299086  1
  O  O364  1  0.63843999  0.02278225  0.00504684  1
  O  O365  1  0.61817617  0.01644069  0.49096939  1
  O  O366  1  0.60415835  0.44138189  0.01671544  1
  O  O367  1  0.65143735  0.53325536  0.49901393  1
  O  O368  1  0.35060950  0.34078682  0.07883608  1
  O  O369  1  0.35877161  0.38617616  0.63283588  1
  O  O370  1  0.33997481  0.83045675  0.08879827  1
  O  O371  1  0.39296581  0.89095913  0.62745520  1
  O  O372  1  0.87877631  0.36637431  0.10848011  1
  O  O373  1  0.89777885  0.37037493  0.60484395  1
  O  O374  1  0.86311383  0.87482326  0.11177174  1
  O  O375  1  0.84949984  0.85580129  0.61422649  1
  O  O376  1  0.14520396  0.11774479  0.38381838  1
  O  O377  1  0.09728807  0.12724298  0.86103957  1
  O  O378  1  0.16092910  0.66708086  0.34422246  1
  O  O379  1  0.14832049  0.63617376  0.87808288  1
  O  O380  1  0.63453807  0.13932934  0.38845444  1
  O  O381  1  0.62363985  0.13730107  0.88701268  1
  O  O382  1  0.60255838  0.65218095  0.35794663  1
  O  O383  1  0.63152776  0.62289643  0.87970924  1
