# generated using pymatgen
data_VZnO4
_symmetry_space_group_name_H-M   'P 1'
_cell_length_a   16.97895228
_cell_length_b   17.01818897
_cell_length_c   17.11935975
_cell_angle_alpha   89.27833699
_cell_angle_beta   89.24207216
_cell_angle_gamma   88.92711823
_symmetry_Int_Tables_number   1
_chemical_formula_structural   VZnO4
_chemical_formula_sum   'V64 Zn64 O256'
_cell_volume   4944.97930506
_cell_formula_units_Z   64
loop_
 _symmetry_equiv_pos_site_id
 _symmetry_equiv_pos_as_xyz
  1  'x, y, z'
loop_
 _atom_site_type_symbol
 _atom_site_label
 _atom_site_symmetry_multiplicity
 _atom_site_fract_x
 _atom_site_fract_y
 _atom_site_fract_z
 _atom_site_occupancy
  V  V0  1  0.00014102  0.26143668  0.74627985  1
  V  V1  1  0.13448999  0.89159205  0.24904653  1
  V  V2  1  0.23092028  0.13128704  0.87174596  1
  V  V3  1  -0.00175526  0.74951358  0.24384859  1
  V  V4  1  0.76542071  0.73860887  0.49713201  1
  V  V5  1  -0.00553956  -0.00932857  0.00260611  1
  V  V6  1  0.61169770  0.63524869  0.50719747  1
  V  V7  1  0.50173144  0.24304210  0.74874129  1
  V  V8  1  0.13031205  0.51468579  0.62073218  1
  V  V9  1  0.36098583  0.23642477  0.14776860  1
  V  V10  1  0.23478542  0.71090406  -0.04010703  1
  V  V11  1  0.76126460  -0.01128302  0.21746747  1
  V  V12  1  0.75387392  0.14866422  0.87634824  1
  V  V13  1  0.38447562  0.38011085  0.48483820  1
  V  V14  1  -0.02150737  0.36873097  0.37277435  1
  V  V15  1  0.50007458  0.86830234  0.88506724  1
  V  V16  1  0.62452722  0.15825428  -0.00474813  1
  V  V17  1  0.87606785  0.13216118  0.74573825  1
  V  V18  1  0.75557584  0.86269995  0.62462642  1
  V  V19  1  0.38084574  0.00059063  0.87980030  1
  V  V20  1  0.86346745  -0.00571469  0.38304399  1
  V  V21  1  0.48398418  0.37318451  0.87009612  1
  V  V22  1  0.37128101  0.12115322  0.73792263  1
  V  V23  1  -0.00145926  0.50736725  0.49880604  1
  V  V24  1  0.34110360  0.34374471  -0.02203564  1
  V  V25  1  -0.01127264  0.14399337  0.12007254  1
  V  V26  1  0.37463017  0.87988318  0.52360090  1
  V  V27  1  0.23768037  0.37731041  0.14479915  1
  V  V28  1  0.86826701  0.37882436  -0.01200381  1
  V  V29  1  -0.01260976  0.50161076  0.02877076  1
  V  V30  1  0.00805304  0.00628310  0.49327500  1
  V  V31  1  0.62507996  0.36587866  0.75449102  1
  V  V32  1  0.52257257  -0.01089860  0.50109469  1
  V  V33  1  0.13300367  0.37515331  0.73542362  1
  V  V34  1  0.40373158  0.64825942  0.26197624  1
  V  V35  1  0.22565262  0.24483544  0.45684292  1
  V  V36  1  0.13255937  -0.00561002  0.61913601  1
  V  V37  1  0.88116919  0.00136826  0.87578549  1
  V  V38  1  0.47540821  0.48511320  0.00847604  1
  V  V39  1  0.01014850  0.13593131  0.61384156  1
  V  V40  1  -0.00117564  0.76453846  0.74424915  1
  V  V41  1  0.25091614  -0.00899460  0.73768151  1
  V  V42  1  0.83865627  0.26235912  0.13822764  1
  V  V43  1  0.11920067  0.01453494  0.11980543  1
  V  V44  1  0.36935933  0.25625264  0.61502102  1
  V  V45  1  0.60854623  0.50595417  0.62745740  1
  V  V46  1  0.86680553  0.12864813  0.26148833  1
  V  V47  1  0.24649398  0.50890784  0.76269295  1
  V  V48  1  0.15112013  0.75702029  0.37740230  1
  V  V49  1  0.60389596  -0.00560274  0.11577928  1
  V  V50  1  0.86729450  0.52595996  0.37818183  1
  V  V51  1  0.72137892  0.70630365  -0.02418757  1
  V  V52  1  0.62377514  0.85590410  0.75903222  1
  V  V53  1  0.26066363  0.88838840  0.11164397  1
  V  V54  1  0.73886988  0.00337774  0.74882286  1
  V  V55  1  0.74407738  0.49983479  0.76435100  1
  V  V56  1  0.85095702  0.81258560  0.03004870  1
  V  V57  1  0.86350932  0.25412042  0.60371124  1
  V  V58  1  0.25265107  0.74455664  0.53075764  1
  V  V59  1  0.74388695  0.37387831  0.60680527  1
  V  V60  1  0.74661407  0.49905654  0.24309202  1
  V  V61  1  0.40410944  0.73037649  0.64518819  1
  V  V62  1  0.00178187  0.87675693  0.37838187  1
  V  V63  1  0.51634193  0.11409695  0.61960698  1
  Zn  Zn64  1  0.18503187  0.21700276  0.25695888  1
  Zn  Zn65  1  0.18655475  0.18702261  0.68334839  1
  Zn  Zn66  1  0.21295055  0.72068257  0.20472331  1
  Zn  Zn67  1  0.17899278  0.67750104  0.70084485  1
  Zn  Zn68  1  0.67735325  0.15789264  0.19012960  1
  Zn  Zn69  1  0.69047106  0.18700660  0.68349626  1
  Zn  Zn70  1  0.64189672  0.84822352  0.24403237  1
  Zn  Zn71  1  0.69136972  0.68100271  0.69156146  1
  Zn  Zn72  1  0.32256438  0.32715499  0.30832107  1
  Zn  Zn73  1  0.30525975  0.30471392  0.79830068  1
  Zn  Zn74  1  0.32913558  0.86488177  0.32898840  1
  Zn  Zn75  1  0.31688227  0.81270704  0.81244915  1
  Zn  Zn76  1  0.81331657  0.34200400  0.29039145  1
  Zn  Zn77  1  0.82817734  0.33024429  0.80086399  1
  Zn  Zn78  1  0.78753053  0.76720236  0.28418866  1
  Zn  Zn79  1  0.80920347  0.82023942  0.83524815  1
  Zn  Zn80  1  0.22084201  0.43930413  0.49609635  1
  Zn  Zn81  1  0.12622103  0.36782946  0.93979952  1
  Zn  Zn82  1  0.18945341  0.92771423  0.45137167  1
  Zn  Zn83  1  0.19208987  0.93381467  0.93150190  1
  Zn  Zn84  1  0.68111201  0.45770399  0.43914367  1
  Zn  Zn85  1  0.65869311  0.37298622  0.96301707  1
  Zn  Zn86  1  0.68274045  0.91092204  0.43267698  1
  Zn  Zn87  1  0.69978534  0.93554918  0.93070915  1
  Zn  Zn88  1  0.30428024  0.06948801  0.05489135  1
  Zn  Zn89  1  0.31361128  0.07454209  0.54999867  1
  Zn  Zn90  1  0.27487202  0.51238746  -0.01526653  1
  Zn  Zn91  1  0.32026683  0.56658394  0.57022014  1
  Zn  Zn92  1  0.81918766  0.08169106  0.05188623  1
  Zn  Zn93  1  0.81930076  0.05294575  0.56824862  1
  Zn  Zn94  1  0.76817529  0.51540032  0.03272750  1
  Zn  Zn95  1  0.81810079  0.56347202  0.57777039  1
  Zn  Zn96  1  0.35846899  0.47747069  0.16514397  1
  Zn  Zn97  1  0.42602703  0.43817700  0.69162096  1
  Zn  Zn98  1  0.43824743  0.96060045  0.18917023  1
  Zn  Zn99  1  0.44584737  0.93034804  0.68833250  1
  Zn  Zn100  1  0.93922027  0.44170085  0.20736267  1
  Zn  Zn101  1  0.92481932  0.45266189  0.68358168  1
  Zn  Zn102  1  0.93450961  0.92701875  0.18653730  1
  Zn  Zn103  1  0.93181134  0.95117094  0.67728911  1
  Zn  Zn104  1  0.05530370  0.07436379  0.30397289  1
  Zn  Zn105  1  0.08267588  0.02199767  0.82730284  1
  Zn  Zn106  1  0.05500932  0.58693617  0.35460829  1
  Zn  Zn107  1  0.12990648  0.55062365  0.90609793  1
  Zn  Zn108  1  0.50340913  -0.12579108  0.36098997  1
  Zn  Zn109  1  0.56486486  0.07273912  0.82450265  1
  Zn  Zn110  1  0.61963270  0.67305936  0.31036369  1
  Zn  Zn111  1  0.62852786  0.54575556  0.91886613  1
  Zn  Zn112  1  0.45074475  0.18235700  0.44391164  1
  Zn  Zn113  1  0.43459236  0.17429670  0.92943859  1
  Zn  Zn114  1  0.44807566  0.72535856  0.44180529  1
  Zn  Zn115  1  0.42981595  0.68189172  0.93878008  1
  Zn  Zn116  1  0.93640916  0.18486370  0.43110081  1
  Zn  Zn117  1  1.05446740  0.19105294  0.93452717  1
  Zn  Zn118  1  0.94305306  0.69293078  0.44155911  1
  Zn  Zn119  1  1.00060659  0.69033510  0.93881684  1
  Zn  Zn120  1  0.05490367  0.32254837  0.08308608  1
  Zn  Zn121  1  0.06542243  0.32502116  0.55134968  1
  Zn  Zn122  1  0.07672120  0.81354695  0.06541667  1
  Zn  Zn123  1  0.06901678  0.81698080  0.55831138  1
  Zn  Zn124  1  0.53272400  0.30416686  0.06833153  1
  Zn  Zn125  1  0.54591970  0.32372917  0.57068245  1
  Zn  Zn126  1  0.58964018  0.84324008  0.04646345  1
  Zn  Zn127  1  0.57336697  0.81147190  0.58207123  1
  O  O128  1  0.09472953  0.11505242  0.13536668  1
  O  O129  1  0.11100753  0.12727045  0.61808193  1
  O  O130  1  0.16918145  0.62870654  0.13954058  1
  O  O131  1  0.11315724  0.61210353  0.63455414  1
  O  O132  1  0.63903189  0.11160399  0.09053885  1
  O  O133  1  0.61387257  0.12966362  0.62504674  1
  O  O134  1  0.59437058  0.59774860  0.11919670  1
  O  O135  1  0.62316435  0.60744299  0.63532850  1
  O  O136  1  0.38890114  0.37201283  0.38619677  1
  O  O137  1  0.37950681  0.35382002  0.86514839  1
  O  O138  1  0.40373840  0.84126800  0.42456607  1
  O  O139  1  0.38640428  0.89325396  0.86307544  1
  O  O140  1  0.87606719  0.38409004  0.37498112  1
  O  O141  1  0.88540592  0.35588199  0.89476858  1
  O  O142  1  0.89775743  0.89060163  0.37745556  1
  O  O143  1  0.88487440  0.90466924  0.85955812  1
  O  O144  1  0.27816590  -0.03429826  0.38475463  1
  O  O145  1  0.26025629  0.00916375  0.85169455  1
  O  O146  1  0.15810308  0.49954436  0.32327738  1
  O  O147  1  0.22286961  0.49010408  0.86181219  1
  O  O148  1  0.76597535  -0.01452678  0.39096489  1
  O  O149  1  0.76441109  0.01125383  0.86432728  1
  O  O150  1  0.76923364  0.51185455  0.39901064  1
  O  O151  1  0.71475236  0.49237521  0.86041783  1
  O  O152  1  0.26403835  0.47220851  0.09677690  1
  O  O153  1  0.23604565  0.51001538  0.63340494  1
  O  O154  1  0.22075198  1.01166002  0.11635051  1
  O  O155  1  0.24018619  1.01291848  0.62429581  1
  O  O156  1  0.75329139  0.49967364  0.14358909  1
  O  O157  1  0.73839236  0.47789589  0.63546708  1
  O  O158  1  0.78754568  0.99448827  0.12259402  1
  O  O159  1  0.75048539  1.00335278  0.64645797  1
  O  O160  1  0.01075959  0.38437112  0.27810559  1
  O  O161  1  -0.01532721  0.36160237  0.72861297  1
  O  O162  1  0.01003154  0.87306561  0.26364996  1
  O  O163  1  -0.00474928  0.86977434  0.72860337  1
  O  O164  1  0.52939182  0.37340183  0.21295094  1
  O  O165  1  0.49932473  0.35744414  0.75034439  1
  O  O166  1  0.42736053  0.89696925  0.27834097  1
  O  O167  1  0.51974934  0.87752115  0.75954599  1
  O  O168  1  0.44772769  0.09424871  0.31334753  1
  O  O169  1  0.49541903  0.12953699  0.73889514  1
  O  O170  1  0.50620806  0.63399672  0.28197694  1
  O  O171  1  0.51451596  0.60839219  0.81049991  1
  O  O172  1  0.96860330  0.11201858  0.23228092  1
  O  O173  1  0.99010672  0.13841662  0.72285187  1
  O  O174  1  1.01752263  0.65329603  0.26888065  1
  O  O175  1  0.98856091  0.66379207  0.74618691  1
  O  O176  1  0.35845255  0.24391831  -0.02723942  1
  O  O177  1  0.39636279  0.25980820  0.50944127  1
  O  O178  1  0.33226953  0.71448599  -0.01065753  1
  O  O179  1  0.36619910  0.75066011  0.53488237  1
  O  O180  1  0.85149238  0.28038822  0.03900244  1
  O  O181  1  0.86643365  0.24120176  0.50706260  1
  O  O182  1  0.92553186  0.76412403  -0.02081581  1
  O  O183  1  0.86665521  0.74109513  0.50962964  1
  O  O184  1  0.13126562  0.25102360  0.49118760  1
  O  O185  1  0.10028861  0.27243468  0.99230322  1
  O  O186  1  0.14762747  0.77105237  0.48765966  1
  O  O187  1  0.15193857  0.75158144  1.00875898  1
  O  O188  1  0.61383986  0.29880707  0.46226826  1
  O  O189  1  0.62652961  0.26090284  1.00713769  1
  O  O190  1  0.64231557  0.73666605  0.52571700  1
  O  O191  1  0.63331313  0.75453546  0.99532957  1
  O  O192  1  0.45560095  0.23818554  0.10993061  1
  O  O193  1  0.49311070  0.23701889  0.62894770  1
  O  O194  1  0.60074154  0.66692839  0.13740708  1
  O  O195  1  0.50361656  0.74177178  0.64275773  1
  O  O196  1  0.99068471  0.24194674  0.13704105  1
  O  O197  1  0.98601829  0.24409957  0.61108990  1
  O  O198  1  1.01664299  0.75798251  0.14585873  1
  O  O199  1  0.99974461  0.76493488  0.63798803  1
  O  O200  1  -0.00936064  0.26904756  0.38500008  1
  O  O201  1  -0.00170171  0.24036508  0.84207922  1
  O  O202  1  0.01742847  0.77096513  0.38388524  1
  O  O203  1  0.00907241  0.77958958  0.84470652  1
  O  O204  1  0.52101035  0.23582967  0.36019416  1
  O  O205  1  0.49383671  0.23992010  0.84919506  1
  O  O206  1  0.53311545  0.75766335  0.36521699  1
  O  O207  1  0.48448694  0.77023044  0.88642075  1
  O  O208  1  0.26869866  0.15389743  0.48160467  1
  O  O209  1  0.24613264  0.11886371  0.96804017  1
  O  O210  1  0.25749427  0.64814319  0.50717139  1
  O  O211  1  0.21695143  0.60685566  0.96313839  1
  O  O212  1  0.72650722  0.11687253  0.50612346  1
  O  O213  1  0.74888611  0.13793517  0.98141229  1
  O  O214  1  0.75018065  0.63661919  0.52616045  1
  O  O215  1  0.70810777  0.60235362  0.98399136  1
  O  O216  1  0.24490227  0.36386332  -0.03855829  1
  O  O217  1  0.26730979  0.33547729  0.49128289  1
  O  O218  1  0.25171583  0.89307375  0.01117335  1
  O  O219  1  0.26911820  0.86479610  0.51097382  1
  O  O220  1  0.76092765  0.40226332  -0.00282090  1
  O  O221  1  0.73976624  0.38050997  0.51058211  1
  O  O222  1  0.78608022  0.86652941  -0.02921451  1
  O  O223  1  0.73984354  0.85488497  0.52041002  1
  O  O224  1  0.14967855  0.56800468  0.17643259  1
  O  O225  1  0.13084952  0.48700207  0.73316448  1
  O  O226  1  0.10456169  0.99364892  0.23380703  1
  O  O227  1  0.13932700  1.01161404  0.72782857  1
  O  O228  1  0.68187939  0.57025914  0.26938029  1
  O  O229  1  0.63106099  0.47472837  0.73826383  1
  O  O230  1  0.65379967  1.01349242  0.20865421  1
  O  O231  1  0.64000608  1.01135448  0.76099737  1
  O  O232  1  0.42470620  0.07950946  0.24386792  1
  O  O233  1  0.36511929  0.00708812  0.73716382  1
  O  O234  1  0.38803313  0.54508821  0.25468214  1
  O  O235  1  0.34501759  0.48532658  0.75134132  1
  O  O236  1  0.86732622  -0.00181251  0.26450871  1
  O  O237  1  0.87557060  0.01826866  0.75389114  1
  O  O238  1  0.85597867  0.50553644  0.26944581  1
  O  O239  1  0.83497526  0.44681901  0.76374521  1
  O  O240  1  0.18050324  0.43995229  0.36108764  1
  O  O241  1  0.10284579  0.37172140  0.83069725  1
  O  O242  1  0.12075205  0.88459089  0.36373865  1
  O  O243  1  0.11475956  0.91895104  0.86092985  1
  O  O244  1  0.61654145  0.35381301  0.41099676  1
  O  O245  1  0.60462905  0.35979878  0.85751880  1
  O  O246  1  0.61643097  0.87895780  0.35043289  1
  O  O247  1  0.61533335  0.88274838  0.86673585  1
  O  O248  1  0.33353782  0.14126820  0.13084547  1
  O  O249  1  0.38698963  0.13086975  0.62747119  1
  O  O250  1  0.43495081  0.65877667  0.16642525  1
  O  O251  1  0.38500604  0.63130947  0.63188082  1
  O  O252  1  0.87013858  0.14872637  0.13304597  1
  O  O253  1  0.87379535  0.13623084  0.62746193  1
  O  O254  1  0.88014837  0.63216229  0.14876836  1
  O  O255  1  0.88959374  0.55942676  0.66038331  1
  O  O256  1  0.23967770  0.26841508  0.17417337  1
  O  O257  1  0.27108987  0.23812569  0.62392738  1
  O  O258  1  0.26255941  0.78925797  0.13148873  1
  O  O259  1  0.23099317  0.74693903  0.62732099  1
  O  O260  1  0.74082633  0.24960431  0.15039537  1
  O  O261  1  0.75501327  0.25729918  0.62045930  1
  O  O262  1  0.78583659  0.72992567  0.05294309  1
  O  O263  1  0.76077447  0.76296213  0.64396431  1
  O  O264  1  0.23628380  0.26379828  0.35489892  1
  O  O265  1  0.24111519  0.22892631  0.85210770  1
  O  O266  1  0.24861204  0.78131658  0.36665796  1
  O  O267  1  0.23821303  0.75463343  0.86852986  1
  O  O268  1  0.73476302  0.16341969  0.44952679  1
  O  O269  1  0.75788530  0.24516475  0.86083390  1
  O  O270  1  0.75805916  0.75015607  0.39915690  1
  O  O271  1  0.76034642  0.73162004  0.88609743  1
  O  O272  1  -0.01003480  0.13121874  0.01838332  1
  O  O273  1  -0.00509230  0.11897804  0.50771415  1
  O  O274  1  -0.01114385  0.60012634  0.00755191  1
  O  O275  1  0.01868683  0.60755520  0.47236809  1
  O  O276  1  0.52775859  0.13795596  -0.01668254  1
  O  O277  1  0.50303059  0.10620276  0.51327853  1
  O  O278  1  0.46607025  0.58385869  -0.01010168  1
  O  O279  1  0.51244507  0.65076018  0.50590468  1
  O  O280  1  0.48010854  0.39488727  0.50996825  1
  O  O281  1  0.48063217  0.35734144  0.97683676  1
  O  O282  1  0.50211563  0.88629026  0.52890899  1
  O  O283  1  0.50369214  0.88648306  0.98172720  1
  O  O284  1  1.02029017  0.39813644  0.47244037  1
  O  O285  1  0.96512696  0.38204005  1.03350229  1
  O  O286  1  1.01215998  0.89171790  0.48728663  1
  O  O287  1  1.00737603  0.89366829  1.00246399  1
  O  O288  1  0.55036121  0.41185361  0.27152092  1
  O  O289  1  0.48674151  0.46931936  0.86462961  1
  O  O290  1  0.49837395  0.98631185  0.40657876  1
  O  O291  1  0.48461079  1.00320880  0.86377270  1
  O  O292  1  0.98146143  0.49801407  0.37616998  1
  O  O293  1  0.95807600  0.52633391  0.82814475  1
  O  O294  1  1.00366962  0.99918966  0.38067353  1
  O  O295  1  0.98752695  1.02201992  0.89005108  1
  O  O296  1  -0.01148109  0.00505301  0.11169702  1
  O  O297  1  0.00943604  0.01471709  0.61511818  1
  O  O298  1  -0.00698691  0.50142820  0.12881225  1
  O  O299  1  0.00810336  0.49637215  0.60124852  1
  O  O300  1  0.50674312  0.01765716  0.11765508  1
  O  O301  1  0.50620888  0.01229379  0.62960499  1
  O  O302  1  0.45736730  0.47316721  0.10696510  1
  O  O303  1  0.51084950  0.49285232  0.64055715  1
  O  O304  1  0.28480311  0.40883036  0.23251656  1
  O  O305  1  0.23498975  0.37113025  0.73941442  1
  O  O306  1  0.23498781  0.89385349  0.24427972  1
  O  O307  1  0.25738797  0.89415134  0.74506185  1
  O  O308  1  0.72007450  0.40716629  0.28347893  1
  O  O309  1  0.72487747  0.35072860  0.74394894  1
  O  O310  1  0.75644433  0.89072203  0.24531001  1
  O  O311  1  0.74265282  0.88964958  0.75979474  1
  O  O312  1  0.28267060  0.04607121  0.27469809  1
  O  O313  1  0.25747258  0.11786149  0.74688591  1
  O  O314  1  0.29899902  0.65263713  0.24499984  1
  O  O315  1  0.24092107  0.60934013  0.76163384  1
  O  O316  1  0.76335692  0.10035943  0.24756176  1
  O  O317  1  0.75458796  0.12171732  0.75546646  1
  O  O318  1  0.82066982  0.64535034  0.18783040  1
  O  O319  1  0.75142676  0.59730974  0.74457132  1
  O  O320  1  0.39124339  0.12558229  0.36287380  1
  O  O321  1  0.37048441  0.11388400  0.85191013  1
  O  O322  1  0.39507401  0.64928008  0.36838653  1
  O  O323  1  0.44211033  0.62868919  0.82512052  1
  O  O324  1  0.87858449  0.10843181  0.36627318  1
  O  O325  1  0.86235004  0.12422242  0.85722725  1
  O  O326  1  0.87876867  0.62429029  0.37433183  1
  O  O327  1  0.90646542  0.57310204  0.84894535  1
  O  O328  1  0.13760102  0.38035514  0.13526959  1
  O  O329  1  0.11699649  0.38804578  0.62722736  1
  O  O330  1  0.13104538  0.89232552  0.13441271  1
  O  O331  1  0.12646067  0.89659435  0.61937541  1
  O  O332  1  0.58541525  0.36379495  0.15369320  1
  O  O333  1  0.62829338  0.37512588  0.62928969  1
  O  O334  1  0.59234724  0.88817191  0.14887206  1
  O  O335  1  0.64289923  0.87581945  0.65279369  1
  O  O336  1  0.12191476  0.15638115  0.31888637  1
  O  O337  1  0.10643452  0.26078875  0.72109870  1
  O  O338  1  0.12627897  0.77466393  0.26125508  1
  O  O339  1  0.10277037  0.75877807  0.74038954  1
  O  O340  1  0.59854881  0.21789697  0.25544233  1
  O  O341  1  0.60760917  0.25293036  0.73594347  1
  O  O342  1  0.68356015  0.74224538  0.24910206  1
  O  O343  1  0.63607256  0.75809596  0.76131945  1
  O  O344  1  0.38016548  0.25164100  0.24438566  1
  O  O345  1  0.38404461  0.23916581  0.73360260  1
  O  O346  1  0.39394103  0.75214723  0.26858040  1
  O  O347  1  0.37137618  0.74897038  0.73901036  1
  O  O348  1  0.84987904  0.22896687  0.26617012  1
  O  O349  1  0.88134109  0.24629320  0.73150001  1
  O  O350  1  0.89806314  0.76314165  0.26093984  1
  O  O351  1  0.89425038  0.76865957  0.75585126  1
  O  O352  1  0.33377283  0.47365887  0.50221813  1
  O  O353  1  0.37318465  0.45539362  0.97868590  1
  O  O354  1  0.37818617  0.98240343  0.52053014  1
  O  O355  1  0.37055013  1.01293849  0.97611973  1
  O  O356  1  0.89228568  0.51095251  0.49472377  1
  O  O357  1  0.88058711  0.49074873  0.99682943  1
  O  O358  1  0.88824368  1.00761073  0.48784735  1
  O  O359  1  0.88181359  1.00856375  0.98446031  1
  O  O360  1  0.10351818  0.00955490  0.01370009  1
  O  O361  1  0.12157470  0.00540360  0.50803564  1
  O  O362  1  0.07774578  0.47207106  -0.02593821  1
  O  O363  1  0.13134064  0.50351770  0.51396220  1
  O  O364  1  0.64051229  -0.03192700  0.02282542  1
  O  O365  1  0.62245221  -0.01499761  0.50037604  1
  O  O366  1  0.58350660  0.46713778  -0.00879711  1
  O  O367  1  0.62115755  0.51303213  0.52175956  1
  O  O368  1  0.33296278  0.33500476  0.08945844  1
  O  O369  1  0.37676300  0.35686891  0.62512838  1
  O  O370  1  0.35166008  0.92553788  0.12746986  1
  O  O371  1  0.38615047  0.85706682  0.62678879  1
  O  O372  1  0.86388867  0.35355737  0.17996987  1
  O  O373  1  0.85617924  0.36117261  0.61823438  1
  O  O374  1  0.88186148  0.85897402  0.11162665  1
  O  O375  1  0.85196728  0.89327909  0.62553556  1
  O  O376  1  0.25209868  0.03674286  0.34099932  1
  O  O377  1  0.12625835  0.12067593  0.86645355  1
  O  O378  1  0.14711178  0.65874768  0.36752505  1
  O  O379  1  0.07562682  0.64133601  0.87275621  1
  O  O380  1  0.57662748  0.19009085  0.32744717  1
  O  O381  1  0.64290555  0.12998904  0.88611986  1
  O  O382  1  0.63254602  0.62261422  0.41137462  1
  O  O383  1  0.56825149  0.63171197  0.86588896  1
