# generated using pymatgen
data_VZnO4
_symmetry_space_group_name_H-M   'P 1'
_cell_length_a   16.97670054
_cell_length_b   16.88939787
_cell_length_c   16.96485775
_cell_angle_alpha   89.87559271
_cell_angle_beta   89.52048223
_cell_angle_gamma   89.83986890
_symmetry_Int_Tables_number   1
_chemical_formula_structural   VZnO4
_chemical_formula_sum   'V64 Zn64 O256'
_cell_volume   4864.06947073
_cell_formula_units_Z   64
loop_
 _symmetry_equiv_pos_site_id
 _symmetry_equiv_pos_as_xyz
  1  'x, y, z'
loop_
 _atom_site_type_symbol
 _atom_site_label
 _atom_site_symmetry_multiplicity
 _atom_site_fract_x
 _atom_site_fract_y
 _atom_site_fract_z
 _atom_site_occupancy
  V  V0  1  0.88902479  0.73390565  0.62814150  1
  V  V1  1  0.88350581  0.85701942  0.47839914  1
  V  V2  1  0.24844934  0.73740518  -0.00785162  1
  V  V3  1  0.24069052  0.87390545  0.63696712  1
  V  V4  1  0.86014545  0.47141324  0.39170518  1
  V  V5  1  0.11731357  0.00130653  0.12703985  1
  V  V6  1  0.25453481  0.75485401  0.48845296  1
  V  V7  1  0.51719547  0.50299815  0.51324043  1
  V  V8  1  0.38212986  0.39192252  -0.00328936  1
  V  V9  1  0.00474412  -0.00564408  0.51135896  1
  V  V10  1  0.24611383  0.87482097  0.13349207  1
  V  V11  1  0.14203496  0.27164678  0.87250755  1
  V  V12  1  0.02822306  0.23994028  0.72835855  1
  V  V13  1  0.26670362  0.51052684  0.75262354  1
  V  V14  1  0.49207980  0.37661292  0.38702952  1
  V  V15  1  0.11725984  0.52928594  0.62995611  1
  V  V16  1  0.85115620  0.24992256  0.60597159  1
  V  V17  1  0.62933912  0.37933995  0.24803052  1
  V  V18  1  0.37858568  0.00149987  0.86270136  1
  V  V19  1  0.13087173  0.63148515  0.47436703  1
  V  V20  1  0.24587127  0.50920742  0.24733400  1
  V  V21  1  0.74899746  0.46510665  0.75390858  1
  V  V22  1  0.49584051  0.00897052  0.00819285  1
  V  V23  1  0.13949471  0.38205368  0.72198226  1
  V  V24  1  0.74578218  0.73200370  0.48205225  1
  V  V25  1  0.63195347  0.24158742  0.38841389  1
  V  V26  1  0.75399577  0.87293432  0.62540243  1
  V  V27  1  0.74468323  0.63360313  0.86374511  1
  V  V28  1  0.87867512  0.13251939  0.24739235  1
  V  V29  1  0.50109095  0.12947504  0.63100470  1
  V  V30  1  0.52779596  0.26843413  0.75503717  1
  V  V31  1  0.51329848  0.86604780  0.86736816  1
  V  V32  1  0.49968470  0.12977206  0.13297801  1
  V  V33  1  0.38857493  0.74134071  0.12813653  1
  V  V34  1  -0.00832232  0.01356952  -0.02420734  1
  V  V35  1  0.61157176  -0.01515223  0.14195827  1
  V  V36  1  0.75989635  0.87679851  0.12079996  1
  V  V37  1  0.88051304  0.48913148  0.87132191  1
  V  V38  1  0.24623511  0.02847495  0.25702280  1
  V  V39  1  0.64068415  0.50990465  0.63149329  1
  V  V40  1  0.39122356  0.62067482  0.24906689  1
  V  V41  1  0.09966539  0.62321339  -0.00309985  1
  V  V42  1  0.26288808  0.11940960  0.86638832  1
  V  V43  1  0.89076351  -0.01029228  0.36235142  1
  V  V44  1  0.90484781  0.72171395  0.11782031  1
  V  V45  1  0.36374178  0.50354111  0.38823240  1
  V  V46  1  0.36853274  0.03027006  0.37615687  1
  V  V47  1  0.49041097  0.24700117  0.26437232  1
  V  V48  1  0.62507563  0.61505018  0.01014036  1
  V  V49  1  0.73861674  -0.00289010  0.26703544  1
  V  V50  1  0.13252631  0.12494584  0.00005620  1
  V  V51  1  0.75198439  0.51269176  0.24037539  1
  V  V52  1  0.10066946  0.50068634  0.12649918  1
  V  V53  1  0.62005475  0.75932065  0.35929085  1
  V  V54  1  0.25803421  0.25511032  0.00442031  1
  V  V55  1  0.38464349  0.63659134  0.75692041  1
  V  V56  1  0.37107131  0.24847303  0.13796200  1
  V  V57  1  0.51814534  0.00012708  0.49950072  1
  V  V58  1  0.39189670  0.75190227  0.61950115  1
  V  V59  1  0.70699306  0.25025629  0.02382305  1
  V  V60  1  0.37472838  0.87612244  0.00286984  1
  V  V61  1  0.09410859  0.85796354  0.80983922  1
  V  V62  1  0.87497759  0.35269936  0.00006088  1
  V  V63  1  0.24167589  0.38470294  0.13020729  1
  Zn  Zn64  1  0.17412896  0.19637961  0.18350859  1
  Zn  Zn65  1  0.18724378  0.17425180  0.68773938  1
  Zn  Zn66  1  0.19029324  0.68031252  0.17008288  1
  Zn  Zn67  1  0.19503514  0.70170720  0.70121269  1
  Zn  Zn68  1  0.68018720  0.18076560  0.20480437  1
  Zn  Zn69  1  0.68576285  0.16388794  0.54421731  1
  Zn  Zn70  1  0.68273994  0.68900082  0.18963376  1
  Zn  Zn71  1  0.70250891  0.69190501  0.67745327  1
  Zn  Zn72  1  0.30831018  0.32369550  0.31669571  1
  Zn  Zn73  1  0.30561549  0.33526352  0.82175915  1
  Zn  Zn74  1  0.31391070  0.80895237  0.30533839  1
  Zn  Zn75  1  0.31865053  0.81438661  0.80998826  1
  Zn  Zn76  1  0.80841927  0.31110934  0.31699527  1
  Zn  Zn77  1  0.85298355  0.31269566  0.78382011  1
  Zn  Zn78  1  0.81102638  0.80316644  0.29353749  1
  Zn  Zn79  1  0.68884978  0.81018302  0.80649636  1
  Zn  Zn80  1  0.18783791  0.44939225  0.44983214  1
  Zn  Zn81  1  0.30800462  0.56015177  0.92768577  1
  Zn  Zn82  1  0.21771814  0.96798927  0.48357427  1
  Zn  Zn83  1  0.18426235  0.93547817  0.92966846  1
  Zn  Zn84  1  0.68038376  0.43635930  0.43273616  1
  Zn  Zn85  1  0.72024495  0.44702873  0.96620222  1
  Zn  Zn86  1  0.68925323  0.92533918  0.44739826  1
  Zn  Zn87  1  0.67434811  0.94543838  0.95220693  1
  Zn  Zn88  1  0.31366502  0.06519951  0.06796702  1
  Zn  Zn89  1  0.35153474  0.03589941  0.58503733  1
  Zn  Zn90  1  0.45483837  0.55505288  0.06487574  1
  Zn  Zn91  1  0.30376227  0.57813772  0.57686367  1
  Zn  Zn92  1  0.84290429  0.14175251  0.03638576  1
  Zn  Zn93  1  0.82895415  0.06303102  0.59195402  1
  Zn  Zn94  1  0.81890362  0.56512106  0.05358537  1
  Zn  Zn95  1  0.81299162  0.55489863  0.56625316  1
  Zn  Zn96  1  0.43283632  0.42876324  0.19504202  1
  Zn  Zn97  1  0.48718636  0.47900962  0.73329967  1
  Zn  Zn98  1  0.42189774  0.94265910  0.19376098  1
  Zn  Zn99  1  0.44692115  0.92850812  0.68124836  1
  Zn  Zn100  1  0.91393919  0.42671327  0.18634937  1
  Zn  Zn101  1  0.94809681  0.42713379  0.68935115  1
  Zn  Zn102  1  0.89818565  0.99903154  0.12973423  1
  Zn  Zn103  1  0.96833652  0.88082030  0.66773369  1
  Zn  Zn104  1  0.05574755  0.06709406  0.30237152  1
  Zn  Zn105  1  0.08206128  0.05560032  0.80301693  1
  Zn  Zn106  1  0.06957307  0.50705724  0.33339257  1
  Zn  Zn107  1  0.07451958  0.55454528  0.82270754  1
  Zn  Zn108  1  0.55495108  0.06397204  0.32210700  1
  Zn  Zn109  1  0.53954346  0.10255722  0.83548431  1
  Zn  Zn110  1  0.56706393  0.56344994  0.31924589  1
  Zn  Zn111  1  0.56763786  0.66927557  0.80070081  1
  Zn  Zn112  1  0.42751384  0.18843271  0.45452605  1
  Zn  Zn113  1  0.44204331  0.19882063  0.94242671  1
  Zn  Zn114  1  0.43894096  0.67920246  0.44343832  1
  Zn  Zn115  1  0.44411121  0.69005448  0.93974354  1
  Zn  Zn116  1  0.87677891  0.15243419  0.46069072  1
  Zn  Zn117  1  0.98864455  0.23807250  0.96019270  1
  Zn  Zn118  1  0.92634087  0.64365117  0.47647569  1
  Zn  Zn119  1  0.74727581  0.75375049  0.99462496  1
  Zn  Zn120  1  0.05013843  0.43080888  -0.05318525  1
  Zn  Zn121  1  0.00710609  0.29468944  0.52182529  1
  Zn  Zn122  1  0.05017963  0.81587537  0.01720352  1
  Zn  Zn123  1  0.07083550  0.80459833  0.54936617  1
  Zn  Zn124  1  0.55340841  0.32263062  0.07342600  1
  Zn  Zn125  1  0.55559570  0.31322120  0.56765735  1
  Zn  Zn126  1  0.56968912  0.80452603  0.05542734  1
  Zn  Zn127  1  0.56908828  0.81683349  0.54969816  1
  O  O128  1  0.13950395  0.11380449  0.10949422  1
  O  O129  1  0.16004620  0.10559618  0.58296198  1
  O  O130  1  0.12380170  0.60618246  0.11461988  1
  O  O131  1  0.11762301  0.62748329  0.65103488  1
  O  O132  1  0.60194959  0.11472988  0.13995279  1
  O  O133  1  0.60234998  0.12306736  0.60773557  1
  O  O134  1  0.63210594  0.62636557  0.10972197  1
  O  O135  1  0.63645587  0.60851039  0.62585521  1
  O  O136  1  0.38127253  0.39313193  0.37362215  1
  O  O137  1  0.37612845  0.37174061  0.89776561  1
  O  O138  1  0.40550661  0.87563291  0.34168638  1
  O  O139  1  0.38509407  0.88839345  0.88335573  1
  O  O140  1  0.88164368  0.37331862  0.37449781  1
  O  O141  1  0.87446329  0.37491567  0.87738335  1
  O  O142  1  0.87229046  0.87563127  0.36921771  1
  O  O143  1  0.82132686  0.94149515  0.87862329  1
  O  O144  1  0.24210498  0.00524572  0.35762413  1
  O  O145  1  0.26968066  0.00776991  0.88549572  1
  O  O146  1  0.25601159  0.48901722  0.35827092  1
  O  O147  1  0.25228541  0.49866308  0.85356890  1
  O  O148  1  0.74815884  -0.01183319  0.36613657  1
  O  O149  1  0.69829973  0.04650881  0.88530929  1
  O  O150  1  0.75703784  0.48868941  0.36946405  1
  O  O151  1  0.74397616  0.48810142  0.85640170  1
  O  O152  1  0.25413448  0.49030214  0.13573476  1
  O  O153  1  0.23358940  0.51551288  0.64474900  1
  O  O154  1  0.25242058  0.99340669  0.13996122  1
  O  O155  1  0.25752720  0.97612674  0.60413860  1
  O  O156  1  0.75830321  0.50321391  0.14051959  1
  O  O157  1  0.75040770  0.49880793  0.64265847  1
  O  O158  1  0.71635450  0.98624721  0.13015753  1
  O  O159  1  0.77763136  0.97218755  0.62357196  1
  O  O160  1  -0.00431660  0.34464775  0.24536218  1
  O  O161  1  0.03487581  0.35801346  0.74516134  1
  O  O162  1  0.00124849  0.84968666  0.23171545  1
  O  O163  1  -0.00075668  0.86682100  0.77516206  1
  O  O164  1  0.50217969  0.36640577  0.26819725  1
  O  O165  1  0.49754403  0.36582935  0.75692652  1
  O  O166  1  0.46035020  0.87590341  0.28532202  1
  O  O167  1  0.50236177  0.88650309  0.77061523  1
  O  O168  1  0.49384499  0.14026934  0.25150906  1
  O  O169  1  0.50540157  0.11241187  0.73063890  1
  O  O170  1  0.48885725  0.61569216  0.24878000  1
  O  O171  1  0.48625609  0.60351051  0.75424877  1
  O  O172  1  0.98071000  0.13135269  0.24913088  1
  O  O173  1  1.07864764  0.14212898  0.72953004  1
  O  O174  1  1.05717628  0.69414474  0.26610585  1
  O  O175  1  1.00600177  0.65270798  0.77677923  1
  O  O176  1  0.37064131  0.25511287  0.01443888  1
  O  O177  1  0.34162680  0.25247688  0.51494969  1
  O  O178  1  0.37147707  0.75689717  0.01265632  1
  O  O179  1  0.36623830  0.73639731  0.51440025  1
  O  O180  1  0.87989068  0.24393335  -0.00737878  1
  O  O181  1  0.89927628  0.25684365  0.50868209  1
  O  O182  1  0.85296615  0.75133270  0.03644845  1
  O  O183  1  0.87617280  0.75166639  0.47151107  1
  O  O184  1  0.13338098  0.14610187  0.52761322  1
  O  O185  1  0.14349287  0.24036446  0.98615620  1
  O  O186  1  0.14217226  0.74490824  0.48166817  1
  O  O187  1  0.14236505  0.72983906  1.01113945  1
  O  O188  1  0.61314449  0.24644881  0.49122210  1
  O  O189  1  0.60807300  0.25430254  1.00193717  1
  O  O190  1  0.64659430  0.74387242  0.49866870  1
  O  O191  1  0.63220742  0.73432384  0.99657792  1
  O  O192  1  0.48858317  0.24738752  0.14292736  1
  O  O193  1  0.50680610  0.24546924  0.64569069  1
  O  O194  1  0.48436964  0.76008315  0.12385495  1
  O  O195  1  0.49101905  0.75419379  0.60878242  1
  O  O196  1  1.03380926  0.29016200  0.20495015  1
  O  O197  1  1.03075328  0.25320368  0.62658039  1
  O  O198  1  1.00121316  0.75982612  0.10231503  1
  O  O199  1  0.99103288  0.76525817  0.62418926  1
  O  O200  1  0.07354353  0.21651856  0.39579276  1
  O  O201  1  0.04763486  0.23625425  0.86125612  1
  O  O202  1  0.01787019  0.71520465  0.32635403  1
  O  O203  1  -0.01975506  0.69896503  0.82754272  1
  O  O204  1  0.48813365  0.25929813  0.37984354  1
  O  O205  1  0.50111316  0.21525828  0.84829413  1
  O  O206  1  0.51702448  0.73844398  0.39063556  1
  O  O207  1  0.50312124  0.76426036  0.87225083  1
  O  O208  1  0.28465388  0.20661405  0.54513725  1
  O  O209  1  0.25229016  0.13651743  0.99888591  1
  O  O210  1  0.23800082  0.64284354  0.50867111  1
  O  O211  1  0.26536806  0.63851674  1.00030806  1
  O  O212  1  0.77748048  0.11254136  0.50393937  1
  O  O213  1  0.74245951  0.16162571  0.98877286  1
  O  O214  1  0.76431728  0.63316224  0.48846024  1
  O  O215  1  0.74255672  0.62215021  0.98595612  1
  O  O216  1  0.26288717  0.36562054  0.01557140  1
  O  O217  1  0.22388042  0.33569704  0.46041342  1
  O  O218  1  0.26346384  0.87629631  0.00870794  1
  O  O219  1  0.25030983  0.85706978  0.50733771  1
  O  O220  1  0.75603277  0.33932894  -0.01604760  1
  O  O221  1  0.70917213  0.38369404  0.53581869  1
  O  O222  1  0.73500808  0.87833415  0.01633170  1
  O  O223  1  0.77017432  0.85825805  0.49623927  1
  O  O224  1  0.13775807  0.50312810  0.24054571  1
  O  O225  1  0.13000995  0.49280986  0.74447329  1
  O  O226  1  0.13447362  1.01160355  0.23476637  1
  O  O227  1  0.13626517  0.95404967  0.80076492  1
  O  O228  1  0.63591306  0.48702624  0.26687471  1
  O  O229  1  0.63582598  0.48487405  0.73265785  1
  O  O230  1  0.62340401  1.00103259  0.25092196  1
  O  O231  1  0.64198168  1.03142735  0.73592504  1
  O  O232  1  0.35582356  0.00920851  0.26359308  1
  O  O233  1  0.38365269  -0.00172211  0.76578960  1
  O  O234  1  0.36516189  0.50824391  0.25530796  1
  O  O235  1  0.36933976  0.50803213  0.73986904  1
  O  O236  1  0.85961803  -0.00177411  0.25606082  1
  O  O237  1  0.85045975  -0.02594159  0.82064358  1
  O  O238  1  0.85469214  0.48509175  0.26246148  1
  O  O239  1  0.86362491  0.47829517  0.75950398  1
  O  O240  1  0.08527322  0.40170277  0.40263398  1
  O  O241  1  0.13399677  0.36998049  0.88630143  1
  O  O242  1  0.05585209  0.86636998  0.27492901  1
  O  O243  1  0.10453444  0.84993920  0.91532961  1
  O  O244  1  0.60758658  0.36521145  0.37460676  1
  O  O245  1  0.55775428  0.43773654  0.89361515  1
  O  O246  1  0.62170340  0.85840960  0.38435658  1
  O  O247  1  0.61803671  0.87975097  0.87599781  1
  O  O248  1  0.37798978  0.14081722  0.13042661  1
  O  O249  1  0.39297169  0.13117452  0.62161043  1
  O  O250  1  0.38482823  0.63452019  0.13059465  1
  O  O251  1  0.37444648  0.64084736  0.64248016  1
  O  O252  1  0.86644204  0.11025258  0.14389634  1
  O  O253  1  0.87480300  0.15569869  0.63993410  1
  O  O254  1  0.89704448  0.61823849  0.11515694  1
  O  O255  1  0.89224537  0.63384475  0.59023857  1
  O  O256  1  0.25179803  0.26007250  0.12349295  1
  O  O257  1  0.24253360  0.24243921  0.60268647  1
  O  O258  1  0.25671494  0.76182525  0.11531281  1
  O  O259  1  0.25970386  0.75997688  0.62173397  1
  O  O260  1  0.72189053  0.24776959  0.12355391  1
  O  O261  1  0.75257648  0.24856226  0.59893189  1
  O  O262  1  0.73112295  0.77954737  0.13542849  1
  O  O263  1  0.77073685  0.74602105  0.59969863  1
  O  O264  1  0.22736552  0.29130223  0.39692004  1
  O  O265  1  0.25554600  0.24213958  0.88258656  1
  O  O266  1  0.27294569  0.75146048  0.38983804  1
  O  O267  1  0.26163979  0.76279418  0.89609091  1
  O  O268  1  0.73046983  0.25610725  0.38360049  1
  O  O269  1  0.77263876  0.19346368  0.80783998  1
  O  O270  1  0.73865987  0.75071146  0.37401999  1
  O  O271  1  0.75566532  0.73691760  0.87229992  1
  O  O272  1  0.02880172  0.13312894  -0.00311137  1
  O  O273  1  -0.02084173  0.09208621  0.49611936  1
  O  O274  1  0.00678698  0.64178605  -0.01303305  1
  O  O275  1  0.03547446  0.63993693  0.50331628  1
  O  O276  1  0.48723895  0.11879265  0.01830712  1
  O  O277  1  0.48958545  0.11181217  0.50682773  1
  O  O278  1  0.51477701  0.62144941  -0.00560591  1
  O  O279  1  0.47582597  0.59335928  0.51303975  1
  O  O280  1  0.49637284  0.38883136  0.49793078  1
  O  O281  1  0.47988239  0.38077469  1.01325247  1
  O  O282  1  0.50157739  0.89972160  0.50121829  1
  O  O283  1  0.49061796  0.88197419  0.99068295  1
  O  O284  1  1.03060316  0.39191595  0.46295277  1
  O  O285  1  0.98299249  0.35318351  0.99090658  1
  O  O286  1  0.98813241  0.87151300  0.49092213  1
  O  O287  1  0.99066227  0.91560506  0.99534654  1
  O  O288  1  0.48777285  0.49478329  0.39175261  1
  O  O289  1  0.51380419  0.49045874  0.86970362  1
  O  O290  1  0.47460178  1.01382610  0.38859305  1
  O  O291  1  0.49010167  1.00695481  0.88998234  1
  O  O292  1  0.96639761  0.51596152  0.38241732  1
  O  O293  1  0.98602080  0.49552414  0.87143397  1
  O  O294  1  0.99135844  0.98848357  0.35668332  1
  O  O295  1  0.99708811  1.02880075  0.87723766  1
  O  O296  1  0.01864453  0.00221313  0.12833415  1
  O  O297  1  -0.00901053  -0.02039379  0.61106208  1
  O  O298  1  0.00720421  0.48903096  0.15334761  1
  O  O299  1  0.02007477  0.49783180  0.63517062  1
  O  O300  1  0.49282975  0.00975781  0.13146271  1
  O  O301  1  0.48482654  0.00659868  0.60749316  1
  O  O302  1  0.50289989  0.49543062  0.14246832  1
  O  O303  1  0.52725667  0.48384659  0.61987778  1
  O  O304  1  0.25075372  0.38355239  0.23672693  1
  O  O305  1  0.24610159  0.39371443  0.74641257  1
  O  O306  1  0.24759976  0.87026349  0.23484931  1
  O  O307  1  0.26014359  0.87704610  0.73639737  1
  O  O308  1  0.73020141  0.36951594  0.25357952  1
  O  O309  1  0.74871920  0.36705941  0.75374816  1
  O  O310  1  0.74865299  0.89226173  0.23741894  1
  O  O311  1  0.75821508  0.85352776  0.72530561  1
  O  O312  1  0.24007958  0.12819677  0.25196127  1
  O  O313  1  0.25676520  0.12680866  0.76793126  1
  O  O314  1  0.25956150  0.61109076  0.23888578  1
  O  O315  1  0.26730368  0.62184655  0.75547800  1
  O  O316  1  0.74943790  0.10178075  0.24978109  1
  O  O317  1  0.70228174  0.00439672  0.76509042  1
  O  O318  1  0.74218562  0.61177616  0.25279668  1
  O  O319  1  0.74716127  0.61801132  0.76286657  1
  O  O320  1  0.36112671  0.12926453  0.37793594  1
  O  O321  1  0.37021010  0.11365020  0.88459107  1
  O  O322  1  0.37858211  0.61092268  0.36184859  1
  O  O323  1  0.37834909  0.63185593  0.86448817  1
  O  O324  1  0.87307314  0.09832416  0.35997365  1
  O  O325  1  0.80476914  0.12843220  0.79986561  1
  O  O326  1  0.91121448  0.58204595  0.37747328  1
  O  O327  1  0.85176459  0.58871402  0.87746645  1
  O  O328  1  0.13916281  0.39295320  0.11890276  1
  O  O329  1  0.14096273  0.38585152  0.62496101  1
  O  O330  1  0.14181980  0.89430882  0.11199297  1
  O  O331  1  0.14002553  0.86517041  0.62504460  1
  O  O332  1  0.61285037  0.37732964  0.15059627  1
  O  O333  1  0.65042097  0.38950876  0.58962738  1
  O  O334  1  0.59359635  0.88685316  0.13735047  1
  O  O335  1  0.65452269  0.87078981  0.60431754  1
  O  O336  1  0.10155240  0.26521108  0.24352493  1
  O  O337  1  0.15478096  0.27233007  0.75788986  1
  O  O338  1  0.12941367  0.73114101  0.25724117  1
  O  O339  1  0.13770643  0.77446222  0.76999663  1
  O  O340  1  0.60924252  0.25926894  0.26774496  1
  O  O341  1  0.62312351  0.26520317  0.75562756  1
  O  O342  1  0.62022086  0.75448923  0.25984649  1
  O  O343  1  0.62518678  0.74415837  0.74125156  1
  O  O344  1  0.37799974  0.26186634  0.24874258  1
  O  O345  1  0.36143253  0.27122068  0.72495667  1
  O  O346  1  0.36895583  0.73158624  0.23758130  1
  O  O347  1  0.38560319  0.74221852  0.74527515  1
  O  O348  1  0.85544661  0.22925787  0.25537311  1
  O  O349  1  0.93621280  0.22852656  0.76433167  1
  O  O350  1  0.87226705  0.75215750  0.21242184  1
  O  O351  1  0.86952687  0.72877214  0.72145505  1
  O  O352  1  0.34403964  0.50710607  0.48565708  1
  O  O353  1  0.37199513  0.49637252  1.00226029  1
  O  O354  1  0.33804147  1.00117141  0.47116725  1
  O  O355  1  0.38207953  0.99143072  1.00670142  1
  O  O356  1  0.85462807  0.47666077  0.49286232  1
  O  O357  1  0.84867973  0.47139453  0.98028977  1
  O  O358  1  0.88645188  0.97627080  0.47418486  1
  O  O359  1  0.89714756  1.04167683  1.00710409  1
  O  O360  1  0.12179380  0.01183133  0.00460416  1
  O  O361  1  0.10406101  -0.01408316  0.48681982  1
  O  O362  1  0.09614956  0.50626755  0.01820868  1
  O  O363  1  0.14142009  0.52495387  0.52240783  1
  O  O364  1  0.60081428  -0.00117319  0.02494838  1
  O  O365  1  0.61714212  0.00694715  0.48788089  1
  O  O366  1  0.63553601  0.51114990  0.00114736  1
  O  O367  1  0.61801891  0.51282719  0.50027486  1
  O  O368  1  0.36474840  0.36570444  0.12172482  1
  O  O369  1  0.36289165  0.31228888  0.66361320  1
  O  O370  1  0.36562211  0.86799427  0.12247438  1
  O  O371  1  0.37287707  0.85650609  0.63084979  1
  O  O372  1  0.87055806  0.37091939  0.09850639  1
  O  O373  1  0.87999099  0.33434707  0.66365710  1
  O  O374  1  0.85860098  0.89361224  0.11857707  1
  O  O375  1  0.87269375  0.85076451  0.60009996  1
  O  O376  1  0.11159456  0.15515733  0.37707828  1
  O  O377  1  0.15404242  0.11620698  0.88869685  1
  O  O378  1  0.12901651  0.59862245  0.38008362  1
  O  O379  1  0.13272441  0.60796317  0.90090085  1
  O  O380  1  0.61927562  0.14294888  0.37089454  1
  O  O381  1  0.64898730  0.10443172  0.88021448  1
  O  O382  1  0.60771582  0.64595449  0.38196349  1
  O  O383  1  0.63942227  0.62227515  0.87997227  1
