# generated using pymatgen
data_VZnO4
_symmetry_space_group_name_H-M   'P 1'
_cell_length_a   16.89570110
_cell_length_b   16.86519207
_cell_length_c   16.90524601
_cell_angle_alpha   90.13897064
_cell_angle_beta   89.87255103
_cell_angle_gamma   90.30694268
_symmetry_Int_Tables_number   1
_chemical_formula_structural   VZnO4
_chemical_formula_sum   'V64 Zn64 O256'
_cell_volume   4817.04200107
_cell_formula_units_Z   64
loop_
 _symmetry_equiv_pos_site_id
 _symmetry_equiv_pos_as_xyz
  1  'x, y, z'
loop_
 _atom_site_type_symbol
 _atom_site_label
 _atom_site_symmetry_multiplicity
 _atom_site_fract_x
 _atom_site_fract_y
 _atom_site_fract_z
 _atom_site_occupancy
  V  V0  1  0.61800428  0.76397596  0.87631802  1
  V  V1  1  0.75955854  -0.00888758  0.24668669  1
  V  V2  1  0.00001888  0.52460168  0.00166113  1
  V  V3  1  0.51159072  0.86376760  0.34623386  1
  V  V4  1  0.50650448  0.13412919  0.10799913  1
  V  V5  1  0.87994947  0.49726639  0.36579024  1
  V  V6  1  0.74371226  0.62831537  0.85489361  1
  V  V7  1  0.37905308  0.77162986  0.13146759  1
  V  V8  1  0.11688414  0.11544442  0.50176794  1
  V  V9  1  -0.01480560  0.25856249  0.25708313  1
  V  V10  1  0.87958878  0.89329641  0.50472452  1
  V  V11  1  0.88286635  0.11767343  0.76359978  1
  V  V12  1  0.61837477  -0.00721921  0.12443030  1
  V  V13  1  0.25294431  0.27137578  0.50554063  1
  V  V14  1  0.88693870  0.38511656  0.50928042  1
  V  V15  1  0.72853707  0.87314125  0.61402454  1
  V  V16  1  0.86671936  -0.03071784  0.88180677  1
  V  V17  1  0.37460341  0.25463380  0.63419657  1
  V  V18  1  0.48101451  0.49337754  0.00933977  1
  V  V19  1  0.73289916  -0.00280372  0.74643421  1
  V  V20  1  -0.00457044  0.62017247  0.61320935  1
  V  V21  1  0.25792381  0.49488148  0.75229487  1
  V  V22  1  0.61787173  0.38855638  0.24536542  1
  V  V23  1  0.76318928  0.86989939  0.10773819  1
  V  V24  1  0.74968412  0.12766261  0.36352077  1
  V  V25  1  0.39329441  0.49998911  0.38636201  1
  V  V26  1  0.64028406  0.73047221  0.38283967  1
  V  V27  1  0.86708858  0.50091228  0.86213670  1
  V  V28  1  0.75256900  0.60980559  0.42664761  1
  V  V29  1  0.02327935  0.87161912  0.90990554  1
  V  V30  1  0.89120116  0.24790193  0.62267916  1
  V  V31  1  0.11801242  0.37239064  0.75018075  1
  V  V32  1  0.25077334  -0.00797563  0.26296488  1
  V  V33  1  0.63980936  0.13632972  -0.01033321  1
  V  V34  1  0.13036184  0.50784434  0.61693752  1
  V  V35  1  0.51781167  0.23345994  0.75246772  1
  V  V36  1  0.13227319  0.00667057  0.12311661  1
  V  V37  1  0.26285821  0.00137790  0.74110008  1
  V  V38  1  0.00611418  0.37448081  0.88778347  1
  V  V39  1  0.00020556  0.10399998  0.62085935  1
  V  V40  1  0.87850412  0.25141710  0.09377015  1
  V  V41  1  0.50868865  0.34860247  0.39416426  1
  V  V42  1  0.37425196  0.63291769  0.75719138  1
  V  V43  1  0.11986736  0.26936088  0.37517561  1
  V  V44  1  0.48924426  0.62411944  0.61337951  1
  V  V45  1  0.49970324  0.76423087  0.75060121  1
  V  V46  1  0.36827825  0.25384685  0.12976608  1
  V  V47  1  -0.00938995  0.75588025  0.74020628  1
  V  V48  1  0.26616264  0.86227066  0.59729153  1
  V  V49  1  0.61578653  0.50878935  0.62784040  1
  V  V50  1  0.39441823  0.12565028  0.27523392  1
  V  V51  1  0.73412965  0.24089149  0.50967063  1
  V  V52  1  0.09807500  0.87084123  0.25734944  1
  V  V53  1  0.24976408  0.12194986  0.38385444  1
  V  V54  1  0.50439271  0.38127745  0.86381890  1
  V  V55  1  0.39052592  0.62288318  0.23766746  1
  V  V56  1  0.24918797  0.48571090  0.23992238  1
  V  V57  1  -0.00392912  0.11959568  0.12873992  1
  V  V58  1  0.12152009  0.87598191  0.70678811  1
  V  V59  1  0.24142570  0.63949967  0.88231109  1
  V  V60  1  0.73932806  0.37532179  0.63895282  1
  V  V61  1  0.24481246  0.63069493  0.38048467  1
  V  V62  1  0.61607086  0.60865899  -0.00254768  1
  V  V63  1  0.38907269  0.87468503  -0.03167887  1
  Zn  Zn64  1  0.18596557  0.19003252  0.19838286  1
  Zn  Zn65  1  0.18374531  0.18930695  0.68783200  1
  Zn  Zn66  1  0.22164100  0.71387354  0.22424832  1
  Zn  Zn67  1  0.18400650  0.69382138  0.68696169  1
  Zn  Zn68  1  0.69654974  0.19373603  0.17504665  1
  Zn  Zn69  1  0.71445487  0.19829577  0.71130599  1
  Zn  Zn70  1  0.65632807  0.70186331  0.17702989  1
  Zn  Zn71  1  0.67781102  0.69203652  0.68497810  1
  Zn  Zn72  1  0.32450617  0.31115014  0.32260765  1
  Zn  Zn73  1  0.31759015  0.31666210  0.80909670  1
  Zn  Zn74  1  0.33070827  0.80902897  0.32530765  1
  Zn  Zn75  1  0.29965393  0.81366993  0.79606703  1
  Zn  Zn76  1  0.80670503  0.31551346  0.33387195  1
  Zn  Zn77  1  0.84664926  0.31442060  0.80177488  1
  Zn  Zn78  1  0.78134591  0.80657855  0.31671906  1
  Zn  Zn79  1  0.79886805  0.81098136  0.79999583  1
  Zn  Zn80  1  0.19884035  0.44867407  0.43347954  1
  Zn  Zn81  1  0.16237930  0.48588923  0.91756322  1
  Zn  Zn82  1  0.17647307  0.92809330  0.43758974  1
  Zn  Zn83  1  0.19884799  0.95954568  0.93466391  1
  Zn  Zn84  1  0.68445509  0.42894554  0.44682751  1
  Zn  Zn85  1  0.68300635  0.42970621  0.80535778  1
  Zn  Zn86  1  0.68194955  0.92493936  0.42185497  1
  Zn  Zn87  1  0.68140652  0.95098727  0.93905987  1
  Zn  Zn88  1  0.33730649  0.04316813  0.09742315  1
  Zn  Zn89  1  0.29734568  0.08143500  0.59284717  1
  Zn  Zn90  1  0.30838689  0.56076697  0.06201579  1
  Zn  Zn91  1  0.30962042  0.56813938  0.56050369  1
  Zn  Zn92  1  0.81315453  0.06099671  0.05997228  1
  Zn  Zn93  1  0.81065057  0.05656590  0.56322254  1
  Zn  Zn94  1  0.80160137  0.56477077  0.03159598  1
  Zn  Zn95  1  0.81690389  0.55894695  0.59958071  1
  Zn  Zn96  1  0.44197297  0.43359353  0.20118544  1
  Zn  Zn97  1  0.43640866  0.43360828  0.68407111  1
  Zn  Zn98  1  0.44234090  0.94721679  0.20018575  1
  Zn  Zn99  1  0.43181821  0.93653509  0.67278340  1
  Zn  Zn100  1  0.86538451  0.46011356  0.15185645  1
  Zn  Zn101  1  0.94382874  0.43975786  0.68735114  1
  Zn  Zn102  1  0.93858185  0.96183907  0.29825613  1
  Zn  Zn103  1  0.92270432  0.93070051  0.68357879  1
  Zn  Zn104  1  0.06693615  0.07550333  0.30944614  1
  Zn  Zn105  1  0.05975558  0.03949476  0.80903168  1
  Zn  Zn106  1  0.07761738  0.52506748  0.32964674  1
  Zn  Zn107  1  0.06305038  0.56114364  0.80182282  1
  Zn  Zn108  1  0.58316463  0.04505347  0.32944076  1
  Zn  Zn109  1  0.54688835  0.05824507  0.82306632  1
  Zn  Zn110  1  0.58364298  0.57207769  0.30956522  1
  Zn  Zn111  1  0.55538843  0.56163831  0.81026185  1
  Zn  Zn112  1  0.42905147  0.17537334  0.47283525  1
  Zn  Zn113  1  0.41763179  0.24177211  0.93186487  1
  Zn  Zn114  1  0.45393402  0.67778872  0.41519850  1
  Zn  Zn115  1  0.43535542  0.69095105  0.94378417  1
  Zn  Zn116  1  0.93358640  0.18185887  0.43435623  1
  Zn  Zn117  1  0.98778186  0.17487662  0.93264400  1
  Zn  Zn118  1  0.94590626  0.68279103  0.42787044  1
  Zn  Zn119  1  0.95581917  0.67424049  0.88876564  1
  Zn  Zn120  1  0.01266767  0.38144756  0.11388703  1
  Zn  Zn121  1  0.07272322  0.31798209  0.56293527  1
  Zn  Zn122  1  -0.02282604  0.89639278  0.11736506  1
  Zn  Zn123  1  0.05264836  0.79925437  0.54107267  1
  Zn  Zn124  1  0.56245818  0.31879911  0.05787469  1
  Zn  Zn125  1  0.55465468  0.31493833  0.57341554  1
  Zn  Zn126  1  0.55041308  0.81315838  0.05272209  1
  Zn  Zn127  1  0.56994571  0.79779113  0.56768260  1
  O  O128  1  0.12007291  0.11166189  0.15027941  1
  O  O129  1  0.10852403  0.12988064  0.61409043  1
  O  O130  1  0.11807351  0.67309022  0.08565134  1
  O  O131  1  0.11549673  0.61589154  0.63398387  1
  O  O132  1  0.61695925  0.12815743  0.11954999  1
  O  O133  1  0.59450532  0.09715047  0.61404389  1
  O  O134  1  0.62313481  0.63277925  0.09544183  1
  O  O135  1  0.61206272  0.61440297  0.62772419  1
  O  O136  1  0.40097312  0.38851607  0.37273598  1
  O  O137  1  0.39144144  0.34681211  0.88661633  1
  O  O138  1  0.41292876  0.87879056  0.36345180  1
  O  O139  1  0.37288827  0.86470203  0.87024267  1
  O  O140  1  0.86524742  0.38874845  0.40172928  1
  O  O141  1  0.89113407  0.39103900  0.86914622  1
  O  O142  1  0.86782472  0.84800645  0.39186812  1
  O  O143  1  0.85632130  0.86962934  0.88525272  1
  O  O144  1  0.24386323  0.01503332  0.37775870  1
  O  O145  1  0.24037501  0.00464703  0.84087391  1
  O  O146  1  0.26813018  0.50975637  0.36814048  1
  O  O147  1  0.25553675  0.51326019  0.85659308  1
  O  O148  1  0.74587302  0.00001403  0.35228829  1
  O  O149  1  0.75866046  -0.00878573  0.85868619  1
  O  O150  1  0.76340257  0.50521009  0.40204282  1
  O  O151  1  0.76023288  0.50255683  0.86033875  1
  O  O152  1  0.26165650  0.49192136  0.13874497  1
  O  O153  1  0.23948741  0.51297394  0.63688421  1
  O  O154  1  0.24340823  1.01184245  0.15345185  1
  O  O155  1  0.25681139  0.97765796  0.62169999  1
  O  O156  1  0.78175461  0.53056266  0.13393238  1
  O  O157  1  0.74390130  0.48082322  0.64009814  1
  O  O158  1  0.74234255  0.98984494  0.12744172  1
  O  O159  1  0.74617268  0.99686397  0.63835022  1
  O  O160  1  0.01239500  0.35382723  0.23356156  1
  O  O161  1  0.01340097  0.38092975  0.75937132  1
  O  O162  1  -0.00671097  0.87727014  0.23986048  1
  O  O163  1  0.01035546  0.86755206  0.72323974  1
  O  O164  1  0.51427861  0.37309579  0.27253448  1
  O  O165  1  0.48979552  0.36242350  0.75787655  1
  O  O166  1  0.52137875  0.87968179  0.24832457  1
  O  O167  1  0.49498342  0.86223712  0.73571905  1
  O  O168  1  0.49115831  0.10680217  0.28988184  1
  O  O169  1  0.49898212  0.13403762  0.74897969  1
  O  O170  1  0.48916018  0.61299698  0.24854041  1
  O  O171  1  0.48292121  0.62656311  0.74480509  1
  O  O172  1  1.00434587  0.14427068  0.24382982  1
  O  O173  1  0.98943551  0.11137424  0.73167809  1
  O  O174  1  1.01265792  0.62521239  0.24253354  1
  O  O175  1  1.00425925  0.65575912  0.77492646  1
  O  O176  1  0.36880569  0.23362843  0.03009364  1
  O  O177  1  0.35321055  0.26606403  0.48981280  1
  O  O178  1  0.37635119  0.77373913  0.00497227  1
  O  O179  1  0.40734958  0.77609793  0.49038626  1
  O  O180  1  0.89747380  0.23476489  -0.00272583  1
  O  O181  1  0.87227935  0.25655752  0.51536947  1
  O  O182  1  0.91255049  0.72093356  0.07836129  1
  O  O183  1  0.87217741  0.78661697  0.45011504  1
  O  O184  1  0.13171551  0.24580104  0.49468172  1
  O  O185  1  0.17002697  0.27817512  1.00968300  1
  O  O186  1  0.03878308  0.74434208  0.44424034  1
  O  O187  1  0.12496689  0.72442430  1.03562636  1
  O  O188  1  0.63584743  0.24980525  0.52095128  1
  O  O189  1  0.62121575  0.23702328  1.00307452  1
  O  O190  1  0.62262185  0.74529081  0.48276696  1
  O  O191  1  0.60464297  0.73962829  0.97759603  1
  O  O192  1  0.49730401  0.23509177  0.12999528  1
  O  O193  1  0.48860512  0.25301854  0.64243824  1
  O  O194  1  0.48059319  0.74819144  0.11527239  1
  O  O195  1  0.50952052  0.73150057  0.64076399  1
  O  O196  1  0.98257832  0.23905593  0.14282651  1
  O  O197  1  0.99172042  0.24896526  0.62535240  1
  O  O198  1  0.97345714  0.73870067  0.12058903  1
  O  O199  1  1.00980588  0.73177403  0.63378624  1
  O  O200  1  0.01086837  0.24764700  0.37194500  1
  O  O201  1  -0.00170500  0.27581250  0.87628414  1
  O  O202  1  -0.00198933  0.68596810  0.28102270  1
  O  O203  1  -0.00600243  0.78073637  0.86261520  1
  O  O204  1  0.49542391  0.24850638  0.40299052  1
  O  O205  1  0.50407824  0.24932011  0.85770845  1
  O  O206  1  0.52366154  0.75872803  0.36802842  1
  O  O207  1  0.50355491  0.74981726  0.85978478  1
  O  O208  1  0.23609496  0.13144687  0.49647457  1
  O  O209  1  0.26346249  0.16783255  0.89607794  1
  O  O210  1  0.26366025  0.63520850  0.48052572  1
  O  O211  1  0.26059621  0.62466862  0.98077168  1
  O  O212  1  0.74734048  0.14093254  0.52252274  1
  O  O213  1  0.73980347  0.12634725  1.00108475  1
  O  O214  1  0.76202006  0.62558592  0.52488872  1
  O  O215  1  0.72628679  0.61994747  0.97092788  1
  O  O216  1  0.17073990  0.34398734  0.04577967  1
  O  O217  1  0.23871311  0.36958424  0.50714336  1
  O  O218  1  0.28786939  0.91753739  0.00698703  1
  O  O219  1  0.25370791  0.87240246  0.49537241  1
  O  O220  1  0.74917213  0.30696817  -0.04983825  1
  O  O221  1  0.75878505  0.36148462  0.52245767  1
  O  O222  1  0.73816900  0.88000469  0.01102424  1
  O  O223  1  0.74698407  0.88875904  0.50821492  1
  O  O224  1  0.14683820  0.49279578  0.25053167  1
  O  O225  1  0.13973576  0.49445259  0.74384464  1
  O  O226  1  0.13990844  0.99363991  0.25924149  1
  O  O227  1  0.12118343  0.97707046  0.73800684  1
  O  O228  1  0.63987484  0.48664191  0.25912259  1
  O  O229  1  0.61928823  0.49653638  0.73702611  1
  O  O230  1  0.64265474  1.01085396  0.23106542  1
  O  O231  1  0.63544074  1.01132986  0.75733732  1
  O  O232  1  0.36245933  0.01757836  0.25482006  1
  O  O233  1  0.36435680  -0.00634052  0.74280135  1
  O  O234  1  0.37426156  0.50753251  0.26031068  1
  O  O235  1  0.36233013  0.50995405  0.73897571  1
  O  O236  1  0.85830324  0.01278826  0.23776252  1
  O  O237  1  0.87265634  0.00290097  0.76237098  1
  O  O238  1  0.86624385  0.48071543  0.26974974  1
  O  O239  1  0.88989647  0.50724901  0.76330834  1
  O  O240  1  0.12391304  0.36900846  0.38642780  1
  O  O241  1  0.11669648  0.39081317  0.86383176  1
  O  O242  1  0.11086106  0.88060205  0.35814018  1
  O  O243  1  0.12246078  0.88191158  0.89610574  1
  O  O244  1  0.61484280  0.37168526  0.37648858  1
  O  O245  1  0.60676140  0.37129284  0.86677248  1
  O  O246  1  0.66751299  0.82775808  0.35177327  1
  O  O247  1  0.62771588  0.86313241  0.87932272  1
  O  O248  1  0.39696498  0.12506440  0.14989291  1
  O  O249  1  0.38697819  0.15226404  0.58322768  1
  O  O250  1  0.37578665  0.62202259  0.13649152  1
  O  O251  1  0.38516378  0.62255349  0.63229009  1
  O  O252  1  0.88963526  0.12636913  0.11837441  1
  O  O253  1  0.88938700  0.13204338  0.61883476  1
  O  O254  1  0.87596117  0.65417679  0.09638753  1
  O  O255  1  0.89936913  0.61837442  0.64616582  1
  O  O256  1  0.26874094  0.24217574  0.14744047  1
  O  O257  1  0.25722221  0.24543855  0.61073145  1
  O  O258  1  0.27741705  0.74531282  0.12800265  1
  O  O259  1  0.24283624  0.76268638  0.61837760  1
  O  O260  1  0.77921571  0.24148476  0.11461231  1
  O  O261  1  0.76278572  0.25685851  0.62423967  1
  O  O262  1  0.73171985  0.77496657  0.13495382  1
  O  O263  1  0.73368483  0.77205948  0.62817015  1
  O  O264  1  0.23959238  0.24681139  0.38752359  1
  O  O265  1  0.23644817  0.23097995  0.85870144  1
  O  O266  1  0.25018008  0.73264887  0.34818023  1
  O  O267  1  0.24565287  0.73890628  0.86525138  1
  O  O268  1  0.74888630  0.23924680  0.40028695  1
  O  O269  1  0.76420700  0.26094491  0.89572181  1
  O  O270  1  0.75186366  0.70914672  0.37811192  1
  O  O271  1  0.72981408  0.73924354  0.86013321  1
  O  O272  1  0.02500276  0.13893298  0.03502298  1
  O  O273  1  0.00896651  0.13087693  0.50772155  1
  O  O274  1  -0.00767287  0.62529933  -0.01517418  1
  O  O275  1  -0.01060290  0.61546871  0.51500358  1
  O  O276  1  0.50086769  0.12661133  0.01045993  1
  O  O277  1  0.48139321  0.06062175  0.47224726  1
  O  O278  1  0.50249786  0.60675261  -0.01796341  1
  O  O279  1  0.49235856  0.63539647  0.51522071  1
  O  O280  1  0.50815371  0.37819830  0.49141625  1
  O  O281  1  0.50208876  0.38599039  0.98601466  1
  O  O282  1  0.45982704  0.82808648  0.50393693  1
  O  O283  1  0.48715701  0.88948399  0.99078476  1
  O  O284  1  0.98591918  0.37209925  0.50999254  1
  O  O285  1  1.00898884  0.38865389  0.98825416  1
  O  O286  1  0.97937796  0.88500483  0.51318242  1
  O  O287  1  1.00443038  0.86903952  1.00759633  1
  O  O288  1  0.49265980  0.51979602  0.37782830  1
  O  O289  1  0.49032439  0.48388153  0.86694230  1
  O  O290  1  0.56812476  0.94392800  0.39330364  1
  O  O291  1  0.46787526  0.99942696  0.87449578  1
  O  O292  1  0.98102861  0.50224641  0.37669186  1
  O  O293  1  0.99625559  0.50148277  0.88114643  1
  O  O294  1  0.99599576  1.01653618  0.37294462  1
  O  O295  1  0.98208418  0.96255268  0.86755065  1
  O  O296  1  0.01299062  0.01150848  0.13247159  1
  O  O297  1  -0.00847811  0.00697851  0.61673319  1
  O  O298  1  -0.02614356  0.49881774  0.10086983  1
  O  O299  1  0.01692065  0.51278293  0.63753212  1
  O  O300  1  0.51254333  0.01990440  0.13895329  1
  O  O301  1  0.49074071  -0.01838385  0.57839701  1
  O  O302  1  0.48819893  0.49120128  0.10889487  1
  O  O303  1  0.50519654  0.51014006  0.62686044  1
  O  O304  1  0.26582500  0.38718314  0.26358234  1
  O  O305  1  0.24521341  0.38967622  0.75598454  1
  O  O306  1  0.26229066  0.89356229  0.27278165  1
  O  O307  1  0.23708690  0.88116816  0.72663814  1
  O  O308  1  0.72717853  0.34257573  0.25121982  1
  O  O309  1  0.75489722  0.35794888  0.74453983  1
  O  O310  1  0.76191603  0.88727454  0.23662347  1
  O  O311  1  0.74547709  0.88868641  0.73364541  1
  O  O312  1  0.25247936  0.12212308  0.27611540  1
  O  O313  1  0.24921064  0.10121406  0.70926210  1
  O  O314  1  0.26521356  0.60962571  0.25600068  1
  O  O315  1  0.26134086  0.62490855  0.75166303  1
  O  O316  1  0.74749919  0.12974118  0.26093114  1
  O  O317  1  0.77164951  0.10916038  0.74670249  1
  O  O318  1  0.83454003  0.66392896  0.22261886  1
  O  O319  1  0.73814477  0.62212245  0.75403589  1
  O  O320  1  0.35934082  0.13023618  0.38192648  1
  O  O321  1  0.33890340  0.15052545  0.88661369  1
  O  O322  1  0.37310790  0.61935006  0.36311810  1
  O  O323  1  0.36790287  0.63065401  0.86014997  1
  O  O324  1  0.84843687  0.12034725  0.39347920  1
  O  O325  1  0.89364191  0.12496535  0.86104956  1
  O  O326  1  0.86557967  0.60735781  0.39030074  1
  O  O327  1  0.85155927  0.62325589  0.87096940  1
  O  O328  1  0.13005562  0.34907575  0.11505085  1
  O  O329  1  0.11803126  0.39318778  0.63942434  1
  O  O330  1  0.11969285  0.90335497  0.14710907  1
  O  O331  1  0.12572988  0.86897314  0.60485831  1
  O  O332  1  0.60807161  0.37667240  0.14514405  1
  O  O333  1  0.63717516  0.37369548  0.63533180  1
  O  O334  1  0.61467985  0.89220895  0.11576368  1
  O  O335  1  0.62648923  0.88631463  0.61060971  1
  O  O336  1  0.12676867  0.25210195  0.27429488  1
  O  O337  1  0.13384376  0.27322948  0.74300400  1
  O  O338  1  0.12553756  0.77596248  0.23601750  1
  O  O339  1  0.11759944  0.77550564  0.74516237  1
  O  O340  1  0.66855091  0.27980825  0.25583393  1
  O  O341  1  0.61805184  0.24055365  0.74210533  1
  O  O342  1  0.62780192  0.68297611  0.28125654  1
  O  O343  1  0.60698092  0.74820056  0.76009921  1
  O  O344  1  0.38236998  0.22830117  0.25801820  1
  O  O345  1  0.36202669  0.23857792  0.73339686  1
  O  O346  1  0.38126424  0.73738299  0.24201140  1
  O  O347  1  0.38378597  0.73999768  0.74687584  1
  O  O348  1  0.88553462  0.26084066  0.27238577  1
  O  O349  1  0.87370702  0.22776865  0.73551006  1
  O  O350  1  0.86116730  0.72850453  0.24640078  1
  O  O351  1  0.89079211  0.76767482  0.74338557  1
  O  O352  1  0.37275937  0.50541852  0.48521733  1
  O  O353  1  0.38194980  0.50073004  0.99415199  1
  O  O354  1  0.44409347  1.00944754  0.52004357  1
  O  O355  1  0.34664515  0.98227875  0.99947895  1
  O  O356  1  0.87560091  0.48329957  0.52722391  1
  O  O357  1  0.88355177  0.50809951  0.97294872  1
  O  O358  1  0.86687986  0.99266638  0.48817758  1
  O  O359  1  0.86826596  1.00272157  0.97619088  1
  O  O360  1  0.14720799  0.00877580  0.02443667  1
  O  O361  1  0.12428031  0.01740450  0.49498741  1
  O  O362  1  0.10262322  0.51224990  0.00723561  1
  O  O363  1  0.13334568  0.49876716  0.51786610  1
  O  O364  1  0.62673437  0.01743762  0.01890492  1
  O  O365  1  0.60425316  0.08428843  0.54385703  1
  O  O366  1  0.60895011  0.50856007  -0.00368984  1
  O  O367  1  0.63261415  0.48918855  0.53047038  1
  O  O368  1  0.38828116  0.35133232  0.14177824  1
  O  O369  1  0.37613030  0.35665983  0.62267230  1
  O  O370  1  0.37865644  0.87407191  0.13926730  1
  O  O371  1  0.36553496  0.86200697  0.61611421  1
  O  O372  1  0.89301426  0.35561195  0.11251131  1
  O  O373  1  0.87409349  0.36200226  0.62986862  1
  O  O374  1  0.86344590  0.87435491  0.11053956  1
  O  O375  1  0.85397896  0.87941622  0.60870444  1
  O  O376  1  0.13324289  0.13724562  0.38871458  1
  O  O377  1  0.07394153  0.11868060  0.88277978  1
  O  O378  1  0.14480684  0.60855966  0.37458505  1
  O  O379  1  0.14178937  0.61373969  0.87277691  1
  O  O380  1  0.65141331  0.11063799  0.39417833  1
  O  O381  1  0.62086464  0.11368528  0.89285192  1
  O  O382  1  0.64724899  0.60988546  0.40833905  1
  O  O383  1  0.62700902  0.62766173  0.87200460  1
