# generated using pymatgen
data_VZnO4
_symmetry_space_group_name_H-M   'P 1'
_cell_length_a   16.92454949
_cell_length_b   16.87904413
_cell_length_c   16.89224516
_cell_angle_alpha   89.59587084
_cell_angle_beta   89.99077017
_cell_angle_gamma   89.91949432
_symmetry_Int_Tables_number   1
_chemical_formula_structural   VZnO4
_chemical_formula_sum   'V64 Zn64 O256'
_cell_volume   4825.48649670
_cell_formula_units_Z   64
loop_
 _symmetry_equiv_pos_site_id
 _symmetry_equiv_pos_as_xyz
  1  'x, y, z'
loop_
 _atom_site_type_symbol
 _atom_site_label
 _atom_site_symmetry_multiplicity
 _atom_site_fract_x
 _atom_site_fract_y
 _atom_site_fract_z
 _atom_site_occupancy
  V  V0  1  0.50367508  0.50578565  0.49255645  1
  V  V1  1  0.74736726  0.52780630  0.75235411  1
  V  V2  1  0.02035868  0.12642361  0.61818436  1
  V  V3  1  0.12906900  0.76041185  0.87794822  1
  V  V4  1  0.50330606  0.25424041  0.25734174  1
  V  V5  1  0.48784889  -0.00321865  0.00017336  1
  V  V6  1  0.00017276  0.00342405  0.49824214  1
  V  V7  1  0.49948412  0.13026976  0.13375966  1
  V  V8  1  0.50127928  0.87641668  0.86351496  1
  V  V9  1  0.25652291  0.37700925  0.59322204  1
  V  V10  1  0.73563242  0.37280957  0.63715875  1
  V  V11  1  0.37450390  -0.01242188  0.38770550  1
  V  V12  1  0.62981255  0.12691438  -0.00747055  1
  V  V13  1  0.87003355  0.24165412  0.63622690  1
  V  V14  1  0.73852740  0.74598205  -0.02436989  1
  V  V15  1  0.26390017  0.87128444  0.11586787  1
  V  V16  1  -0.00503708  0.87937308  0.36928512  1
  V  V17  1  0.50298407  0.12854277  0.61965970  1
  V  V18  1  0.36835455  0.74199435  0.63995909  1
  V  V19  1  0.87701808  0.74446200  0.12161925  1
  V  V20  1  0.63493552  -0.00945680  0.63804153  1
  V  V21  1  0.75383060  0.63578417  0.40523918  1
  V  V22  1  0.25813931  0.60958021  0.86374865  1
  V  V23  1  0.50326189  -0.00610331  0.50371723  1
  V  V24  1  0.25171076  0.73872109  0.49992295  1
  V  V25  1  0.74258005  0.11111527  0.85600616  1
  V  V26  1  0.37140521  0.37572970  -0.01250860  1
  V  V27  1  0.26686175  0.00205477  0.24989806  1
  V  V28  1  0.62082237  0.52083394  0.11389143  1
  V  V29  1  0.25505082  0.14278332  0.85992084  1
  V  V30  1  0.87679958  0.49603267  0.36071324  1
  V  V31  1  0.74677665  0.23030769  0.49541768  1
  V  V32  1  -0.02877206  0.37125968  0.88058621  1
  V  V33  1  0.37485628  0.24970905  0.60462776  1
  V  V34  1  0.62982193  0.21967536  0.37476972  1
  V  V35  1  0.91057831  0.71013236  0.60128518  1
  V  V36  1  0.35988833  0.25785753  0.12891953  1
  V  V37  1  0.86996410  0.37821325  0.50124688  1
  V  V38  1  0.12980021  0.89613082  0.74940353  1
  V  V39  1  0.00966611  0.72752560  0.23974497  1
  V  V40  1  0.74297857  0.86596111  0.13654097  1
  V  V41  1  0.63632668  0.40267591  0.25682634  1
  V  V42  1  0.28076568  0.49190426  0.74060787  1
  V  V43  1  0.85100555  0.62127614  0.24098897  1
  V  V44  1  0.88305509  0.88555919  -0.01074658  1
  V  V45  1  0.79143100  0.86011995  0.62460090  1
  V  V46  1  0.13209206  0.86695275  0.24840110  1
  V  V47  1  0.00040695  0.74721547  0.75613717  1
  V  V48  1  0.88017259  0.09993884  0.74313618  1
  V  V49  1  0.74567642  0.37039653  0.11252334  1
  V  V50  1  0.11982366  -0.00147593  0.12349407  1
  V  V51  1  0.14808469  0.13280671  0.01255522  1
  V  V52  1  0.36435346  0.00768802  0.85830546  1
  V  V53  1  0.50016929  0.51224557  -0.01499430  1
  V  V54  1  0.12535572  0.73325061  0.38396853  1
  V  V55  1  0.24600208  0.89491508  0.61836185  1
  V  V56  1  0.25417066  0.14291953  0.38114784  1
  V  V57  1  0.01381421  0.50996845  0.00580671  1
  V  V58  1  0.62699072  -0.00997367  0.13189611  1
  V  V59  1  0.49275181  0.76530205  0.27931802  1
  V  V60  1  0.87126339  0.53186203  0.87663565  1
  V  V61  1  0.39078396  0.73957554  0.12477029  1
  V  V62  1  0.25741916  0.73901261  -0.00524319  1
  V  V63  1  0.50335750  0.25176378  0.76345469  1
  Zn  Zn64  1  0.17219529  0.18092487  0.21052243  1
  Zn  Zn65  1  0.19263654  0.20298050  0.68416966  1
  Zn  Zn66  1  0.20474557  0.68215877  0.19107927  1
  Zn  Zn67  1  0.19643649  0.69340632  0.69916401  1
  Zn  Zn68  1  0.67515707  0.19269796  0.17571397  1
  Zn  Zn69  1  0.67920159  0.18031522  0.67993298  1
  Zn  Zn70  1  0.67161822  0.70057234  0.18973671  1
  Zn  Zn71  1  0.78524858  0.73781765  0.76653454  1
  Zn  Zn72  1  0.29794881  0.30886944  0.28467238  1
  Zn  Zn73  1  0.32651600  0.31361132  0.79975223  1
  Zn  Zn74  1  0.31426613  0.80699530  0.31594176  1
  Zn  Zn75  1  0.31378691  0.82854768  0.80982823  1
  Zn  Zn76  1  0.79904474  0.31641302  0.31380397  1
  Zn  Zn77  1  0.68865176  0.29473392  0.82100675  1
  Zn  Zn78  1  0.77343872  0.84979782  0.35087819  1
  Zn  Zn79  1  0.80238450  0.92656046  0.80728311  1
  Zn  Zn80  1  0.05984549  0.40496465  0.53582573  1
  Zn  Zn81  1  0.18608585  0.42608809  0.93303448  1
  Zn  Zn82  1  0.18167734  0.93572120  0.43924947  1
  Zn  Zn83  1  0.19119525  0.94424090  0.93825493  1
  Zn  Zn84  1  0.69855131  0.43880948  0.43602980  1
  Zn  Zn85  1  0.70005347  0.45482979  0.93795103  1
  Zn  Zn86  1  0.68645274  0.92809023  0.47505472  1
  Zn  Zn87  1  0.68310973  0.93230026  0.94529338  1
  Zn  Zn88  1  0.31671675  0.06676296  0.07611408  1
  Zn  Zn89  1  0.30892686  0.07797943  0.55726785  1
  Zn  Zn90  1  0.32492096  0.56263039  0.06057618  1
  Zn  Zn91  1  0.31587309  0.56525498  0.55735686  1
  Zn  Zn92  1  0.80278208  0.05394413  0.05947423  1
  Zn  Zn93  1  0.81676053  0.04926650  0.55379747  1
  Zn  Zn94  1  0.80046065  0.56233465  0.05634839  1
  Zn  Zn95  1  0.81606613  0.55571861  0.57439690  1
  Zn  Zn96  1  0.49872318  0.38790337  0.12888677  1
  Zn  Zn97  1  0.44272032  0.42091414  0.68173813  1
  Zn  Zn98  1  0.44626981  0.92813294  0.19063323  1
  Zn  Zn99  1  0.41854753  0.94421583  0.68246747  1
  Zn  Zn100  1  0.93221917  0.44001898  0.16312054  1
  Zn  Zn101  1  0.92588493  0.44069882  0.69849239  1
  Zn  Zn102  1  0.94484746  0.91968356  0.17627329  1
  Zn  Zn103  1  0.96136219  0.93678543  0.68732501  1
  Zn  Zn104  1  0.09220064  0.04917521  0.33919157  1
  Zn  Zn105  1  0.09951143  0.24573502  0.85141642  1
  Zn  Zn106  1  0.06305396  0.54990500  0.32456423  1
  Zn  Zn107  1  0.05106893  0.58917328  0.86055963  1
  Zn  Zn108  1  0.56225964  0.04825024  0.31585340  1
  Zn  Zn109  1  0.55316934  0.06559181  0.80712442  1
  Zn  Zn110  1  0.57497764  0.59450762  0.31266515  1
  Zn  Zn111  1  0.56867208  0.43817851  0.80979442  1
  Zn  Zn112  1  0.43322484  0.17436061  0.43010923  1
  Zn  Zn113  1  0.43246374  0.18737606  0.94702433  1
  Zn  Zn114  1  0.46260838  0.78597704  0.48824686  1
  Zn  Zn115  1  0.43510818  0.69138312  0.92947054  1
  Zn  Zn116  1  0.96905318  0.22708669  0.46479222  1
  Zn  Zn117  1  0.87177468  0.24128787  0.86533201  1
  Zn  Zn118  1  0.89860200  0.73123162  0.39311554  1
  Zn  Zn119  1  0.93803081  0.69903658  0.94268332  1
  Zn  Zn120  1  0.06084227  0.31303727  0.00520121  1
  Zn  Zn121  1  0.07670169  0.35357122  0.69797810  1
  Zn  Zn122  1  0.06559559  0.81165079  0.05890588  1
  Zn  Zn123  1  0.06685956  0.81892502  0.56308779  1
  Zn  Zn124  1  0.59159368  0.33404575  -0.02219303  1
  Zn  Zn125  1  0.56097419  0.31342240  0.54778092  1
  Zn  Zn126  1  0.56172767  0.81177597  0.04661152  1
  Zn  Zn127  1  0.54097247  0.81877274  0.67669384  1
  O  O128  1  0.13303371  0.10369247  0.13071228  1
  O  O129  1  0.11716586  0.13769664  0.62235671  1
  O  O130  1  0.23160276  0.56695989  0.13669061  1
  O  O131  1  0.12135091  0.59381779  0.66143010  1
  O  O132  1  0.61944927  0.11009085  0.11556562  1
  O  O133  1  0.60935013  0.11018553  0.61938360  1
  O  O134  1  0.62748297  0.61962579  0.12262413  1
  O  O135  1  0.63754295  0.64939762  0.62288925  1
  O  O136  1  0.35443708  0.40507482  0.33940198  1
  O  O137  1  0.38234848  0.36700938  0.88926463  1
  O  O138  1  0.36586442  0.88705296  0.38167880  1
  O  O139  1  0.37826260  0.90111087  0.87309512  1
  O  O140  1  0.85925800  0.38935296  0.38330820  1
  O  O141  1  0.87098606  0.36721505  0.88094895  1
  O  O142  1  0.89654972  0.85424793  0.36423471  1
  O  O143  1  0.87314747  0.88544236  0.88951153  1
  O  O144  1  0.25531274  -0.00094509  0.36141807  1
  O  O145  1  0.26070193  0.01602820  0.88195502  1
  O  O146  1  0.17426828  0.42639643  0.29357721  1
  O  O147  1  0.24616690  0.50529962  0.86229513  1
  O  O148  1  0.72283282  -0.05601541  0.37459808  1
  O  O149  1  0.74749450  0.00454267  0.87423715  1
  O  O150  1  0.77150675  0.51925180  0.39220444  1
  O  O151  1  0.76110219  0.51804507  0.86689665  1
  O  O152  1  0.26013329  0.54125738  0.21176616  1
  O  O153  1  0.26855673  0.48751396  0.63009887  1
  O  O154  1  0.25580857  0.98220822  0.13366933  1
  O  O155  1  0.24984674  0.99428940  0.61060452  1
  O  O156  1  0.72808555  0.49397500  0.11358253  1
  O  O157  1  0.75831010  0.48355917  0.64488906  1
  O  O158  1  0.73507694  0.98193736  0.12366625  1
  O  O159  1  0.73980287  0.98575106  0.61747013  1
  O  O160  1  -0.01366552  0.35332966  0.22692264  1
  O  O161  1  -0.00776869  0.37651460  0.77917342  1
  O  O162  1  0.01426962  0.85861576  0.24970345  1
  O  O163  1  0.02237791  0.86530696  0.75059931  1
  O  O164  1  0.52258518  0.35639727  0.24766651  1
  O  O165  1  0.51157419  0.36135992  0.74767951  1
  O  O166  1  0.51260963  0.86166032  0.25699079  1
  O  O167  1  0.48783963  0.88317607  0.75748559  1
  O  O168  1  0.50759316  0.12476499  0.23793183  1
  O  O169  1  0.49870428  0.13647608  0.73106219  1
  O  O170  1  0.44439541  0.60648873  0.27905016  1
  O  O171  1  0.58761094  0.61926161  0.66615127  1
  O  O172  1  0.94724164  0.08111860  0.23783730  1
  O  O173  1  0.98210472  0.11132967  0.72388204  1
  O  O174  1  1.01425863  0.62661203  0.24662636  1
  O  O175  1  1.01522444  0.64704033  0.76556751  1
  O  O176  1  0.37760645  0.26139133  0.01926797  1
  O  O177  1  0.38612966  0.25100250  0.50448904  1
  O  O178  1  0.36342698  0.74983671  0.01131288  1
  O  O179  1  0.35152089  0.75437991  0.50111631  1
  O  O180  1  0.87578665  0.22642553  0.03491487  1
  O  O181  1  0.85488067  0.24797007  0.50441992  1
  O  O182  1  0.86781804  0.75901418  0.00953781  1
  O  O183  1  0.92349459  0.72327298  0.50352147  1
  O  O184  1  0.12229540  0.30321162  0.41940745  1
  O  O185  1  0.11029331  0.22253120  1.04289800  1
  O  O186  1  0.12284723  0.74823879  0.48736909  1
  O  O187  1  0.14282711  0.75867930  0.98998886  1
  O  O188  1  0.63268575  0.24922693  0.48198416  1
  O  O189  1  0.61707712  0.22523051  1.00087106  1
  O  O190  1  0.59740247  0.75517084  0.49074688  1
  O  O191  1  0.63826633  0.75799374  0.98764181  1
  O  O192  1  0.51413226  0.23599137  0.14026246  1
  O  O193  1  0.49911773  0.23980754  0.61441987  1
  O  O194  1  0.48916801  0.75769396  0.11619890  1
  O  O195  1  0.46998112  0.76351912  0.60900575  1
  O  O196  1  0.92813649  0.24490628  0.08205846  1
  O  O197  1  0.97452871  0.22925673  0.61611564  1
  O  O198  1  0.98975377  0.75073254  0.12851690  1
  O  O199  1  1.00282358  0.75238563  0.64034400  1
  O  O200  1  0.06261496  0.25901126  0.39325339  1
  O  O201  1  -0.01596489  0.26171029  0.89520640  1
  O  O202  1  0.01608421  0.75268889  0.35834260  1
  O  O203  1  0.02433827  0.75545445  0.87640515  1
  O  O204  1  0.51320747  0.23380450  0.36439681  1
  O  O205  1  0.49488466  0.23930350  0.86294370  1
  O  O206  1  0.47614780  0.75530582  0.37756288  1
  O  O207  1  0.48733804  0.77784616  0.88121272  1
  O  O208  1  0.23761880  0.12687129  0.47885648  1
  O  O209  1  0.24882134  0.13758635  1.01752249  1
  O  O210  1  0.24495250  0.63794604  0.50333489  1
  O  O211  1  0.25365182  0.63506636  0.99081850  1
  O  O212  1  0.74816895  0.13181863  0.50341872  1
  O  O213  1  0.73381780  0.11378901  0.99274590  1
  O  O214  1  0.76512956  0.63147324  0.50554952  1
  O  O215  1  0.75309813  0.64749160  0.99533665  1
  O  O216  1  0.27180812  0.38733135  0.00093163  1
  O  O217  1  0.26621928  0.39062839  0.49870524  1
  O  O218  1  0.25131249  0.87008642  0.01374175  1
  O  O219  1  0.22994254  0.86503311  0.51404850  1
  O  O220  1  0.71511069  0.36886884  0.01369667  1
  O  O221  1  0.75645773  0.36572977  0.50789076  1
  O  O222  1  0.76013503  0.86485435  0.00722615  1
  O  O223  1  0.74157214  0.85001982  0.53718669  1
  O  O224  1  0.11377841  0.46676105  0.25920396  1
  O  O225  1  0.12202073  0.53242719  0.70370671  1
  O  O226  1  0.14309306  0.98508839  0.24100663  1
  O  O227  1  0.11946489  0.99122636  0.75720282  1
  O  O228  1  0.61798496  0.50524951  0.24857019  1
  O  O229  1  0.64930699  0.50438968  0.75968830  1
  O  O230  1  0.61584243  0.99651395  0.23063630  1
  O  O231  1  0.62202942  1.00568293  0.73641459  1
  O  O232  1  0.37005616  -0.01610377  0.25931060  1
  O  O233  1  0.37006671  0.01549791  0.75967209  1
  O  O234  1  0.38385055  0.44980993  0.28736220  1
  O  O235  1  0.37931285  0.49361487  0.74708645  1
  O  O236  1  0.90095441  0.02318918  0.23492389  1
  O  O237  1  0.87510241  -0.00293210  0.74159478  1
  O  O238  1  0.87712433  0.50884970  0.25200459  1
  O  O239  1  0.85947166  0.49890767  0.76649277  1
  O  O240  1  0.10876401  0.38121777  0.42863344  1
  O  O241  1  0.10835103  0.34953880  0.90376467  1
  O  O242  1  0.11898884  0.86448297  0.36037194  1
  O  O243  1  0.14302472  0.86917740  0.86579290  1
  O  O244  1  0.63670407  0.37827090  0.35828866  1
  O  O245  1  0.63534893  0.37501287  0.87952763  1
  O  O246  1  0.62659226  0.79526970  0.43610507  1
  O  O247  1  0.60056209  0.89218712  0.87279965  1
  O  O248  1  0.39367422  0.14202954  0.12241696  1
  O  O249  1  0.38165903  0.14009756  0.62090046  1
  O  O250  1  0.38023504  0.64027641  0.12777630  1
  O  O251  1  0.36624890  0.64189788  0.62644228  1
  O  O252  1  0.82419095  0.12938642  0.15399299  1
  O  O253  1  0.85644875  0.12698780  0.63394880  1
  O  O254  1  0.86355926  0.63012135  0.13240100  1
  O  O255  1  0.90415295  0.61227489  0.62346933  1
  O  O256  1  0.26337929  0.25000697  0.16002052  1
  O  O257  1  0.26702041  0.25949985  0.61561524  1
  O  O258  1  0.25694312  0.75385625  0.11623875  1
  O  O259  1  0.24996230  0.75218661  0.61555397  1
  O  O260  1  0.74234809  0.27018186  0.13384969  1
  O  O261  1  0.74889549  0.25038003  0.61336492  1
  O  O262  1  0.75096412  0.75613084  0.12035681  1
  O  O263  1  0.81834092  0.75173168  0.63247289  1
  O  O264  1  0.27051711  0.24214629  0.37089299  1
  O  O265  1  0.26488124  0.24294347  0.86825035  1
  O  O266  1  0.23513306  0.75367714  0.38487669  1
  O  O267  1  0.25447716  0.75632195  0.88784932  1
  O  O268  1  0.74035864  0.24221340  0.38265554  1
  O  O269  1  0.75716089  0.21827543  0.87423695  1
  O  O270  1  0.77965436  0.73773723  0.38033681  1
  O  O271  1  0.75514284  0.75775095  0.87660001  1
  O  O272  1  0.01106204  0.10418730  -0.01477038  1
  O  O273  1  0.00041230  0.12324078  0.51025015  1
  O  O274  1  0.00836692  0.61330483  -0.02676186  1
  O  O275  1  0.05571421  0.58503025  0.52470897  1
  O  O276  1  0.50760638  0.11563782  0.01008538  1
  O  O277  1  0.49255596  0.11374585  0.51077783  1
  O  O278  1  0.48704062  0.61241632  -0.00790483  1
  O  O279  1  0.52044246  0.60268958  0.51841364  1
  O  O280  1  0.50196983  0.39709515  0.48377190  1
  O  O281  1  0.49433180  0.38294042  1.01087406  1
  O  O282  1  0.49130841  0.89517766  0.50387678  1
  O  O283  1  0.49746089  0.89353073  0.99149259  1
  O  O284  1  0.96806981  0.34347463  0.49398359  1
  O  O285  1  0.98672925  0.39842590  0.99419652  1
  O  O286  1  1.01125615  0.88915512  0.48100481  1
  O  O287  1  0.98284309  0.86744547  1.00614002  1
  O  O288  1  0.50859377  0.52202443  0.39028653  1
  O  O289  1  0.50495300  0.49671689  0.88622700  1
  O  O290  1  0.48459390  1.00697758  0.38868217  1
  O  O291  1  0.48384779  1.00693253  0.88463171  1
  O  O292  1  0.97538120  0.50338062  0.38253665  1
  O  O293  1  0.98104656  0.49416680  0.87793738  1
  O  O294  1  0.99650259  0.97989592  0.35183149  1
  O  O295  1  1.00033413  1.05539461  0.93179084  1
  O  O296  1  0.02162416  -0.01108498  0.12604623  1
  O  O297  1  0.01123624  0.00966360  0.60487996  1
  O  O298  1  -0.00307300  0.51266803  0.10604366  1
  O  O299  1  0.01704607  0.43120667  0.63649620  1
  O  O300  1  0.50357089  0.00435697  0.11900700  1
  O  O301  1  0.49065733  0.01086245  0.61780297  1
  O  O302  1  0.51577444  0.50390101  0.11807013  1
  O  O303  1  0.49168992  0.48310439  0.59604208  1
  O  O304  1  0.20875884  0.37618692  0.24227929  1
  O  O305  1  0.25393561  0.39285893  0.75145407  1
  O  O306  1  0.24611369  0.86939591  0.23898407  1
  O  O307  1  0.23952631  0.88060276  0.73547563  1
  O  O308  1  0.74019878  0.38377555  0.24166921  1
  O  O309  1  0.74401026  0.35569604  0.73597171  1
  O  O310  1  0.74185897  0.85793685  0.23471606  1
  O  O311  1  0.76074676  0.85539922  0.72809045  1
  O  O312  1  0.26872831  0.09972437  0.23237151  1
  O  O313  1  0.24221560  0.13116321  0.76229866  1
  O  O314  1  0.24041109  0.59551786  0.26621269  1
  O  O315  1  0.25331852  0.60656939  0.75442446  1
  O  O316  1  0.77579294  0.12362091  0.21271529  1
  O  O317  1  0.74712806  0.11381997  0.75257786  1
  O  O318  1  0.75314788  0.63113376  0.24864735  1
  O  O319  1  0.75345623  0.62697752  0.73917173  1
  O  O320  1  0.35823706  0.10840140  0.37085916  1
  O  O321  1  0.36260467  0.11943735  0.88426362  1
  O  O322  1  0.38698007  0.60564308  0.32472788  1
  O  O323  1  0.35558501  0.62963328  0.87364028  1
  O  O324  1  0.91266469  0.18874100  0.34995981  1
  O  O325  1  0.86481403  0.11725743  0.84684753  1
  O  O326  1  0.86875061  0.61699903  0.35438105  1
  O  O327  1  0.88026185  0.63042595  0.86643865  1
  O  O328  1  0.04254914  0.31017791  0.18806264  1
  O  O329  1  0.15317828  0.36701764  0.60354194  1
  O  O330  1  0.13856804  0.87838564  0.12929133  1
  O  O331  1  0.13297420  0.87772428  0.63708704  1
  O  O332  1  0.62713559  0.39061224  0.14443834  1
  O  O333  1  0.63796326  0.36767511  0.61555876  1
  O  O334  1  0.63112771  0.87956694  0.11672542  1
  O  O335  1  0.61259394  0.89173100  0.62956760  1
  O  O336  1  0.06885539  0.24931710  0.23177238  1
  O  O337  1  0.11613014  0.26000657  0.74226791  1
  O  O338  1  0.12814792  0.74858857  0.24859042  1
  O  O339  1  0.12923752  0.75963961  0.76480502  1
  O  O340  1  0.62318985  0.24166563  0.26622528  1
  O  O341  1  0.61214648  0.23974808  0.75120443  1
  O  O342  1  0.57672632  0.70265444  0.25814345  1
  O  O343  1  0.61818351  0.75410113  0.75275596  1
  O  O344  1  0.39797732  0.25495215  0.24316901  1
  O  O345  1  0.39877576  0.25589861  0.73069223  1
  O  O346  1  0.38863006  0.75431734  0.23950977  1
  O  O347  1  0.36481902  0.75226525  0.74030141  1
  O  O348  1  0.89380429  0.23603440  0.29351137  1
  O  O349  1  0.86959335  0.23589507  0.73680929  1
  O  O350  1  0.88855372  0.72621323  0.24095031  1
  O  O351  1  0.90251204  0.75761301  0.76722032  1
  O  O352  1  0.39988096  0.51605154  0.48623268  1
  O  O353  1  0.39027503  0.48678433  1.00911654  1
  O  O354  1  0.37425359  1.00311940  0.49053702  1
  O  O355  1  0.38704790  1.00733342  1.00745058  1
  O  O356  1  0.87891521  0.47825123  0.51010363  1
  O  O357  1  0.87238847  0.51375084  0.98061486  1
  O  O358  1  0.89996862  1.01085507  0.48264006  1
  O  O359  1  0.87683565  0.98339612  1.01966498  1
  O  O360  1  0.13981520  0.01222183  0.01687159  1
  O  O361  1  0.10040957  0.01741568  0.45437147  1
  O  O362  1  0.11322041  0.49766458  -0.00865376  1
  O  O363  1  0.10062006  0.52934263  0.50712282  1
  O  O364  1  0.61107179  0.00539701  0.00988237  1
  O  O365  1  0.60727047  0.00046975  0.51367766  1
  O  O366  1  0.61247254  0.50659932  0.00437197  1
  O  O367  1  0.60889723  0.49149828  0.49611257  1
  O  O368  1  0.38084009  0.35865553  0.13055753  1
  O  O369  1  0.36994517  0.36088824  0.61887750  1
  O  O370  1  0.36641849  0.86486640  0.12843660  1
  O  O371  1  0.35002188  0.86933319  0.62723003  1
  O  O372  1  0.84588005  0.38878643  0.11419773  1
  O  O373  1  0.85993807  0.35425293  0.61891957  1
  O  O374  1  0.86043506  0.86030785  0.12920189  1
  O  O375  1  0.88396966  0.89640455  0.61033235  1
  O  O376  1  0.15867418  0.13892612  0.32495868  1
  O  O377  1  0.14753677  0.14435582  0.90303130  1
  O  O378  1  0.12406214  0.63398340  0.37414303  1
  O  O379  1  0.15198832  0.64817067  0.87121189  1
  O  O380  1  0.63036795  0.12108842  0.37530575  1
  O  O381  1  0.63175931  0.11406819  0.88154203  1
  O  O382  1  0.65574528  0.62897202  0.38706612  1
  O  O383  1  0.58868226  0.69479435  0.78724515  1
