# generated using pymatgen
data_VZnO4
_symmetry_space_group_name_H-M   'P 1'
_cell_length_a   16.88775604
_cell_length_b   17.04494520
_cell_length_c   17.02313177
_cell_angle_alpha   90.46404965
_cell_angle_beta   89.86883856
_cell_angle_gamma   90.01640668
_symmetry_Int_Tables_number   1
_chemical_formula_structural   VZnO4
_chemical_formula_sum   'V64 Zn64 O256'
_cell_volume   4899.94966658
_cell_formula_units_Z   64
loop_
 _symmetry_equiv_pos_site_id
 _symmetry_equiv_pos_as_xyz
  1  'x, y, z'
loop_
 _atom_site_type_symbol
 _atom_site_label
 _atom_site_symmetry_multiplicity
 _atom_site_fract_x
 _atom_site_fract_y
 _atom_site_fract_z
 _atom_site_occupancy
  V  V0  1  0.12509643  0.12851550  -0.00116227  1
  V  V1  1  0.85051786  0.62395922  0.75620798  1
  V  V2  1  0.39474951  -0.02399212  0.37253599  1
  V  V3  1  0.63030176  0.76790809  0.87835530  1
  V  V4  1  0.25720751  0.88649889  0.13326689  1
  V  V5  1  0.86597717  0.75018750  0.10055035  1
  V  V6  1  0.45764025  0.35692302  0.36834624  1
  V  V7  1  -0.00423094  0.49030133  0.00200988  1
  V  V8  1  0.11862772  -0.00723673  0.12438515  1
  V  V9  1  0.38031110  0.36003640  0.02622496  1
  V  V10  1  0.25762067  0.75387512  0.01131763  1
  V  V11  1  0.87703592  -0.00011949  0.84549012  1
  V  V12  1  0.01073415  0.72903990  0.75261929  1
  V  V13  1  0.76790871  -0.00205234  0.26867377  1
  V  V14  1  0.89437422  0.48259996  0.37959220  1
  V  V15  1  0.64380229  0.87839742  0.73948050  1
  V  V16  1  0.36877401  0.89058092  -0.02574186  1
  V  V17  1  -0.01217324  0.11880864  0.12876304  1
  V  V18  1  0.46905676  0.61268521  0.62402243  1
  V  V19  1  0.12711499  0.75964616  0.89254271  1
  V  V20  1  0.13061761  0.25675776  0.37518130  1
  V  V21  1  0.48866084  0.01622738  -0.01225948  1
  V  V22  1  0.23777957  0.51432140  0.74089935  1
  V  V23  1  0.76047640  0.15181882  0.37948551  1
  V  V24  1  0.58134935  0.75770111  0.36296609  1
  V  V25  1  0.61638116  0.37455198  0.26679233  1
  V  V26  1  0.61506673  0.61397373  -0.01042312  1
  V  V27  1  0.64432100  0.64549276  0.48493289  1
  V  V28  1  0.49668382  0.13192231  0.63612140  1
  V  V29  1  -0.00732602  0.00960589  0.49992817  1
  V  V30  1  0.63544656  -0.00765681  0.60835625  1
  V  V31  1  0.27757570  0.12853541  0.85683145  1
  V  V32  1  0.63098452  0.12572217  -0.03283910  1
  V  V33  1  0.23095747  0.75313098  0.52783734  1
  V  V34  1  0.50470724  0.35182218  0.89000944  1
  V  V35  1  -0.01272340  0.86386135  0.88172340  1
  V  V36  1  0.87940797  0.75019052  0.62664674  1
  V  V37  1  0.24261802  0.10674118  0.36290131  1
  V  V38  1  0.03841010  0.24415385  0.74856670  1
  V  V39  1  -0.01974111  -0.01585685  0.00696674  1
  V  V40  1  0.36194183  0.88059079  0.52752815  1
  V  V41  1  0.13036440  0.72596210  0.37530823  1
  V  V42  1  0.25586181  0.36689671  0.60354191  1
  V  V43  1  0.61410802  0.88358992  0.24357105  1
  V  V44  1  0.27616505  0.23620006  0.49292041  1
  V  V45  1  0.49359966  0.75705418  0.73781963  1
  V  V46  1  0.35363258  0.54488183  0.39267363  1
  V  V47  1  0.85692806  0.23931300  0.13228848  1
  V  V48  1  0.39010516  0.11193688  0.24699630  1
  V  V49  1  0.74748481  0.39751052  0.13273470  1
  V  V50  1  0.59104694  0.51207631  0.14047145  1
  V  V51  1  -0.01458556  0.74278054  0.26407161  1
  V  V52  1  0.24250712  0.61336427  0.90000995  1
  V  V53  1  0.74973003  0.39934896  0.60938778  1
  V  V54  1  0.11660960  0.87774405  0.25953766  1
  V  V55  1  0.74579643  0.25214589  -0.00494406  1
  V  V56  1  0.39646303  0.51200454  0.87951199  1
  V  V57  1  0.61593675  0.15308799  0.48771518  1
  V  V58  1  0.75392528  0.88908736  0.11534348  1
  V  V59  1  0.13321407  0.38056921  0.80399223  1
  V  V60  1  0.00348286  0.25392780  0.24210396  1
  V  V61  1  0.85170127  0.49918643  0.88290400  1
  V  V62  1  0.14308354  0.37450155  0.21280780  1
  V  V63  1  -0.00198072  0.62678304  0.11467095  1
  Zn  Zn64  1  0.19035870  0.17885525  0.18175657  1
  Zn  Zn65  1  0.23241631  0.22433636  0.70602327  1
  Zn  Zn66  1  0.17824014  0.70142176  0.18091861  1
  Zn  Zn67  1  0.18957029  0.68249681  0.70778335  1
  Zn  Zn68  1  0.68134780  0.18749078  0.22454487  1
  Zn  Zn69  1  0.68599906  0.19746334  0.66713912  1
  Zn  Zn70  1  0.66328613  0.70692596  0.14812971  1
  Zn  Zn71  1  0.68726726  0.69998705  0.67059097  1
  Zn  Zn72  1  0.30866502  0.28806947  0.28228797  1
  Zn  Zn73  1  0.29154730  0.33921080  0.87292677  1
  Zn  Zn74  1  0.30641120  0.81140388  0.31343823  1
  Zn  Zn75  1  0.31583025  0.80143531  0.81990240  1
  Zn  Zn76  1  0.80771988  0.31615413  0.29618952  1
  Zn  Zn77  1  0.81907571  0.29564286  0.80770456  1
  Zn  Zn78  1  0.77009797  0.78141392  0.26646716  1
  Zn  Zn79  1  0.81211025  0.80797893  0.80764351  1
  Zn  Zn80  1  0.24346258  0.41042693  0.39622224  1
  Zn  Zn81  1  0.17728544  0.41454914  1.00790211  1
  Zn  Zn82  1  0.18057011  0.92967476  0.44739427  1
  Zn  Zn83  1  0.18874448  0.95209851  0.93529845  1
  Zn  Zn84  1  0.68692302  0.44537395  0.45030257  1
  Zn  Zn85  1  0.67385846  0.43492824  0.95156015  1
  Zn  Zn86  1  0.67993108  0.93054511  0.42210151  1
  Zn  Zn87  1  0.69437851  0.94402453  0.92307042  1
  Zn  Zn88  1  0.30820248  0.07930284  0.07434289  1
  Zn  Zn89  1  0.32613471  0.06796079  0.54793422  1
  Zn  Zn90  1  0.34538280  0.56702755  0.04809382  1
  Zn  Zn91  1  0.28662521  0.57113553  0.57140432  1
  Zn  Zn92  1  0.80016363  0.06535330  0.06037245  1
  Zn  Zn93  1  0.79257911  0.06651269  0.54910333  1
  Zn  Zn94  1  0.79826803  0.58009006  0.05327128  1
  Zn  Zn95  1  0.91784267  0.53672483  0.59309503  1
  Zn  Zn96  1  0.42387347  0.44645993  0.20622723  1
  Zn  Zn97  1  0.39507752  0.44090688  0.68270384  1
  Zn  Zn98  1  0.44344031  0.96308450  0.16845372  1
  Zn  Zn99  1  0.46454187  0.92837897  0.65205986  1
  Zn  Zn100  1  0.93860925  0.43150128  0.17429595  1
  Zn  Zn101  1  0.93398794  0.42377763  0.74146592  1
  Zn  Zn102  1  0.93320289  0.92439916  0.19250531  1
  Zn  Zn103  1  0.98851365  0.92444986  0.69026124  1
  Zn  Zn104  1  0.06123158  0.06855266  0.30905556  1
  Zn  Zn105  1  0.11427450  0.05738568  0.80295764  1
  Zn  Zn106  1  0.07493735  0.55793477  0.28690025  1
  Zn  Zn107  1  0.06453249  0.56180322  0.84722411  1
  Zn  Zn108  1  0.57036548  0.05110521  0.32501494  1
  Zn  Zn109  1  0.56104269  0.05434670  0.80397493  1
  Zn  Zn110  1  0.57407861  0.54567417  0.34385246  1
  Zn  Zn111  1  0.57790847  0.57614567  0.79149932  1
  Zn  Zn112  1  0.44245049  0.16177593  0.41721120  1
  Zn  Zn113  1  0.43374172  0.18841373  0.93940758  1
  Zn  Zn114  1  0.42267057  0.70321505  0.46327208  1
  Zn  Zn115  1  0.44950478  0.69904530  0.93046986  1
  Zn  Zn116  1  0.95155907  0.20731935  0.44317704  1
  Zn  Zn117  1  0.97702689  0.15060211  0.90711763  1
  Zn  Zn118  1  0.95152859  0.67223560  0.45019591  1
  Zn  Zn119  1  0.92622020  0.67765063  0.93487847  1
  Zn  Zn120  1  0.04512971  0.30782280  0.05672548  1
  Zn  Zn121  1  0.05825953  0.32446490  0.56557379  1
  Zn  Zn122  1  0.06007486  0.80721955  0.06911894  1
  Zn  Zn123  1  0.03304514  0.79507599  0.54939112  1
  Zn  Zn124  1  0.57747962  0.31788970  0.06537518  1
  Zn  Zn125  1  0.49511444  0.29495829  0.52949141  1
  Zn  Zn126  1  0.56947656  0.86717183  0.04580976  1
  Zn  Zn127  1  0.55916290  0.80853704  0.55859210  1
  O  O128  1  0.11065108  0.10753383  0.11826925  1
  O  O129  1  0.17344035  0.07265307  0.64076910  1
  O  O130  1  0.09673825  0.64549273  0.11842139  1
  O  O131  1  0.19925528  0.57682626  0.66488093  1
  O  O132  1  0.57986670  0.15580613  0.14825096  1
  O  O133  1  0.62300180  0.13134733  0.60258339  1
  O  O134  1  0.60387652  0.61199401  0.14862129  1
  O  O135  1  0.63658463  0.64150922  0.58746589  1
  O  O136  1  0.35492710  0.36845750  0.35375738  1
  O  O137  1  0.40144100  0.39033721  0.87195156  1
  O  O138  1  0.36908960  0.87621737  0.37844879  1
  O  O139  1  0.34440419  0.89603677  0.87798886  1
  O  O140  1  0.88682361  0.38006529  0.36296360  1
  O  O141  1  0.86524882  0.39940032  0.83750272  1
  O  O142  1  0.80668370  0.80781041  0.40365871  1
  O  O143  1  0.88542828  0.86745291  0.87842857  1
  O  O144  1  0.22404319  0.01067848  0.38032601  1
  O  O145  1  0.21617257  0.03168067  0.85778587  1
  O  O146  1  0.26322292  0.51237235  0.35500326  1
  O  O147  1  0.24563675  0.51736871  0.91456573  1
  O  O148  1  0.76011844  -0.00639094  0.37064903  1
  O  O149  1  0.77769379  -0.01652967  0.85991936  1
  O  O150  1  0.79006893  0.48365236  0.39255132  1
  O  O151  1  0.75202405  0.49499022  0.89553621  1
  O  O152  1  0.22149824  0.59283541  0.18316895  1
  O  O153  1  0.27931750  0.46966590  0.63776977  1
  O  O154  1  0.23266708  0.99040087  0.12178318  1
  O  O155  1  0.22157096  1.02505372  0.61151821  1
  O  O156  1  0.75003895  0.49581304  0.12222110  1
  O  O157  1  0.80541749  0.48799041  0.59330033  1
  O  O158  1  0.75734007  0.99193049  0.13848345  1
  O  O159  1  0.73226509  1.02018822  0.63030987  1
  O  O160  1  0.01468060  0.35641089  0.22295980  1
  O  O161  1  0.03458877  0.37385914  0.77023980  1
  O  O162  1  0.00921778  0.85496528  0.24465083  1
  O  O163  1  0.00443078  0.84130871  0.78121263  1
  O  O164  1  0.50267973  0.38152933  0.27091506  1
  O  O165  1  0.50880350  0.37345307  0.75512775  1
  O  O166  1  0.51655774  0.88920694  0.22388345  1
  O  O167  1  0.50941330  0.86358467  0.73424410  1
  O  O168  1  0.48756002  0.11296716  0.27678582  1
  O  O169  1  0.51422284  0.13005307  0.73518182  1
  O  O170  1  0.41003617  0.74418516  0.20012852  1
  O  O171  1  0.51691364  0.64003705  0.72360761  1
  O  O172  1  1.00378990  0.13357005  0.23374884  1
  O  O173  1  1.06170154  0.14733612  0.75025900  1
  O  O174  1  0.99899295  0.63932781  0.23679701  1
  O  O175  1  1.00300296  0.63180271  0.77990747  1
  O  O176  1  0.38503723  0.26023716  0.01354739  1
  O  O177  1  0.37597564  0.23495219  0.49365562  1
  O  O178  1  0.36054750  0.77340007  -0.01365130  1
  O  O179  1  0.34518634  0.77026491  0.51918304  1
  O  O180  1  0.85140786  0.25306349  0.02763307  1
  O  O181  1  0.96592718  0.29778156  0.50336671  1
  O  O182  1  0.86257687  0.75097031  0.00267231  1
  O  O183  1  0.92699245  0.74866767  0.52914527  1
  O  O184  1  0.12274440  0.26383259  0.47376511  1
  O  O185  1  0.11124869  0.22657049  1.01152629  1
  O  O186  1  0.12043343  0.75705618  0.48116516  1
  O  O187  1  0.14384945  0.75856323  1.00169318  1
  O  O188  1  0.60562712  0.25045176  0.48607469  1
  O  O189  1  0.63388434  0.23381010  1.00845052  1
  O  O190  1  0.61163643  0.75712087  0.46904743  1
  O  O191  1  0.61356916  0.78437505  0.97717944  1
  O  O192  1  0.53123545  0.21091872  0.13682752  1
  O  O193  1  0.49729571  0.23370149  0.61849563  1
  O  O194  1  0.42674356  0.70051133  0.14119981  1
  O  O195  1  0.49713277  0.74560181  0.63278527  1
  O  O196  1  0.98295533  0.23551474  0.12626198  1
  O  O197  1  1.01927619  0.26248886  0.65358998  1
  O  O198  1  0.97783184  0.74661313  0.12641149  1
  O  O199  1  1.02527511  0.72929837  0.65515442  1
  O  O200  1  0.01810126  0.24439854  0.34867579  1
  O  O201  1  -0.01646122  0.25540681  0.85749487  1
  O  O202  1  0.00566363  0.73447777  0.36775588  1
  O  O203  1  0.01245544  0.75467397  0.90243092  1
  O  O204  1  0.47298065  0.25875898  0.36673687  1
  O  O205  1  0.49988144  0.25461489  0.87300034  1
  O  O206  1  0.48302904  0.76023307  0.36828399  1
  O  O207  1  0.52087730  0.74228807  0.85029543  1
  O  O208  1  0.25563201  0.13197438  0.48051418  1
  O  O209  1  0.22616501  0.11006571  0.98735705  1
  O  O210  1  0.23838532  0.65490308  0.50987337  1
  O  O211  1  0.26902323  0.64767368  1.01213715  1
  O  O212  1  0.73550635  0.14042164  0.48639510  1
  O  O213  1  0.74049632  0.13922408  0.99722140  1
  O  O214  1  0.73880362  0.65848803  0.47063548  1
  O  O215  1  0.70337143  0.64995863  1.03513754  1
  O  O216  1  0.28156265  0.37538260  -0.01156322  1
  O  O217  1  0.26491222  0.35524317  0.49768489  1
  O  O218  1  0.25645747  0.87857889  0.01122453  1
  O  O219  1  0.24448536  0.86634445  0.50833823  1
  O  O220  1  0.72517364  0.35781923  0.03031601  1
  O  O221  1  0.76439050  0.37216181  0.50363832  1
  O  O222  1  0.74078628  0.89130038  0.01755595  1
  O  O223  1  0.77020212  0.84140292  0.45884546  1
  O  O224  1  0.12361225  0.47056521  0.23663673  1
  O  O225  1  0.13774655  0.49503615  0.78251149  1
  O  O226  1  0.10468035  0.98442592  0.24008842  1
  O  O227  1  0.07821941  0.97271828  0.74304268  1
  O  O228  1  0.60863232  0.49391980  0.24606185  1
  O  O229  1  0.65082737  0.49326261  0.77746842  1
  O  O230  1  0.63834689  0.98690179  0.25668682  1
  O  O231  1  0.62523153  0.98151439  0.74100092  1
  O  O232  1  0.37796297  -0.01043895  0.27038310  1
  O  O233  1  0.22776151  -0.06763140  0.73830344  1
  O  O234  1  0.42110635  0.52503175  0.29610059  1
  O  O235  1  0.34516713  0.50302869  0.77807203  1
  O  O236  1  0.86798133  -0.00619987  0.25505971  1
  O  O237  1  0.90176541  -0.01921428  0.75083028  1
  O  O238  1  0.88630229  0.49170739  0.27475779  1
  O  O239  1  0.86880768  0.52132940  0.76248192  1
  O  O240  1  0.14800888  0.35488882  0.34743044  1
  O  O241  1  0.13374001  0.37051102  0.90213927  1
  O  O242  1  0.12236834  0.87804016  0.35912411  1
  O  O243  1  0.12129657  0.86257271  0.88882658  1
  O  O244  1  0.63581026  0.39139449  0.36421346  1
  O  O245  1  0.60140485  0.38152855  0.88422706  1
  O  O246  1  0.61681233  0.86588669  0.35554148  1
  O  O247  1  0.62983225  0.87416541  0.85305335  1
  O  O248  1  0.39796088  0.07211357  0.14960910  1
  O  O249  1  0.39818899  0.10628139  0.62191167  1
  O  O250  1  0.33668256  0.53146819  0.15724603  1
  O  O251  1  0.37052861  0.62993187  0.63295691  1
  O  O252  1  0.87317590  0.13213132  0.12709727  1
  O  O253  1  0.85992678  0.16040952  0.59878127  1
  O  O254  1  0.87070421  0.64652304  0.12089789  1
  O  O255  1  0.88619254  0.63249525  0.65184463  1
  O  O256  1  0.27146589  0.18192964  0.10702767  1
  O  O257  1  0.24473199  0.24238635  0.59351726  1
  O  O258  1  0.24759983  0.77022736  0.11565421  1
  O  O259  1  0.21007900  0.75673600  0.62580973  1
  O  O260  1  0.75474913  0.23826727  0.14620814  1
  O  O261  1  0.71311160  0.30330974  0.61789143  1
  O  O262  1  0.76308439  0.76428022  0.14298917  1
  O  O263  1  0.78018099  0.75135603  0.61733985  1
  O  O264  1  0.24790704  0.23671360  0.37903595  1
  O  O265  1  0.26462797  0.22785448  0.87901973  1
  O  O266  1  0.22863487  0.75003330  0.37069161  1
  O  O267  1  0.24098256  0.74764505  0.89118662  1
  O  O268  1  0.74234777  0.24684208  0.35653524  1
  O  O269  1  0.75566489  0.27144052  0.90106622  1
  O  O270  1  0.76080975  0.66365881  0.30710066  1
  O  O271  1  0.73037160  0.75318008  0.86795424  1
  O  O272  1  -0.00413463  0.10380264  0.01670124  1
  O  O273  1  0.00390353  0.11531896  0.49810273  1
  O  O274  1  -0.01236696  0.61885556  0.01078068  1
  O  O275  1  -0.01840747  0.59076948  0.51874520  1
  O  O276  1  0.51493508  0.11948908  -0.00574742  1
  O  O277  1  0.51549907  0.12088928  0.49458037  1
  O  O278  1  0.52125075  0.65138971  0.00827455  1
  O  O279  1  0.49057356  0.63337852  0.52286332  1
  O  O280  1  0.48535092  0.38218956  0.46414125  1
  O  O281  1  0.49459494  0.36396637  0.99807119  1
  O  O282  1  0.46558664  0.87004513  0.52642918  1
  O  O283  1  0.46857582  0.87414114  0.98103645  1
  O  O284  1  1.08477068  0.45346900  0.52165681  1
  O  O285  1  0.97899723  0.39258768  1.02411590  1
  O  O286  1  0.97687672  0.90795521  0.48494986  1
  O  O287  1  0.99722300  0.87948938  1.00228576  1
  O  O288  1  0.46161861  0.49749828  0.36693967  1
  O  O289  1  0.49190845  0.51980324  0.85603332  1
  O  O290  1  0.49342751  0.98386006  0.38360755  1
  O  O291  1  0.51048082  0.99682384  0.89176131  1
  O  O292  1  0.99746075  0.48739541  0.36136290  1
  O  O293  1  0.98163241  0.49992466  0.89630768  1
  O  O294  1  0.99672938  1.02051345  0.39357640  1
  O  O295  1  0.98857738  0.97606189  0.89324820  1
  O  O296  1  -0.00380756  -0.00390239  0.12086321  1
  O  O297  1  -0.00864658  0.01242698  0.60270309  1
  O  O298  1  -0.01963451  0.52106343  0.12011223  1
  O  O299  1  -0.03326489  0.44849722  0.63706254  1
  O  O300  1  0.52401411  -0.02731100  0.07697293  1
  O  O301  1  0.52875547  0.01783047  0.62313004  1
  O  O302  1  0.49360405  0.50149551  0.12934390  1
  O  O303  1  0.47255439  0.51095648  0.63836579  1
  O  O304  1  0.24268694  0.35859436  0.22314052  1
  O  O305  1  0.23950549  0.39799579  0.77888332  1
  O  O306  1  0.23174070  0.87025603  0.23752246  1
  O  O307  1  0.23324665  0.85970334  0.73956444  1
  O  O308  1  0.73268375  0.38156405  0.23832386  1
  O  O309  1  0.70236131  0.43177847  0.69249707  1
  O  O310  1  0.74534911  0.88994832  0.24408168  1
  O  O311  1  0.74334091  0.86899867  0.73788705  1
  O  O312  1  0.25919984  0.11278107  0.26055999  1
  O  O313  1  0.27423690  0.13482026  0.75439274  1
  O  O314  1  0.29357564  0.57783341  0.21065231  1
  O  O315  1  0.24868418  0.61537070  0.79267787  1
  O  O316  1  0.74749186  0.10868785  0.27214538  1
  O  O317  1  0.89030937  0.14820366  0.66480968  1
  O  O318  1  0.73915321  0.60999346  0.26111110  1
  O  O319  1  0.75225390  0.63693450  0.74423336  1
  O  O320  1  0.36143020  0.09618277  0.36814418  1
  O  O321  1  0.37312290  0.10948449  0.88388650  1
  O  O322  1  0.35840653  0.64438573  0.38888579  1
  O  O323  1  0.36843883  0.61576754  0.89728029  1
  O  O324  1  0.86111342  0.15673333  0.39435914  1
  O  O325  1  0.88874958  0.09884926  0.86327369  1
  O  O326  1  0.88936834  0.58428033  0.39292389  1
  O  O327  1  0.85980038  0.61586074  0.86857704  1
  O  O328  1  0.13367861  0.36848672  0.10831888  1
  O  O329  1  0.15589706  0.36591787  0.62374676  1
  O  O330  1  0.12689651  0.87937472  0.13265929  1
  O  O331  1  0.06569251  0.88532125  0.60687076  1
  O  O332  1  0.62350981  0.39419638  0.13926060  1
  O  O333  1  0.65753152  0.44178505  0.56424040  1
  O  O334  1  0.64365655  0.86245108  0.13524040  1
  O  O335  1  0.62756531  0.88378432  0.62368801  1
  O  O336  1  0.11860484  0.25396169  0.23233166  1
  O  O337  1  0.14603435  0.27676791  0.76459229  1
  O  O338  1  0.11515857  0.75680461  0.26212300  1
  O  O339  1  0.12009131  0.73714154  0.78389772  1
  O  O340  1  0.61738392  0.27501481  0.25365059  1
  O  O341  1  0.75270067  0.22858138  0.74542897  1
  O  O342  1  0.63250518  0.76655803  0.25592654  1
  O  O343  1  0.62278616  0.76635777  0.74447164  1
  O  O344  1  0.37343022  0.21069933  0.23527688  1
  O  O345  1  0.56425441  0.33746175  0.72181768  1
  O  O346  1  0.34240764  0.72521265  0.24180432  1
  O  O347  1  0.39299497  0.75312696  0.75840341  1
  O  O348  1  0.89126816  0.25689513  0.24039198  1
  O  O349  1  0.93040133  0.24744781  0.79097831  1
  O  O350  1  0.88614968  0.75690809  0.26367486  1
  O  O351  1  0.89051220  0.73473446  0.75516619  1
  O  O352  1  0.34938818  0.51678517  0.48966463  1
  O  O353  1  0.39293662  0.48745414  0.98534269  1
  O  O354  1  0.35539183  0.98174112  0.48080960  1
  O  O355  1  0.38020164  0.99981959  1.00243258  1
  O  O356  1  0.91683558  0.46383389  0.47764255  1
  O  O357  1  0.86883515  0.50993100  0.98939304  1
  O  O358  1  0.88771843  1.01992024  0.50189456  1
  O  O359  1  0.88094036  0.99757938  1.00577866  1
  O  O360  1  0.10764374  -0.00236744  0.01257094  1
  O  O361  1  0.09607621  -0.00456579  0.50074575  1
  O  O362  1  0.09685880  0.49677078  0.00507812  1
  O  O363  1  0.14227483  0.48503286  0.48922725  1
  O  O364  1  0.63647119  0.02483874  -0.01468585  1
  O  O365  1  0.63794572  -0.01098037  0.50695373  1
  O  O366  1  0.61657695  0.51212962  0.02134092  1
  O  O367  1  0.62966270  0.54174127  0.44613317  1
  O  O368  1  0.38078935  0.37623060  0.12433162  1
  O  O369  1  0.33921501  0.33851838  0.66105047  1
  O  O370  1  0.35722865  0.88904443  0.12884562  1
  O  O371  1  0.35303884  0.91061195  0.62377959  1
  O  O372  1  0.84983002  0.36589561  0.13682436  1
  O  O373  1  0.83682564  0.36600937  0.65272437  1
  O  O374  1  0.86315377  0.86357584  0.12385968  1
  O  O375  1  0.90621663  0.84518352  0.64988838  1
  O  O376  1  0.13729846  0.14142948  0.35690731  1
  O  O377  1  0.08931975  0.11706177  0.90180492  1
  O  O378  1  0.12515737  0.62740723  0.36348169  1
  O  O379  1  0.13813766  0.63629582  0.90388382  1
  O  O380  1  0.63550361  0.12250086  0.38555536  1
  O  O381  1  0.62823865  0.13139412  0.86985737  1
  O  O382  1  0.60233972  0.65641626  0.36316579  1
  O  O383  1  0.62681291  0.62868581  0.88923454  1
