# generated using pymatgen
data_VZnO4
_symmetry_space_group_name_H-M   'P 1'
_cell_length_a   17.01714733
_cell_length_b   16.97185849
_cell_length_c   16.95727103
_cell_angle_alpha   90.37530457
_cell_angle_beta   89.55913107
_cell_angle_gamma   90.24239640
_symmetry_Int_Tables_number   1
_chemical_formula_structural   VZnO4
_chemical_formula_sum   'V64 Zn64 O256'
_cell_volume   4897.18097518
_cell_formula_units_Z   64
loop_
 _symmetry_equiv_pos_site_id
 _symmetry_equiv_pos_as_xyz
  1  'x, y, z'
loop_
 _atom_site_type_symbol
 _atom_site_label
 _atom_site_symmetry_multiplicity
 _atom_site_fract_x
 _atom_site_fract_y
 _atom_site_fract_z
 _atom_site_occupancy
  V  V0  1  -0.01050952  0.74685103  0.24627821  1
  V  V1  1  0.50388148  0.62349938  0.11888968  1
  V  V2  1  0.63257706  0.77142858  0.85900774  1
  V  V3  1  0.49399985  0.22513675  0.24922908  1
  V  V4  1  0.12847844  0.74973113  0.88239118  1
  V  V5  1  0.24922348  0.86313234  0.61994497  1
  V  V6  1  0.25946675  0.12263776  0.87984759  1
  V  V7  1  -0.00001040  0.62227780  0.62033642  1
  V  V8  1  0.38287155  0.88519979  0.49104771  1
  V  V9  1  0.87789614  0.49841075  0.36728791  1
  V  V10  1  0.70671502  0.43390005  0.70836558  1
  V  V11  1  -0.00771374  0.49475541  -0.00552372  1
  V  V12  1  0.50811807  0.49967749  0.47995543  1
  V  V13  1  0.01242796  0.00993028  0.49727808  1
  V  V14  1  0.35161659  0.51449278  0.36434646  1
  V  V15  1  0.52941349  0.49069529  -0.00529837  1
  V  V16  1  0.63255370  0.24004584  0.37170763  1
  V  V17  1  0.76190606  0.01195721  0.25842066  1
  V  V18  1  0.76606799  0.74563167  -0.00327058  1
  V  V19  1  0.76220482  0.63342111  0.36006900  1
  V  V20  1  0.87748304  0.87648292  -0.00463956  1
  V  V21  1  0.75204981  0.75123885  0.49846438  1
  V  V22  1  0.13381194  0.38497851  0.24412955  1
  V  V23  1  0.38853850  0.75383849  0.13714258  1
  V  V24  1  0.62931582  0.02146073  0.12059285  1
  V  V25  1  0.36227276  0.24713567  0.12703562  1
  V  V26  1  -0.00000758  0.75356027  0.75584395  1
  V  V27  1  0.12445627  0.01305269  0.62339411  1
  V  V28  1  0.88753045  0.87666919  0.49597711  1
  V  V29  1  0.74471664  0.86059967  0.13276953  1
  V  V30  1  0.87950634  0.11649316  0.76766863  1
  V  V31  1  0.60591874  0.38963964  0.24675971  1
  V  V32  1  0.12180599  0.13672280  0.00236825  1
  V  V33  1  0.24177413  0.13338032  0.38988431  1
  V  V34  1  0.63707972  0.62845636  -0.01628465  1
  V  V35  1  0.35357078  0.38013648  0.49262836  1
  V  V36  1  0.35605724  0.10273239  0.24855164  1
  V  V37  1  0.63056247  0.62737922  0.49737310  1
  V  V38  1  0.00352799  -0.01107077  -0.00099887  1
  V  V39  1  0.00404244  0.36466166  0.36808484  1
  V  V40  1  0.75909346  0.88693686  0.63341684  1
  V  V41  1  -0.00764356  0.62193474  0.12759670  1
  V  V42  1  0.00788208  0.87132038  0.37431237  1
  V  V43  1  0.13319870  0.62170872  0.49576501  1
  V  V44  1  0.87978703  0.74728744  0.62369675  1
  V  V45  1  -0.00805993  0.49710599  0.49713790  1
  V  V46  1  0.86971068  0.61702275  0.76529187  1
  V  V47  1  0.39680730  0.75764017  0.62994686  1
  V  V48  1  0.14587229  0.87123275  0.24227421  1
  V  V49  1  0.52788863  0.86819764  0.36866051  1
  V  V50  1  0.45740724  0.15667787  0.61569659  1
  V  V51  1  0.59748768  0.04076798  0.60836618  1
  V  V52  1  0.35609004  0.39144781  0.02350939  1
  V  V53  1  0.86763491  0.25371201  0.14885285  1
  V  V54  1  0.13764527  0.62081530  0.00363331  1
  V  V55  1  0.14521542  0.74256277  0.37468812  1
  V  V56  1  0.27592138  0.76805751  -0.00663343  1
  V  V57  1  0.00669101  0.21759286  0.25368921  1
  V  V58  1  0.75475882  0.49184463  0.23822029  1
  V  V59  1  0.13352451  0.00437560  0.12698361  1
  V  V60  1  0.12127423  0.87323909  0.75367709  1
  V  V61  1  0.50919262  0.62187109  0.63033257  1
  V  V62  1  0.47539525  0.38096356  0.85979806  1
  V  V63  1  0.25548358  0.00594663  0.75690316  1
  Zn  Zn64  1  0.18504600  0.19474991  0.19395638  1
  Zn  Zn65  1  0.13271825  0.23557322  0.83147186  1
  Zn  Zn66  1  0.18838957  0.71416690  0.16524905  1
  Zn  Zn67  1  0.18004132  0.68933146  0.68024873  1
  Zn  Zn68  1  0.68950556  0.18770093  0.20323211  1
  Zn  Zn69  1  0.66327649  0.22607875  0.67070150  1
  Zn  Zn70  1  0.68154918  0.68335190  0.17687521  1
  Zn  Zn71  1  0.69527146  0.68432001  0.68415396  1
  Zn  Zn72  1  0.31818823  0.31758961  0.31673354  1
  Zn  Zn73  1  0.27118689  0.33316508  0.89473442  1
  Zn  Zn74  1  0.32837055  0.81056613  0.31342704  1
  Zn  Zn75  1  0.30358814  0.80127486  0.79944356  1
  Zn  Zn76  1  0.81508181  0.30891346  0.31558960  1
  Zn  Zn77  1  0.59108008  0.25725053  0.84986313  1
  Zn  Zn78  1  0.81687041  0.82360141  0.31659490  1
  Zn  Zn79  1  0.81103996  0.81079815  0.81540425  1
  Zn  Zn80  1  0.18088982  0.43922031  0.43319326  1
  Zn  Zn81  1  0.15325136  0.41013747  1.03630261  1
  Zn  Zn82  1  0.19916736  0.93950927  0.43435331  1
  Zn  Zn83  1  0.18724366  0.93585838  0.93916583  1
  Zn  Zn84  1  0.67118038  0.44893676  0.41238493  1
  Zn  Zn85  1  0.68126108  0.42310430  0.89387730  1
  Zn  Zn86  1  0.69272787  0.94355125  0.44587350  1
  Zn  Zn87  1  0.59964052  0.93987468  0.94419937  1
  Zn  Zn88  1  0.31143568  0.05860092  0.06319541  1
  Zn  Zn89  1  0.30679240  0.06638932  0.56935923  1
  Zn  Zn90  1  0.34460764  0.59909583  -0.00103376  1
  Zn  Zn91  1  0.34188224  0.59867635  0.51761365  1
  Zn  Zn92  1  0.81155327  0.04217101  0.07134630  1
  Zn  Zn93  1  0.76191108  0.08353116  0.56533406  1
  Zn  Zn94  1  0.81824381  0.55945924  0.05600652  1
  Zn  Zn95  1  0.80783916  0.55610282  0.56452289  1
  Zn  Zn96  1  0.43136430  0.45734989  0.18448369  1
  Zn  Zn97  1  0.42812820  0.34736430  0.67215586  1
  Zn  Zn98  1  0.45136287  0.94078498  0.17690792  1
  Zn  Zn99  1  0.42780744  0.97376437  0.66270557  1
  Zn  Zn100  1  0.94023988  0.43981261  0.18574186  1
  Zn  Zn101  1  0.89440323  0.45181863  0.66898930  1
  Zn  Zn102  1  0.93812571  0.93129109  0.17986735  1
  Zn  Zn103  1  0.93952378  0.93919171  0.68018208  1
  Zn  Zn104  1  0.10227045  0.05221477  0.32630700  1
  Zn  Zn105  1  0.06790348  0.05256533  0.82318392  1
  Zn  Zn106  1  0.06797914  0.56433810  0.30768809  1
  Zn  Zn107  1  0.05221606  0.57116292  0.81831766  1
  Zn  Zn108  1  0.57150915  0.04941161  0.30578383  1
  Zn  Zn109  1  0.57651842  0.09009234  0.76794708  1
  Zn  Zn110  1  0.57612461  0.59213723  0.30158951  1
  Zn  Zn111  1  0.56703622  0.54948631  0.80537179  1
  Zn  Zn112  1  0.41462094  0.18586113  0.42061418  1
  Zn  Zn113  1  0.42219201  0.20398555  0.93407118  1
  Zn  Zn114  1  0.43964675  0.70329853  0.43459841  1
  Zn  Zn115  1  0.45464029  0.68508785  0.90013069  1
  Zn  Zn116  1  1.07025882  0.20693770  0.45270854  1
  Zn  Zn117  1  0.93938600  0.17465562  0.96086924  1
  Zn  Zn118  1  0.94296177  0.68725270  0.43173931  1
  Zn  Zn119  1  0.94774079  0.68322373  0.93982669  1
  Zn  Zn120  1  0.03004743  0.31214476  0.08909867  1
  Zn  Zn121  1  0.10392462  0.22929399  0.63456481  1
  Zn  Zn122  1  0.05725364  0.81401413  0.06891310  1
  Zn  Zn123  1  0.07018103  0.80643398  0.56144739  1
  Zn  Zn124  1  0.55347742  0.31815617  0.07730203  1
  Zn  Zn125  1  0.51323558  0.28936704  0.51760673  1
  Zn  Zn126  1  0.56170505  0.80967200  0.05832738  1
  Zn  Zn127  1  0.55750669  0.85223623  0.57534425  1
  O  O128  1  0.13235606  0.11111014  0.11779449  1
  O  O129  1  0.12804596  0.11063201  0.62755125  1
  O  O130  1  0.11668959  0.64579519  0.10552716  1
  O  O131  1  0.10895827  0.63351883  0.60775477  1
  O  O132  1  0.64105239  0.12295204  0.12221936  1
  O  O133  1  0.59080691  0.14538039  0.60398557  1
  O  O134  1  0.61545509  0.62450787  0.09834035  1
  O  O135  1  0.61810472  0.63976411  0.61031381  1
  O  O136  1  0.36802295  0.40273808  0.37947642  1
  O  O137  1  0.37607948  0.38132881  0.91132390  1
  O  O138  1  0.35070993  0.88568530  0.39562708  1
  O  O139  1  0.40653844  0.87584650  0.85228556  1
  O  O140  1  0.88733557  0.39019152  0.36954654  1
  O  O141  1  0.92131896  0.32625497  0.88881567  1
  O  O142  1  0.89750849  0.86762080  0.38373808  1
  O  O143  1  0.86706833  0.87230327  0.89550342  1
  O  O144  1  0.21438913  0.02414473  0.36537869  1
  O  O145  1  0.23972810  0.00489673  0.86516788  1
  O  O146  1  0.25214414  0.51109616  0.37470377  1
  O  O147  1  0.22690340  0.42040954  0.82510336  1
  O  O148  1  0.74854417  -0.01938623  0.35457727  1
  O  O149  1  0.69208343  0.12689626  0.93421589  1
  O  O150  1  0.76457041  0.51032871  0.36841566  1
  O  O151  1  0.74680761  0.42265880  0.80121655  1
  O  O152  1  0.25757030  0.55762860  0.17622915  1
  O  O153  1  0.32148709  0.50620798  0.69853632  1
  O  O154  1  0.23129253  0.99110857  0.11697102  1
  O  O155  1  0.23670716  0.99188285  0.63836844  1
  O  O156  1  0.76245784  0.50733986  0.14037290  1
  O  O157  1  0.78285614  0.47146151  0.63733087  1
  O  O158  1  0.74656000  0.98008674  0.13765197  1
  O  O159  1  0.78535827  0.98295186  0.61479605  1
  O  O160  1  0.00578145  0.37868368  0.26242953  1
  O  O161  1  0.01950471  0.41835161  0.73577520  1
  O  O162  1  0.01052044  0.86034292  0.25656205  1
  O  O163  1  0.01003504  0.86261442  0.73826748  1
  O  O164  1  0.50729877  0.39898087  0.24901930  1
  O  O165  1  0.44964368  0.40162803  0.76556147  1
  O  O166  1  0.50793532  0.89262602  0.26645564  1
  O  O167  1  0.46178741  0.89061393  0.80621981  1
  O  O168  1  0.48202460  0.12365186  0.24765378  1
  O  O169  1  0.48651534  0.08170162  0.68874945  1
  O  O170  1  0.49864552  0.60255017  0.21560367  1
  O  O171  1  0.50808608  0.61528496  0.72947807  1
  O  O172  1  1.01798330  0.12213942  0.27268558  1
  O  O173  1  0.98790089  0.12585979  0.78581697  1
  O  O174  1  1.00953972  0.63573325  0.23802614  1
  O  O175  1  0.99676829  0.63584498  0.73982712  1
  O  O176  1  0.37954365  0.25959040  0.02260390  1
  O  O177  1  0.39853609  0.28610667  0.48189427  1
  O  O178  1  0.37257602  0.76243415  -0.02434990  1
  O  O179  1  0.37896168  0.77401031  0.51597002  1
  O  O180  1  0.86431040  0.20616089  0.04239537  1
  O  O181  1  0.86032027  0.22019581  0.49445568  1
  O  O182  1  0.87047995  0.75037610  -0.00431491  1
  O  O183  1  0.87792965  0.75303033  0.50726929  1
  O  O184  1  0.09562931  0.27072340  0.53716645  1
  O  O185  1  0.10776344  0.23302680  1.01529517  1
  O  O186  1  0.12525276  0.73690192  0.48434699  1
  O  O187  1  0.12108595  0.75916131  0.98562204  1
  O  O188  1  0.60861336  0.25666047  0.46971757  1
  O  O189  1  0.62641459  0.27431458  0.98960250  1
  O  O190  1  0.65035271  0.74496208  0.49902775  1
  O  O191  1  0.63703774  0.73526209  0.98399958  1
  O  O192  1  0.48723570  0.25391084  0.14377562  1
  O  O193  1  0.48425168  0.25959127  0.63078589  1
  O  O194  1  0.50131571  0.73556882  0.12055852  1
  O  O195  1  0.49891449  0.76377379  0.62749662  1
  O  O196  1  0.99045458  0.22260623  0.14861551  1
  O  O197  1  0.95459131  0.29849076  0.61240772  1
  O  O198  1  1.00204669  0.74346173  0.13986026  1
  O  O199  1  0.99595335  0.74201462  0.63049666  1
  O  O200  1  -0.00199222  0.26168243  0.37000997  1
  O  O201  1  -0.02491427  0.28067169  0.91213964  1
  O  O202  1  0.01320813  0.75147967  0.36179983  1
  O  O203  1  0.01145312  0.74859473  0.86354880  1
  O  O204  1  0.49250134  0.24754937  0.35124940  1
  O  O205  1  0.47222524  0.27405940  0.85968642  1
  O  O206  1  0.48671592  0.77369893  0.36308229  1
  O  O207  1  0.53267048  0.75263918  0.87192280  1
  O  O208  1  0.25712399  0.12266516  0.48863968  1
  O  O209  1  0.23224601  0.11528495  0.98919189  1
  O  O210  1  0.22934011  0.61207314  0.51489078  1
  O  O211  1  0.23684126  0.65119230  0.99902973  1
  O  O212  1  0.81599546  0.10089671  0.45812284  1
  O  O213  1  0.74284755  0.13567425  0.98545870  1
  O  O214  1  0.74882485  0.63278702  0.50480488  1
  O  O215  1  0.74529737  0.62918372  1.00261817  1
  O  O216  1  0.25489016  0.36845469  0.00803959  1
  O  O217  1  0.25346607  0.37672618  0.49289019  1
  O  O218  1  0.25453792  0.86532595  -0.00744061  1
  O  O219  1  0.24944654  0.87907656  0.51881319  1
  O  O220  1  0.70210975  0.29848542  0.00869918  1
  O  O221  1  0.75757772  0.37810356  0.48949418  1
  O  O222  1  0.76207720  0.85364670  0.00899286  1
  O  O223  1  0.77385007  0.86579838  0.49848609  1
  O  O224  1  0.12547459  0.48565470  0.25127177  1
  O  O225  1  0.14778013  0.54124885  0.74733606  1
  O  O226  1  0.12014972  0.97882853  0.23504402  1
  O  O227  1  0.12316381  0.99028087  0.74065793  1
  O  O228  1  0.64444474  0.49524172  0.25867531  1
  O  O229  1  0.62896269  0.49646544  0.72440884  1
  O  O230  1  0.64760729  1.00314944  0.23284162  1
  O  O231  1  0.64496520  1.02709191  0.69487452  1
  O  O232  1  0.36660417  0.00730580  0.22403851  1
  O  O233  1  0.35338634  -0.00585501  0.74712978  1
  O  O234  1  0.37424328  0.51298151  0.26625404  1
  O  O235  1  0.34665852  0.53580819  0.75927219  1
  O  O236  1  0.86060431  -0.01479550  0.24105049  1
  O  O237  1  0.90803377  0.01089563  0.76279566  1
  O  O238  1  0.87107121  0.50304466  0.25943283  1
  O  O239  1  0.89509693  0.51938588  0.75827573  1
  O  O240  1  0.10807120  0.37871030  0.36731719  1
  O  O241  1  0.13444359  0.34583678  0.88555234  1
  O  O242  1  0.12650664  0.85895423  0.36778031  1
  O  O243  1  0.12773604  0.86465884  0.86151173  1
  O  O244  1  0.62975605  0.36374944  0.35106406  1
  O  O245  1  0.58435875  0.37117180  0.85877476  1
  O  O246  1  0.62471592  0.86691108  0.39174701  1
  O  O247  1  0.64315956  0.87107109  0.86388987  1
  O  O248  1  0.36363326  0.13835034  0.13423569  1
  O  O249  1  0.35849283  0.14752992  0.63457774  1
  O  O250  1  0.39745885  0.64162355  0.09493726  1
  O  O251  1  0.40064394  0.64865990  0.60459312  1
  O  O252  1  0.86005398  0.14427627  0.10241670  1
  O  O253  1  0.89617745  0.12270095  0.66660307  1
  O  O254  1  0.89473644  0.62847687  0.11645010  1
  O  O255  1  0.88612318  0.63263121  0.62639827  1
  O  O256  1  0.26334849  0.25666947  0.13599997  1
  O  O257  1  0.23187497  0.32302305  0.67015755  1
  O  O258  1  0.27916512  0.75069164  0.10405726  1
  O  O259  1  0.25293319  0.76020511  0.62873006  1
  O  O260  1  0.76981455  0.26264945  0.16369186  1
  O  O261  1  0.75034113  0.18196605  0.61372111  1
  O  O262  1  0.74780631  0.74687911  0.10846488  1
  O  O263  1  0.76869332  0.75485103  0.61604048  1
  O  O264  1  0.27268222  0.23081937  0.37578037  1
  O  O265  1  0.24581709  0.22732780  0.86425730  1
  O  O266  1  0.24273883  0.74589244  0.36995258  1
  O  O267  1  0.23727664  0.75322325  0.87962109  1
  O  O268  1  0.73416860  0.24843658  0.36469589  1
  O  O269  1  0.74135155  0.33429387  0.95121527  1
  O  O270  1  0.77070561  0.73768223  0.38342367  1
  O  O271  1  0.74593098  0.74885612  0.89009753  1
  O  O272  1  0.01499984  0.10312277  0.00362568  1
  O  O273  1  0.00757148  0.10711189  0.49015771  1
  O  O274  1  0.01133618  0.61489395  0.00891879  1
  O  O275  1  0.00471021  0.62020693  0.50348393  1
  O  O276  1  0.51858386  0.06993548  -0.06950237  1
  O  O277  1  0.46066925  0.13532264  0.51611694  1
  O  O278  1  0.52331327  0.60636678  -0.00862182  1
  O  O279  1  0.52570098  0.63769416  0.49226129  1
  O  O280  1  0.52264461  0.40295007  0.49119537  1
  O  O281  1  0.49154641  0.39020066  1.00479423  1
  O  O282  1  0.48858712  0.87807356  0.47862412  1
  O  O283  1  0.51624880  0.87865222  0.98654469  1
  O  O284  1  0.99921543  0.39698721  0.47847704  1
  O  O285  1  1.03353784  0.40051238  1.01466795  1
  O  O286  1  1.00307259  0.86310230  0.48936617  1
  O  O287  1  0.98536509  0.87360251  1.00577892  1
  O  O288  1  0.51785652  0.52318789  0.38174002  1
  O  O289  1  0.49904453  0.49201060  0.89002414  1
  O  O290  1  0.50196728  0.97678457  0.35821823  1
  O  O291  1  0.55934580  1.03024931  0.86934397  1
  O  O292  1  0.98719562  0.50876847  0.37574557  1
  O  O293  1  1.01146102  0.50320547  0.89563526  1
  O  O294  1  1.02730914  0.98083451  0.39066852  1
  O  O295  1  1.01849760  0.98334228  0.89958266  1
  O  O296  1  0.01871524  -0.01860548  0.11412256  1
  O  O297  1  0.01741534  -0.00790500  0.61262583  1
  O  O298  1  0.00298798  0.51684164  0.12257682  1
  O  O299  1  -0.01700437  0.50722323  0.60470965  1
  O  O300  1  0.53072808  0.00168081  0.12437381  1
  O  O301  1  0.52497609  -0.03914104  0.60672399  1
  O  O302  1  0.49660092  0.50947611  0.09756856  1
  O  O303  1  0.50088757  0.52760801  0.59609269  1
  O  O304  1  0.22966280  0.36575236  0.26113339  1
  O  O305  1  0.14988067  0.40425215  0.82972595  1
  O  O306  1  0.24291491  0.86916619  0.25510955  1
  O  O307  1  0.23932288  0.88148702  0.74257507  1
  O  O308  1  0.75991962  0.39295656  0.25280331  1
  O  O309  1  0.67314028  0.34237205  0.67733647  1
  O  O310  1  0.75140832  0.85175681  0.23329514  1
  O  O311  1  0.77293028  0.87507124  0.73241853  1
  O  O312  1  0.25378426  0.12328474  0.25137680  1
  O  O313  1  0.24231334  0.10824594  0.76635649  1
  O  O314  1  0.24428050  0.61252896  0.22316787  1
  O  O315  1  0.20268104  0.59509839  0.74865822  1
  O  O316  1  0.76311470  0.11224010  0.25323806  1
  O  O317  1  0.78755569  0.07747110  0.77361515  1
  O  O318  1  0.75593539  0.62014974  0.25958250  1
  O  O319  1  0.77284204  0.62333094  0.74018502  1
  O  O320  1  0.36182121  0.10726591  0.35485904  1
  O  O321  1  0.35762953  0.11953490  0.89059278  1
  O  O322  1  0.37130880  0.61656378  0.40323222  1
  O  O323  1  0.37168759  0.61910102  0.89341052  1
  O  O324  1  0.85450934  0.16696075  0.44096852  1
  O  O325  1  0.88442642  0.12990866  0.87413953  1
  O  O326  1  0.86774180  0.61573612  0.37736382  1
  O  O327  1  0.87831497  0.63490581  0.86400320  1
  O  O328  1  0.12175883  0.36863910  0.14000000  1
  O  O329  1  0.07310878  0.38966529  0.69474851  1
  O  O330  1  0.13446114  0.86028703  0.13965419  1
  O  O331  1  0.13674863  0.86971952  0.63408134  1
  O  O332  1  0.62739471  0.37062058  0.14878394  1
  O  O333  1  0.73860516  0.31972443  0.52867109  1
  O  O334  1  0.64402218  0.86392672  0.11854828  1
  O  O335  1  0.66166892  0.87181842  0.61386844  1
  O  O336  1  0.10527961  0.25704411  0.24918413  1
  O  O337  1  0.08164021  0.24922629  0.73779791  1
  O  O338  1  0.12799292  0.75475832  0.25866641  1
  O  O339  1  0.11968364  0.75352820  0.75829440  1
  O  O340  1  0.60371474  0.25670092  0.25204743  1
  O  O341  1  0.63036065  0.18880115  0.77468066  1
  O  O342  1  0.61405833  0.69436247  0.26376492  1
  O  O343  1  0.64858286  0.74883628  0.76238659  1
  O  O344  1  0.38191747  0.24545986  0.24365440  1
  O  O345  1  0.28850897  0.31197944  0.71437127  1
  O  O346  1  0.37180949  0.74118335  0.23501692  1
  O  O347  1  0.37427156  0.74923093  0.72947399  1
  O  O348  1  0.89438531  0.24430252  0.25570701  1
  O  O349  1  0.85333962  0.21367238  0.75876210  1
  O  O350  1  0.89279500  0.74969566  0.25765062  1
  O  O351  1  0.88548975  0.74438677  0.74215123  1
  O  O352  1  0.39433413  0.49515789  0.48236356  1
  O  O353  1  0.35154259  0.49016846  1.03034733  1
  O  O354  1  0.37327564  0.98093010  0.52879206  1
  O  O355  1  0.38503036  0.99613073  1.00953128  1
  O  O356  1  0.88377030  0.50636724  0.48453213  1
  O  O357  1  0.89285359  0.49049839  1.00271505  1
  O  O358  1  0.90755846  0.97994418  0.50439173  1
  O  O359  1  0.88981622  0.98976307  1.00464716  1
  O  O360  1  0.11855144  -0.00655030  0.01261471  1
  O  O361  1  0.12298393  -0.00851255  0.51580469  1
  O  O362  1  0.14245125  0.52108504  0.00337301  1
  O  O363  1  0.10558115  0.51530492  0.48648356  1
  O  O364  1  0.65542697  -0.00008529  0.02078838  1
  O  O365  1  0.66268535  0.02232428  0.52604360  1
  O  O366  1  0.63164962  0.48771979  -0.01363499  1
  O  O367  1  0.62734193  0.51918276  0.49693071  1
  O  O368  1  0.37620481  0.36980491  0.12593207  1
  O  O369  1  0.37347798  0.39668985  0.59191018  1
  O  O370  1  0.40107419  0.85228827  0.12523169  1
  O  O371  1  0.36276040  0.86920978  0.62791871  1
  O  O372  1  0.90349284  0.34826844  0.12400701  1
  O  O373  1  0.89327860  0.33654866  0.63017451  1
  O  O374  1  0.86030344  0.87332731  0.10939900  1
  O  O375  1  0.88307084  0.86179017  0.61468397  1
  O  O376  1  0.13647497  0.15083634  0.38150292  1
  O  O377  1  0.12284033  0.13189121  0.88943909  1
  O  O378  1  0.12481048  0.63415241  0.38173828  1
  O  O379  1  0.11906229  0.64185275  0.88972178  1
  O  O380  1  0.61740246  0.14026363  0.35708313  1
  O  O381  1  0.52832398  0.14837783  0.92829199  1
  O  O382  1  0.65577686  0.62484798  0.38989313  1
  O  O383  1  0.63304528  0.61018514  0.88300893  1
