# generated using pymatgen
data_VZnO4
_symmetry_space_group_name_H-M   'P 1'
_cell_length_a   17.23116663
_cell_length_b   17.12155375
_cell_length_c   17.08127309
_cell_angle_alpha   90.63977951
_cell_angle_beta   89.38527356
_cell_angle_gamma   89.63287713
_symmetry_Int_Tables_number   1
_chemical_formula_structural   VZnO4
_chemical_formula_sum   'V64 Zn64 O256'
_cell_volume   5038.67986051
_cell_formula_units_Z   64
loop_
 _symmetry_equiv_pos_site_id
 _symmetry_equiv_pos_as_xyz
  1  'x, y, z'
loop_
 _atom_site_type_symbol
 _atom_site_label
 _atom_site_symmetry_multiplicity
 _atom_site_fract_x
 _atom_site_fract_y
 _atom_site_fract_z
 _atom_site_occupancy
  V  V0  1  -0.02436187  0.51292875  -0.00613091  1
  V  V1  1  0.11257349  0.75833885  0.86845251  1
  V  V2  1  0.25768188  0.74670698  -0.01400707  1
  V  V3  1  0.33438326  0.49163035  0.91226365  1
  V  V4  1  0.11591904  0.63349088  -0.01365779  1
  V  V5  1  0.59048299  0.22791321  0.74557994  1
  V  V6  1  0.00589924  0.50512835  0.49012240  1
  V  V7  1  0.38475398  0.60101362  0.77850232  1
  V  V8  1  0.57670247  0.37844213  0.94493230  1
  V  V9  1  0.21918186  0.51845247  0.73571133  1
  V  V10  1  0.11453268  0.26919975  0.88332329  1
  V  V11  1  0.73792697  -0.00485142  0.76082172  1
  V  V12  1  0.24915244  0.85001548  0.13300998  1
  V  V13  1  0.48360822  0.03594382  0.47354240  1
  V  V14  1  0.85351086  0.87581780  0.49775994  1
  V  V15  1  0.27206229  -0.00008893  0.25221080  1
  V  V16  1  0.75738339  0.63549405  0.38965321  1
  V  V17  1  -0.02430657  0.25970875  0.73542044  1
  V  V18  1  0.24212074  0.49986822  0.23524267  1
  V  V19  1  0.60902253  0.01263738  0.12427380  1
  V  V20  1  0.50880746  0.74432062  0.75313861  1
  V  V21  1  0.86689377  0.75659760  0.61556619  1
  V  V22  1  -0.00783926  0.75472355  0.73976839  1
  V  V23  1  0.41225585  0.24116609  0.27126158  1
  V  V24  1  0.24894185  0.30226025  0.49931403  1
  V  V25  1  -0.00442598  -0.00351179  0.51449507  1
  V  V26  1  0.89548188  0.87533379  -0.03088816  1
  V  V27  1  0.73737358  0.51864699  0.73460890  1
  V  V28  1  0.75204347  0.36484002  0.61851572  1
  V  V29  1  0.12280217  0.87725981  0.74138503  1
  V  V30  1  0.90754062  0.23272045  0.13578334  1
  V  V31  1  0.91671363  0.02473494  0.86921739  1
  V  V32  1  0.01484811  0.37403601  0.36683769  1
  V  V33  1  0.87672630  0.37389677  0.49628059  1
  V  V34  1  0.67921620  0.34508255  0.27786432  1
  V  V35  1  0.74734735  0.76971191  0.00024238  1
  V  V36  1  0.87333202  0.53683776  0.85061365  1
  V  V37  1  -0.03418046  0.13454231  0.62334646  1
  V  V38  1  0.62274389  0.89840562  0.26528348  1
  V  V39  1  0.85928984  0.62491376  0.24370501  1
  V  V40  1  0.11260201  0.38844631  0.74115776  1
  V  V41  1  0.37409317  0.23969562  0.04232686  1
  V  V42  1  0.14351711  -0.01530126  0.12338339  1
  V  V43  1  0.25724405  0.08112778  0.84785327  1
  V  V44  1  -0.03395702  0.38432825  0.86884511  1
  V  V45  1  -0.00719479  0.63916880  0.12743803  1
  V  V46  1  0.00757125  0.62677510  0.61265140  1
  V  V47  1  0.61543226  -0.02765936  0.60969077  1
  V  V48  1  0.25908423  0.86470438  0.62873241  1
  V  V49  1  0.86340871  0.02304459  0.38845856  1
  V  V50  1  0.87628799  0.77588852  0.13413265  1
  V  V51  1  0.36614714  0.24016362  0.66163714  1
  V  V52  1  0.11868353  0.74252353  0.36725342  1
  V  V53  1  0.03507472  0.10658367  0.11029821  1
  V  V54  1  0.15394915  0.02604077  0.63154821  1
  V  V55  1  0.73047215  0.65034883  0.86505570  1
  V  V56  1  0.21427952  0.34996260  0.09591996  1
  V  V57  1  0.36497287  0.70761766  0.61793271  1
  V  V58  1  0.41489021  0.75532187  0.13376560  1
  V  V59  1  0.60195730  0.61544925  0.48918163  1
  V  V60  1  0.76461865  0.00907845  0.23548070  1
  V  V61  1  0.38924846  0.86293606  0.49703737  1
  V  V62  1  0.11288651  0.49903236  0.11977066  1
  V  V63  1  0.03775551  0.20530323  0.27185380  1
  Zn  Zn64  1  0.23609278  0.16735558  0.16324027  1
  Zn  Zn65  1  0.18069162  0.20878866  0.70462158  1
  Zn  Zn66  1  0.19002485  0.67549916  0.17170993  1
  Zn  Zn67  1  0.17712535  0.69104610  0.67553156  1
  Zn  Zn68  1  0.71280194  0.17785862  0.18343668  1
  Zn  Zn69  1  0.78456786  0.19054243  0.71397449  1
  Zn  Zn70  1  0.62977985  0.75874366  0.35403202  1
  Zn  Zn71  1  0.68388693  0.68329207  0.66626875  1
  Zn  Zn72  1  0.21794518  0.30772519  0.29328994  1
  Zn  Zn73  1  0.29297870  0.32632599  0.80502134  1
  Zn  Zn74  1  0.42193414  0.87657353  0.28626344  1
  Zn  Zn75  1  0.29054426  0.77979404  0.79621894  1
  Zn  Zn76  1  0.86754558  0.28825390  0.31751999  1
  Zn  Zn77  1  0.68056391  0.35017030  0.79379543  1
  Zn  Zn78  1  0.80489114  0.82505190  0.31720914  1
  Zn  Zn79  1  0.80831728  0.81965909  0.80298143  1
  Zn  Zn80  1  0.18606034  0.45060601  0.43227863  1
  Zn  Zn81  1  0.15447304  0.44323651  0.93084826  1
  Zn  Zn82  1  0.23290585  0.94826202  0.44159588  1
  Zn  Zn83  1  0.18714767  0.92644414  0.93303609  1
  Zn  Zn84  1  0.70217042  0.45510822  0.44167465  1
  Zn  Zn85  1  0.76674840  0.44061375  0.93798601  1
  Zn  Zn86  1  0.68146033  0.95346392  0.44895186  1
  Zn  Zn87  1  0.71629512  0.96476663  0.96212656  1
  Zn  Zn88  1  0.31472298  0.07091356  0.00734612  1
  Zn  Zn89  1  0.34567690  0.04854491  0.59362763  1
  Zn  Zn90  1  0.34682765  0.55576863  0.10827955  1
  Zn  Zn91  1  0.30757127  0.49736149  0.56704131  1
  Zn  Zn92  1  0.85970586  0.05032408  0.06394500  1
  Zn  Zn93  1  0.80581753  0.05111802  0.58921897  1
  Zn  Zn94  1  0.81401514  0.59893859  0.04910777  1
  Zn  Zn95  1  0.83275438  0.56546620  0.56089216  1
  Zn  Zn96  1  0.35977257  0.37160087  0.18758530  1
  Zn  Zn97  1  0.46685041  0.35404013  0.82487714  1
  Zn  Zn98  1  0.40586871  0.96085732  0.11137078  1
  Zn  Zn99  1  0.46976688  0.89758120  0.65485806  1
  Zn  Zn100  1  0.93774885  0.43908473  0.18738467  1
  Zn  Zn101  1  0.92951967  0.44930734  0.67746442  1
  Zn  Zn102  1  0.94840407  0.94886222  0.20753914  1
  Zn  Zn103  1  0.92684436  0.93691993  0.69197138  1
  Zn  Zn104  1  0.08024731  -0.00270288  0.32332586  1
  Zn  Zn105  1  0.07965946  0.08632430  0.79737753  1
  Zn  Zn106  1  0.05012190  0.55966952  0.30404686  1
  Zn  Zn107  1  0.04860198  0.57783072  0.80344790  1
  Zn  Zn108  1  0.47060834  0.04045033  0.25556444  1
  Zn  Zn109  1  0.53566499  0.04886663  0.75027880  1
  Zn  Zn110  1  0.75449641  0.50043623  0.25846803  1
  Zn  Zn111  1  0.56209799  0.54857236  0.83684640  1
  Zn  Zn112  1  0.42664562  0.23412729  0.48060116  1
  Zn  Zn113  1  0.41885757  0.18247180  0.84264373  1
  Zn  Zn114  1  0.45564092  0.69571909  0.45163213  1
  Zn  Zn115  1  0.47341561  0.72102387  0.96252518  1
  Zn  Zn116  1  0.94975150  0.19301043  0.44563563  1
  Zn  Zn117  1  0.97718469  0.18017823  0.94049500  1
  Zn  Zn118  1  0.93083815  0.68939875  0.43504968  1
  Zn  Zn119  1  0.93775312  0.70194993  0.93442756  1
  Zn  Zn120  1  0.01793844  0.32410619  0.05809286  1
  Zn  Zn121  1  0.06106127  0.31978835  0.55837417  1
  Zn  Zn122  1  0.06108411  0.82124776  0.06361005  1
  Zn  Zn123  1  0.06158642  0.82133341  0.56610099  1
  Zn  Zn124  1  0.53442979  0.31109810  0.13033723  1
  Zn  Zn125  1  0.55281726  0.32721665  0.60591165  1
  Zn  Zn126  1  0.59708068  0.79854839  0.11993148  1
  Zn  Zn127  1  0.58012798  0.78917778  0.53865356  1
  O  O128  1  0.14532137  0.09349285  0.13265463  1
  O  O129  1  0.15245853  0.12429173  0.63088596  1
  O  O130  1  0.10111207  0.62620075  0.11024244  1
  O  O131  1  0.10502201  0.64431988  0.60344243  1
  O  O132  1  0.64162366  0.10905470  0.12951381  1
  O  O133  1  0.67608552  0.15358416  0.52398178  1
  O  O134  1  0.57250262  0.60111724  0.09200610  1
  O  O135  1  0.62353635  0.68208204  0.56898589  1
  O  O136  1  0.41825041  0.45158301  0.38068459  1
  O  O137  1  0.36870019  0.40479811  0.86374092  1
  O  O138  1  0.40167289  0.85697309  0.39951311  1
  O  O139  1  0.37128211  0.85716920  0.85541399  1
  O  O140  1  0.89341179  0.37437105  0.38723950  1
  O  O141  1  0.86757868  0.41202376  0.86929654  1
  O  O142  1  0.87148968  0.88581644  0.39618268  1
  O  O143  1  0.89563703  0.86098571  0.87153793  1
  O  O144  1  0.28703598  -0.02298629  0.34823283  1
  O  O145  1  0.23809693  -0.01798376  0.85243801  1
  O  O146  1  0.23671165  0.47748224  0.33178476  1
  O  O147  1  0.23936190  0.50148636  0.88263218  1
  O  O148  1  0.76455056  0.01538898  0.40087460  1
  O  O149  1  0.72244028  0.00938965  0.85898895  1
  O  O150  1  0.75625466  0.53025322  0.36858505  1
  O  O151  1  0.76324299  0.53158831  0.86144675  1
  O  O152  1  0.21208534  0.50538407  0.10905842  1
  O  O153  1  0.22082763  0.51432067  0.63769970  1
  O  O154  1  0.25548464  0.96194541  0.13422900  1
  O  O155  1  0.25187798  0.98676054  0.62672648  1
  O  O156  1  0.72513587  0.53159798  0.08980260  1
  O  O157  1  0.75043057  0.53762738  0.63675845  1
  O  O158  1  0.78627697  1.00509813  0.13699096  1
  O  O159  1  0.70472083  1.00403243  0.57412500  1
  O  O160  1  -0.00001607  0.38860418  0.27025025  1
  O  O161  1  -0.01470490  0.37953922  0.75306263  1
  O  O162  1  0.01571338  0.91513230  0.28508379  1
  O  O163  1  0.01345290  0.86468036  0.72822335  1
  O  O164  1  0.45817780  0.32452036  0.21912903  1
  O  O165  1  0.56333711  0.32885740  0.75695202  1
  O  O166  1  0.52509136  0.92823359  0.27490071  1
  O  O167  1  0.50239365  0.84365468  0.74663563  1
  O  O168  1  0.44863311  0.15189347  0.24655921  1
  O  O169  1  0.52593269  0.15713924  0.78954059  1
  O  O170  1  0.42339636  0.59924777  0.30941624  1
  O  O171  1  0.48141143  0.58784107  0.76137406  1
  O  O172  1  1.04588082  0.11028573  0.29474496  1
  O  O173  1  1.00127503  0.15041351  0.72775447  1
  O  O174  1  0.98746471  0.62317212  0.22930268  1
  O  O175  1  1.00311324  0.64635093  0.72681098  1
  O  O176  1  0.38078601  0.22922807  -0.05751936  1
  O  O177  1  0.32925009  0.24907179  0.54111884  1
  O  O178  1  0.35339095  0.73133253  -0.02542207  1
  O  O179  1  0.37673506  0.74881068  0.51694685  1
  O  O180  1  0.93776024  0.23376360  0.03352272  1
  O  O181  1  0.89012125  0.27498041  0.50281048  1
  O  O182  1  0.88009927  0.77144103  0.00563258  1
  O  O183  1  0.88326897  0.76864140  0.50509726  1
  O  O184  1  0.16050311  0.27338705  0.53649406  1
  O  O185  1  0.09260515  0.28244896  0.98014800  1
  O  O186  1  0.10282928  0.76578024  0.46784641  1
  O  O187  1  0.10282357  0.74367117  0.98463455  1
  O  O188  1  0.52312809  0.30086282  0.49149768  1
  O  O189  1  0.72580639  0.16285562  1.00370430  1
  O  O190  1  0.55392173  0.74809749  0.43750886  1
  O  O191  1  0.65176874  0.77857387  1.01688244  1
  O  O192  1  0.46582674  0.23742413  0.07627926  1
  O  O193  1  0.59141689  0.21255370  0.64917313  1
  O  O194  1  0.49906566  0.76057961  0.07064055  1
  O  O195  1  0.46097384  0.72177065  0.65358492  1
  O  O196  1  1.03538680  0.20406851  0.15598579  1
  O  O197  1  0.99246278  0.25617571  0.63208226  1
  O  O198  1  0.98885829  0.74500905  0.12103835  1
  O  O199  1  0.99602043  0.74943812  0.62554106  1
  O  O200  1  0.00710222  0.25955821  0.36941428  1
  O  O201  1  -0.02982931  0.28290193  0.86301063  1
  O  O202  1  0.01392972  0.74331452  0.36461965  1
  O  O203  1  0.00279894  0.74674777  0.84859353  1
  O  O204  1  0.41744094  0.25503154  0.36949460  1
  O  O205  1  0.52957617  0.29822663  0.91092165  1
  O  O206  1  0.41771401  0.66768465  0.33470660  1
  O  O207  1  0.48194865  0.72674955  0.85077504  1
  O  O208  1  0.25698132  0.06962300  0.49030066  1
  O  O209  1  0.23977717  0.11715400  0.94059454  1
  O  O210  1  0.26068438  0.56797045  0.47082271  1
  O  O211  1  0.21438150  0.63763130  0.99600976  1
  O  O212  1  0.74537793  0.15021578  0.50519109  1
  O  O213  1  0.77122723  0.10689903  0.98988969  1
  O  O214  1  0.78085885  0.63569089  0.48467611  1
  O  O215  1  0.75901926  0.66185293  0.97613342  1
  O  O216  1  0.21486766  0.38044228  0.00121765  1
  O  O217  1  0.25859273  0.40604091  0.50987199  1
  O  O218  1  0.24421159  0.84773176  -0.00566570  1
  O  O219  1  0.27947332  0.87693649  0.51645517  1
  O  O220  1  0.79820322  0.34848996  0.01899098  1
  O  O221  1  0.76931444  0.38521415  0.50441898  1
  O  O222  1  0.77788004  0.87286108  -0.01765676  1
  O  O223  1  0.75676856  0.87318510  0.50056095  1
  O  O224  1  0.11743746  0.51007578  0.22435244  1
  O  O225  1  0.11144751  0.49694555  0.75827043  1
  O  O226  1  0.16719882  0.98384637  0.24325614  1
  O  O227  1  0.11153610  0.99110167  0.72063236  1
  O  O228  1  0.70227255  0.41756026  0.21009797  1
  O  O229  1  0.64166155  0.51272697  0.75606035  1
  O  O230  1  0.65175300  1.00630131  0.23524432  1
  O  O231  1  0.63985491  0.99939029  0.71785428  1
  O  O232  1  0.37857497  -0.03359693  0.22474526  1
  O  O233  1  0.38174199  -0.07572060  0.83061050  1
  O  O234  1  0.34341511  0.48503015  0.19838729  1
  O  O235  1  0.33347289  0.52129767  0.74237092  1
  O  O236  1  0.87002287  0.00057687  0.28192280  1
  O  O237  1  0.87526541  -0.00760522  0.78091170  1
  O  O238  1  0.86956509  0.51972828  0.23078257  1
  O  O239  1  0.86773573  0.52007314  0.75021567  1
  O  O240  1  0.11352433  0.37809746  0.37634828  1
  O  O241  1  0.08684302  0.38239458  0.86157756  1
  O  O242  1  0.12293806  0.84012905  0.34032885  1
  O  O243  1  0.12003295  0.86455298  0.85776740  1
  O  O244  1  0.65064293  0.39552157  0.36045531  1
  O  O245  1  0.67601455  0.37789477  0.90521837  1
  O  O246  1  0.63992326  0.88414508  0.36904459  1
  O  O247  1  0.54912529  0.93754383  0.87202674  1
  O  O248  1  0.32340020  0.15914462  0.08200489  1
  O  O249  1  0.37162928  0.13988167  0.65226408  1
  O  O250  1  0.37898511  0.66138643  0.12776784  1
  O  O251  1  0.35346649  0.61342416  0.59741305  1
  O  O252  1  0.92649043  0.11151875  0.12765792  1
  O  O253  1  0.86902503  0.14793542  0.61370884  1
  O  O254  1  0.88070836  0.64399508  0.12821783  1
  O  O255  1  0.89330330  0.65116664  0.61232098  1
  O  O256  1  0.18918394  0.25688565  0.10794911  1
  O  O257  1  0.27015250  0.27220854  0.68375213  1
  O  O258  1  0.23461823  0.74498954  0.09724366  1
  O  O259  1  0.26183568  0.75213267  0.62636867  1
  O  O260  1  0.80986194  0.22271044  0.13831103  1
  O  O261  1  0.75917943  0.26884470  0.63112439  1
  O  O262  1  0.77482413  0.76385862  0.10299134  1
  O  O263  1  0.77129878  0.74632656  0.62961214  1
  O  O264  1  0.24844315  0.28996764  0.40083543  1
  O  O265  1  0.21245486  0.27321048  0.86802468  1
  O  O266  1  0.21591535  0.73495750  0.39076556  1
  O  O267  1  0.22339053  0.74312576  0.88038584  1
  O  O268  1  0.64868771  0.27341164  0.45390549  1
  O  O269  1  0.79854299  0.28539529  0.98151942  1
  O  O270  1  0.74652395  0.73810515  0.36058487  1
  O  O271  1  0.74473377  0.75597998  0.87169934  1
  O  O272  1  0.03776735  0.10742602  0.01377821  1
  O  O273  1  0.00305900  0.13094611  0.52662933  1
  O  O274  1  -0.00814265  0.62818696  0.00675625  1
  O  O275  1  -0.00989183  0.61481615  0.49901040  1
  O  O276  1  0.52829804  0.11104780  -0.02038676  1
  O  O277  1  0.46857249  0.12878503  0.50556978  1
  O  O278  1  0.51206475  0.60793718  -0.02624978  1
  O  O279  1  0.50361528  0.59799199  0.48196000  1
  O  O280  1  0.52506384  0.45566326  0.62644326  1
  O  O281  1  0.57006981  0.37879125  1.04602238  1
  O  O282  1  0.47923031  0.85627505  0.54365251  1
  O  O283  1  0.52570754  0.89943673  0.93104496  1
  O  O284  1  0.99774198  0.38669135  0.49172521  1
  O  O285  1  0.98225029  0.40487305  0.97595948  1
  O  O286  1  0.99237467  0.89634942  0.51840586  1
  O  O287  1  0.98978118  0.87892809  0.99876344  1
  O  O288  1  0.48878448  0.44334243  0.38414216  1
  O  O289  1  0.53060708  0.45478718  0.89267929  1
  O  O290  1  0.47901790  1.03742025  0.37619590  1
  O  O291  1  0.50337345  1.00123561  0.85223958  1
  O  O292  1  1.00350275  0.49410587  0.38346222  1
  O  O293  1  0.97853235  0.51227424  0.87105713  1
  O  O294  1  0.98072546  1.01484662  0.41608520  1
  O  O295  1  1.01396620  1.01432395  0.85857965  1
  O  O296  1  0.03396758  -0.00003202  0.14179066  1
  O  O297  1  -0.03258447  0.02664952  0.62667554  1
  O  O298  1  -0.00735229  0.51646781  0.10980261  1
  O  O299  1  -0.00423429  0.52357657  0.61784086  1
  O  O300  1  0.50818218  0.01777287  0.13922223  1
  O  O301  1  0.51338440  0.00282216  0.64650916  1
  O  O302  1  0.52419948  0.57085226  0.04512919  1
  O  O303  1  0.46264327  0.49156910  0.60655072  1
  O  O304  1  0.22984207  0.38473776  0.20237005  1
  O  O305  1  0.21577251  0.40085295  0.75585743  1
  O  O306  1  0.26130656  0.83463826  0.22682566  1
  O  O307  1  0.23398953  0.86128331  0.73836499  1
  O  O308  1  0.76090523  0.29098077  0.29636643  1
  O  O309  1  0.75326822  0.40770506  0.72640875  1
  O  O310  1  0.74719291  0.90454403  0.26355927  1
  O  O311  1  0.76059944  0.89936902  0.74078266  1
  O  O312  1  0.27647447  0.09815382  0.24414742  1
  O  O313  1  0.19113023  0.12200281  0.77986739  1
  O  O314  1  0.24592528  0.60057839  0.23024870  1
  O  O315  1  0.20634391  0.61616530  0.75566417  1
  O  O316  1  0.75675976  0.10723683  0.26005762  1
  O  O317  1  0.77358697  0.07665315  0.70455050  1
  O  O318  1  0.76096938  0.62355815  0.23964270  1
  O  O319  1  0.74307811  0.63310609  0.75934958  1
  O  O320  1  0.25010431  0.12443091  0.44217564  1
  O  O321  1  0.35405330  0.09396903  0.82167571  1
  O  O322  1  0.30728783  0.59866987  0.42318837  1
  O  O323  1  0.37521623  0.58486051  0.88022557  1
  O  O324  1  0.87578367  0.12171323  0.39658844  1
  O  O325  1  0.89826554  0.12181234  0.88105435  1
  O  O326  1  0.87021504  0.64240323  0.34844020  1
  O  O327  1  0.87451395  0.63682860  0.86326068  1
  O  O328  1  0.10197751  0.39638762  0.10819064  1
  O  O329  1  0.09842470  0.38789051  0.64471249  1
  O  O330  1  0.13884106  0.86954017  0.12800821  1
  O  O331  1  0.14687122  0.86557085  0.62534244  1
  O  O332  1  0.63149707  0.27196113  0.19016954  1
  O  O333  1  0.65354482  0.37798594  0.60778130  1
  O  O334  1  0.62491704  0.90352121  0.14793225  1
  O  O335  1  0.61954430  0.87350137  0.60609731  1
  O  O336  1  0.12964317  0.24195425  0.26887044  1
  O  O337  1  0.09823570  0.27754467  0.75747706  1
  O  O338  1  0.13199299  0.72345358  0.26609732  1
  O  O339  1  0.11313857  0.75978996  0.74959997  1
  O  O340  1  0.60002242  0.26968407  0.27036999  1
  O  O341  1  0.68925591  0.22914648  0.77685829  1
  O  O342  1  0.61633605  0.79438627  0.24128451  1
  O  O343  1  0.60271701  0.71993571  0.73738431  1
  O  O344  1  0.31453864  0.25591763  0.24200614  1
  O  O345  1  0.39223399  0.27068211  0.77093010  1
  O  O346  1  0.44075812  0.77840808  0.22684047  1
  O  O347  1  0.34886764  0.69479467  0.74484658  1
  O  O348  1  0.92797959  0.22611148  0.24648750  1
  O  O349  1  0.87922996  0.25038749  0.74565426  1
  O  O350  1  0.86503292  0.75005075  0.23306226  1
  O  O351  1  0.88960678  0.76635433  0.73310636  1
  O  O352  1  0.40988682  0.44659319  0.56581884  1
  O  O353  1  0.34989094  0.49820888  1.01014388  1
  O  O354  1  0.39793008  0.98168718  0.51230690  1
  O  O355  1  0.37939060  0.98723972  1.01055290  1
  O  O356  1  0.89422779  0.48943767  0.50163200  1
  O  O357  1  0.86903550  0.52224512  0.98073018  1
  O  O358  1  0.87297831  0.99154491  0.50971701  1
  O  O359  1  0.87869696  0.98775422  0.96798435  1
  O  O360  1  0.14726183  -0.01852828  0.02391929  1
  O  O361  1  0.09899333  0.00399490  0.54861553  1
  O  O362  1  0.09624976  0.52179485  -0.00184860  1
  O  O363  1  0.10464314  0.49883517  0.49979631  1
  O  O364  1  0.63185581  -0.00730370  0.02609853  1
  O  O365  1  0.57785013  -0.00492708  0.50267635  1
  O  O366  1  0.69730666  0.48979038  0.03307975  1
  O  O367  1  0.64176490  0.52707299  0.50863312  1
  O  O368  1  0.32756310  0.32848395  0.08275008  1
  O  O369  1  0.44518076  0.29145942  0.62674713  1
  O  O370  1  0.35918634  0.83969907  0.10559033  1
  O  O371  1  0.35853448  0.86884130  0.64485907  1
  O  O372  1  0.92783158  0.33917324  0.13532014  1
  O  O373  1  0.86352085  0.38948668  0.61117968  1
  O  O374  1  0.89419927  0.87374156  0.13766984  1
  O  O375  1  0.87530742  0.86693547  0.61397618  1
  O  O376  1  0.12862111  -0.04320769  0.41581861  1
  O  O377  1  0.07506983  0.17463437  0.87398420  1
  O  O378  1  0.10933410  0.63804518  0.37417701  1
  O  O379  1  0.10385277  0.63612289  0.88367584  1
  O  O380  1  0.57903579  0.26373009  0.43632658  1
  O  O381  1  0.58683982  0.13917672  0.95083167  1
  O  O382  1  0.64804318  0.63484363  0.39399093  1
  O  O383  1  0.63661199  0.62990751  0.87822224  1
