# generated using pymatgen
data_VZnO4
_symmetry_space_group_name_H-M   'P 1'
_cell_length_a   16.89183489
_cell_length_b   16.91764368
_cell_length_c   16.87203892
_cell_angle_alpha   90.06586482
_cell_angle_beta   90.21082030
_cell_angle_gamma   90.07665185
_symmetry_Int_Tables_number   1
_chemical_formula_structural   VZnO4
_chemical_formula_sum   'V64 Zn64 O256'
_cell_volume   4821.48313408
_cell_formula_units_Z   64
loop_
 _symmetry_equiv_pos_site_id
 _symmetry_equiv_pos_as_xyz
  1  'x, y, z'
loop_
 _atom_site_type_symbol
 _atom_site_label
 _atom_site_symmetry_multiplicity
 _atom_site_fract_x
 _atom_site_fract_y
 _atom_site_fract_z
 _atom_site_occupancy
  V  V0  1  0.24665518  0.88027119  0.61932345  1
  V  V1  1  0.63390164  0.25917988  0.87551478  1
  V  V2  1  -0.00356486  0.25549286  0.72981113  1
  V  V3  1  0.59392782  0.48114423  0.09792004  1
  V  V4  1  0.76262611  0.62429759  0.91003525  1
  V  V5  1  0.13423287  0.13868095  0.50076996  1
  V  V6  1  0.74424225  0.12274972  0.89097996  1
  V  V7  1  0.12247852  0.37099807  0.25910929  1
  V  V8  1  0.53170132  0.00841224  0.00736155  1
  V  V9  1  0.63507751  0.28667962  0.36999798  1
  V  V10  1  0.37316435  0.12592073  0.76271872  1
  V  V11  1  0.48418758  0.12057067  0.57654576  1
  V  V12  1  0.14581050  0.70976031  0.37682266  1
  V  V13  1  0.46642331  0.37733648  0.40428150  1
  V  V14  1  0.36175833  0.90436910  0.00514837  1
  V  V15  1  0.01811059  0.63084536  0.14016460  1
  V  V16  1  0.11357296  0.88350772  0.75645094  1
  V  V17  1  0.87361724  0.37621333  -0.01021966  1
  V  V18  1  0.86135271  0.40125125  0.49079514  1
  V  V19  1  0.12672215  0.37971124  0.72483576  1
  V  V20  1  0.59629620  0.65314813  -0.00193071  1
  V  V21  1  0.87542924  0.85164147  0.02024504  1
  V  V22  1  0.38840099  0.76380742  0.67044482  1
  V  V23  1  0.87696909  0.86264267  0.51926773  1
  V  V24  1  0.36766173  0.51355471  0.88916394  1
  V  V25  1  0.00923850  -0.01325316  0.50074895  1
  V  V26  1  0.50982270  0.88506403  0.86694996  1
  V  V27  1  0.74550114  0.40598167  0.63202927  1
  V  V28  1  0.49222542  0.51094082  0.50582652  1
  V  V29  1  0.10958943  0.90025644  0.25661989  1
  V  V30  1  0.87876242  -0.01545695  0.36980371  1
  V  V31  1  0.01401977  0.50458676  -0.00471520  1
  V  V32  1  0.48589180  0.73986281  0.25408719  1
  V  V33  1  0.24849264  0.33661789  0.12285912  1
  V  V34  1  0.88636096  0.00396743  0.87642602  1
  V  V35  1  0.87871502  0.63304135  0.76856446  1
  V  V36  1  0.38021592  0.86742464  0.49305862  1
  V  V37  1  0.74185690  0.38224775  0.13307477  1
  V  V38  1  0.75758311  0.23379074  0.50707246  1
  V  V39  1  0.24427923  0.12409979  0.36088034  1
  V  V40  1  0.52434322  0.88654318  0.37097358  1
  V  V41  1  0.69841155  0.70887416  0.50865441  1
  V  V42  1  0.25024394  0.00735263  0.75715339  1
  V  V43  1  0.25377593  0.74711609  0.00043712  1
  V  V44  1  0.50464365  0.11693164  0.15687765  1
  V  V45  1  0.15063409  0.61447398  0.52881690  1
  V  V46  1  0.36115204  0.31336147  -0.01127415  1
  V  V47  1  0.14997260  0.50133650  0.12225364  1
  V  V48  1  -0.00329035  0.11996102  0.61382866  1
  V  V49  1  0.74032709  0.86833215  0.63639270  1
  V  V50  1  0.87173269  0.25772968  0.12050151  1
  V  V51  1  0.88757830  0.14134939  0.26047372  1
  V  V52  1  0.85966661  0.12945601  0.73514343  1
  V  V53  1  0.31336423  0.32403750  0.57811341  1
  V  V54  1  0.01397987  0.36510514  0.87633454  1
  V  V55  1  0.36390234  -0.00247444  0.36775868  1
  V  V56  1  -0.01460209  0.63363897  0.63440025  1
  V  V57  1  -0.00784702  0.11940148  0.10890808  1
  V  V58  1  0.12177536  0.73810394  0.87436421  1
  V  V59  1  0.74321074  0.50608732  0.76861399  1
  V  V60  1  -0.00409830  0.51145230  0.49381823  1
  V  V61  1  0.51054089  0.23909560  0.74934968  1
  V  V62  1  0.13984974  0.00935355  0.10865402  1
  V  V63  1  0.74579001  0.12448245  0.36702423  1
  Zn  Zn64  1  0.16321532  0.18403928  0.19578835  1
  Zn  Zn65  1  0.18455689  0.19151859  0.68360154  1
  Zn  Zn66  1  0.16440378  0.73254460  0.18144394  1
  Zn  Zn67  1  0.18216973  0.71103706  0.68247781  1
  Zn  Zn68  1  0.68009772  0.19750584  0.18351964  1
  Zn  Zn69  1  0.66604251  0.17637686  0.67007738  1
  Zn  Zn70  1  0.62326646  0.63176837  0.20156053  1
  Zn  Zn71  1  0.71443624  0.71258448  0.71290374  1
  Zn  Zn72  1  0.27049409  0.33092243  0.34114789  1
  Zn  Zn73  1  0.33315128  0.32980878  0.76630867  1
  Zn  Zn74  1  0.29247575  0.81333457  0.30448906  1
  Zn  Zn75  1  0.30876785  0.83536825  0.83300079  1
  Zn  Zn76  1  0.81007163  0.31849930  0.31286652  1
  Zn  Zn77  1  0.81111973  0.31040767  0.80536059  1
  Zn  Zn78  1  0.66739121  0.78752691  0.32844811  1
  Zn  Zn79  1  0.80151724  0.81795669  0.84266669  1
  Zn  Zn80  1  0.17343637  0.43134285  0.46483671  1
  Zn  Zn81  1  0.22687241  0.38472334  0.89761302  1
  Zn  Zn82  1  0.18806429  0.93620336  0.43706240  1
  Zn  Zn83  1  0.18178644  0.94672439  0.93545332  1
  Zn  Zn84  1  0.67648570  0.47287512  0.44407738  1
  Zn  Zn85  1  0.69805432  0.42906573  0.93986023  1
  Zn  Zn86  1  0.69817293  0.95364232  0.45914199  1
  Zn  Zn87  1  0.70039224  0.93560992  0.93383306  1
  Zn  Zn88  1  0.33287416  0.08008067  0.08905126  1
  Zn  Zn89  1  0.31298613  0.05148133  0.55923751  1
  Zn  Zn90  1  0.19528636  0.56570694  -0.05964085  1
  Zn  Zn91  1  0.35281404  0.65437069  0.53316100  1
  Zn  Zn92  1  0.82063352  0.06283441  0.06029675  1
  Zn  Zn93  1  0.80843817  0.04250604  0.56826534  1
  Zn  Zn94  1  0.83333392  0.55482122  0.09500509  1
  Zn  Zn95  1  0.81199190  0.57152707  0.57384730  1
  Zn  Zn96  1  0.37434817  0.46965153  0.09856354  1
  Zn  Zn97  1  0.45455511  0.43229884  0.68022371  1
  Zn  Zn98  1  0.44394993  0.93349939  0.18761498  1
  Zn  Zn99  1  0.44222160  0.95204855  0.67467962  1
  Zn  Zn100  1  0.95288755  0.45720871  0.19918780  1
  Zn  Zn101  1  0.92758659  0.45011629  0.68447191  1
  Zn  Zn102  1  0.93154841  0.93358293  0.18711000  1
  Zn  Zn103  1  0.90388950  0.91781246  0.71601907  1
  Zn  Zn104  1  0.05950575  0.06347912  0.31624443  1
  Zn  Zn105  1  0.05287549  0.05517380  0.79042992  1
  Zn  Zn106  1  0.09684852  0.56202663  0.31023570  1
  Zn  Zn107  1  0.06099210  0.55512017  0.80897250  1
  Zn  Zn108  1  0.53021481  0.09573718  0.37193666  1
  Zn  Zn109  1  0.55572736  0.06553585  0.81970901  1
  Zn  Zn110  1  0.49271183  0.52359270  0.25735716  1
  Zn  Zn111  1  0.57927199  0.51869529  0.87628946  1
  Zn  Zn112  1  0.38566338  0.21230427  0.43372460  1
  Zn  Zn113  1  0.45040323  0.17701192  0.93986902  1
  Zn  Zn114  1  0.50761961  0.69192520  0.44242256  1
  Zn  Zn115  1  0.42355965  0.70806863  0.91696659  1
  Zn  Zn116  1  0.93681192  0.21070254  0.44190352  1
  Zn  Zn117  1  0.93072803  0.19169301  0.92760942  1
  Zn  Zn118  1  0.97127690  0.70397167  0.43789716  1
  Zn  Zn119  1  0.94269195  0.69185430  0.94368985  1
  Zn  Zn120  1  0.05412478  0.31463589  0.07648542  1
  Zn  Zn121  1  0.05002488  0.31568075  0.54311704  1
  Zn  Zn122  1  0.06339401  0.82382504  0.05519323  1
  Zn  Zn123  1  0.07302085  0.80201268  0.56240142  1
  Zn  Zn124  1  0.55827291  0.29177425  0.06253171  1
  Zn  Zn125  1  0.57508197  0.30413576  0.55995804  1
  Zn  Zn126  1  0.53965375  0.81840177  0.06973879  1
  Zn  Zn127  1  0.55637522  0.81963403  0.57182042  1
  O  O128  1  0.09950178  0.11892675  0.12713161  1
  O  O129  1  0.10786212  0.13156880  0.61277530  1
  O  O130  1  0.13546565  0.60261898  0.11946856  1
  O  O131  1  0.12010292  0.62648099  0.63090237  1
  O  O132  1  0.66628374  0.08732253  0.13771616  1
  O  O133  1  0.64020439  0.04550114  0.67069625  1
  O  O134  1  0.61841407  0.59919499  0.08700869  1
  O  O135  1  0.59993603  0.63273143  0.65915520  1
  O  O136  1  0.38206755  0.32281703  0.37236341  1
  O  O137  1  0.34304659  0.34513412  0.88562700  1
  O  O138  1  0.36055775  0.88157157  0.38440348  1
  O  O139  1  0.38905693  0.89371237  0.89582593  1
  O  O140  1  0.85623826  0.39130678  0.39047388  1
  O  O141  1  0.87975266  0.36932547  0.88668335  1
  O  O142  1  0.87311637  0.88800023  0.37128029  1
  O  O143  1  0.87713997  0.90727984  0.83188354  1
  O  O144  1  0.25533761  0.00797071  0.37564411  1
  O  O145  1  0.24757692  0.00760952  0.85679344  1
  O  O146  1  0.30423460  0.53794940  0.36029228  1
  O  O147  1  0.26172113  0.49436852  0.87599682  1
  O  O148  1  0.77455472  0.01664275  0.38474966  1
  O  O149  1  0.75903452  0.01999719  0.86875765  1
  O  O150  1  0.75205132  0.52220550  0.35871520  1
  O  O151  1  0.75938614  0.50811885  0.87576920  1
  O  O152  1  0.24789600  0.48460257  0.10500944  1
  O  O153  1  0.27149703  0.54568710  0.70077616  1
  O  O154  1  0.23764035  1.03017939  0.12357298  1
  O  O155  1  0.25196859  0.98599935  0.63247899  1
  O  O156  1  0.73430569  0.48184444  0.11138130  1
  O  O157  1  0.73655112  0.50915789  0.64591727  1
  O  O158  1  0.76212560  0.99467243  0.13867486  1
  O  O159  1  0.78121131  0.95949715  0.65620587  1
  O  O160  1  0.02281041  0.39288368  0.25753124  1
  O  O161  1  -0.00019450  0.36877108  0.75164822  1
  O  O162  1  0.01384511  0.87009725  0.23704651  1
  O  O163  1  0.01791390  0.89392699  0.73195297  1
  O  O164  1  0.48712924  0.32084938  0.20769187  1
  O  O165  1  0.50408570  0.33309670  0.71325297  1
  O  O166  1  0.51086074  0.87807888  0.26787981  1
  O  O167  1  0.49452385  0.91495065  0.76958634  1
  O  O168  1  0.51813939  0.10801684  0.25675299  1
  O  O169  1  0.48659224  0.12313837  0.74538173  1
  O  O170  1  0.48704967  0.63782260  0.27627251  1
  O  O171  1  0.56433079  0.65308861  0.72346696  1
  O  O172  1  0.98910446  0.13053234  0.24685070  1
  O  O173  1  0.99910922  0.14017272  0.72922069  1
  O  O174  1  1.01421200  0.60612439  0.23781644  1
  O  O175  1  0.98765331  0.61950924  0.74693318  1
  O  O176  1  0.34853658  0.21369933  -0.00886253  1
  O  O177  1  0.39054560  0.27689219  0.52962944  1
  O  O178  1  0.35794463  0.76964597  -0.01046003  1
  O  O179  1  0.36725838  0.76601739  0.49719467  1
  O  O180  1  0.87963732  0.26269131  0.01039372  1
  O  O181  1  0.85287167  0.28161852  0.49755170  1
  O  O182  1  0.87904642  0.74980808  0.01562970  1
  O  O183  1  0.89166319  0.77048672  0.48107510  1
  O  O184  1  0.13430756  0.23757238  0.49933987  1
  O  O185  1  0.10772004  0.22881282  0.99100095  1
  O  O186  1  0.13248692  0.71796432  0.50446110  1
  O  O187  1  0.13328955  0.76490718  0.98042351  1
  O  O188  1  0.65424729  0.25925784  0.48262242  1
  O  O189  1  0.62211034  0.25089482  0.97431567  1
  O  O190  1  0.59413656  0.72203710  0.51563763  1
  O  O191  1  0.61564606  0.74958956  1.01638582  1
  O  O192  1  0.56636856  0.20105364  0.13362397  1
  O  O193  1  0.54909368  0.20010477  0.62019980  1
  O  O194  1  0.49494332  0.75546829  0.15288450  1
  O  O195  1  0.48683979  0.79044222  0.65400068  1
  O  O196  1  0.98268223  0.24085483  0.12676547  1
  O  O197  1  0.98979408  0.24892093  0.62601763  1
  O  O198  1  1.05307155  0.73069666  0.13122226  1
  O  O199  1  1.00721548  0.73247997  0.62496831  1
  O  O200  1  0.01722570  0.28709545  0.43443535  1
  O  O201  1  -0.00832855  0.26169744  0.85806202  1
  O  O202  1  0.04957840  0.74603623  0.37082467  1
  O  O203  1  0.02016659  0.74447244  0.87808679  1
  O  O204  1  0.53048821  0.28334297  0.38794843  1
  O  O205  1  0.51354762  0.24153987  0.85696003  1
  O  O206  1  0.51527685  0.77411451  0.36760342  1
  O  O207  1  0.49773308  0.78411947  0.87506977  1
  O  O208  1  0.23358223  0.11493816  0.50454589  1
  O  O209  1  0.18585140  0.15119422  0.88279797  1
  O  O210  1  0.24981624  0.60477263  0.53731945  1
  O  O211  1  0.25377942  0.64604088  0.99432882  1
  O  O212  1  0.77885744  0.13544152  0.48283474  1
  O  O213  1  0.75616880  0.12912322  0.99008681  1
  O  O214  1  0.72596231  0.61149210  0.50895772  1
  O  O215  1  0.77985128  0.61046870  1.00741557  1
  O  O216  1  0.24676048  0.34575035  0.00855345  1
  O  O217  1  0.26116675  0.37952622  0.50872058  1
  O  O218  1  0.25874674  0.88412340  -0.00741060  1
  O  O219  1  0.24992566  0.87845610  0.51478056  1
  O  O220  1  0.77130224  0.37562652  0.00789193  1
  O  O221  1  0.75322265  0.41640809  0.51409951  1
  O  O222  1  0.78741201  0.86576055  -0.04350061  1
  O  O223  1  0.77119946  0.87544238  0.51690935  1
  O  O224  1  0.14284206  0.48817468  0.23007172  1
  O  O225  1  0.11605721  0.47787156  0.74653872  1
  O  O226  1  0.11589057  1.00436883  0.23434406  1
  O  O227  1  0.13793858  0.99847049  0.74193008  1
  O  O228  1  0.59516379  0.51654872  0.20256628  1
  O  O229  1  0.64126840  0.50746116  0.77608810  1
  O  O230  1  0.69974522  1.02509490  0.17487984  1
  O  O231  1  0.63025054  1.00732146  0.73363427  1
  O  O232  1  0.37393997  -0.01546171  0.26818691  1
  O  O233  1  0.36308799  0.01755034  0.73808070  1
  O  O234  1  0.38424018  0.51976904  0.20457454  1
  O  O235  1  0.42324744  0.47788950  0.79032776  1
  O  O236  1  0.88607916  0.01280592  0.26799154  1
  O  O237  1  0.88928339  0.03102038  0.75258683  1
  O  O238  1  0.86132354  0.51490992  0.19785116  1
  O  O239  1  0.86115127  0.51847694  0.75041898  1
  O  O240  1  0.16748719  0.39054260  0.35742620  1
  O  O241  1  0.11339538  0.36110074  0.87221282  1
  O  O242  1  0.11283910  0.90694835  0.35864259  1
  O  O243  1  0.11680322  0.88911784  0.85883596  1
  O  O244  1  0.66095278  0.38261755  0.36982616  1
  O  O245  1  0.64298655  0.35890838  0.86296582  1
  O  O246  1  0.62688687  0.89538167  0.38739531  1
  O  O247  1  0.61280668  0.89212476  0.87520782  1
  O  O248  1  0.40688251  0.14260113  0.14505865  1
  O  O249  1  0.38691830  0.12867087  0.60541828  1
  O  O250  1  0.35618194  0.60619316  0.18607002  1
  O  O251  1  0.38757988  0.66637904  0.64311873  1
  O  O252  1  0.87573011  0.13744423  0.13568095  1
  O  O253  1  0.88278075  0.12190205  0.62551951  1
  O  O254  1  0.92148879  0.63422121  0.11352163  1
  O  O255  1  0.87895122  0.63731131  0.64201480  1
  O  O256  1  0.23946016  0.23722164  0.12609452  1
  O  O257  1  0.25363994  0.25529416  0.62075899  1
  O  O258  1  0.23670514  0.76103609  0.09976078  1
  O  O259  1  0.27132315  0.77376258  0.64450604  1
  O  O260  1  0.76214629  0.25907168  0.12574644  1
  O  O261  1  0.74440290  0.22976795  0.60710254  1
  O  O262  1  0.69314522  0.83935479  0.16506143  1
  O  O263  1  0.73796144  0.74837147  0.59947297  1
  O  O264  1  0.26521410  0.22214243  0.38655139  1
  O  O265  1  0.17724894  0.20560272  0.98996572  1
  O  O266  1  0.22485768  0.77241727  0.38876165  1
  O  O267  1  0.23427778  0.76232318  0.88163990  1
  O  O268  1  0.74968454  0.23908128  0.37871404  1
  O  O269  1  0.74294878  0.23587268  0.86264268  1
  O  O270  1  0.72441168  0.74702602  0.41789996  1
  O  O271  1  0.75563883  0.72217102  0.89118058  1
  O  O272  1  -0.01522099  0.13142616  0.00941644  1
  O  O273  1  0.00246164  0.12835490  0.50619721  1
  O  O274  1  0.00874436  0.60386419  -0.01133768  1
  O  O275  1  -0.00536915  0.62156584  0.51533730  1
  O  O276  1  0.50844954  0.11190506  0.01396644  1
  O  O277  1  0.48780721  0.13745027  0.47318482  1
  O  O278  1  0.49944919  0.63973651  -0.02116551  1
  O  O279  1  0.44623746  0.60873608  0.48262788  1
  O  O280  1  0.52678568  0.38947991  0.49762250  1
  O  O281  1  0.46361753  0.31834929  1.00086355  1
  O  O282  1  0.48762779  0.86970556  0.48587047  1
  O  O283  1  0.49536661  0.90069571  1.00268695  1
  O  O284  1  0.97378078  0.40393954  0.51373586  1
  O  O285  1  0.99968799  0.36803391  0.98733769  1
  O  O286  1  1.00332651  0.88327514  0.51089438  1
  O  O287  1  0.97448239  0.87266905  1.00058171  1
  O  O288  1  0.49809361  0.43302186  0.32701846  1
  O  O289  1  0.47286834  0.46856391  0.86074135  1
  O  O290  1  0.48571226  0.98585226  0.38075329  1
  O  O291  1  0.50592656  1.00624834  0.90196348  1
  O  O292  1  1.01021447  0.51587812  0.39513818  1
  O  O293  1  1.00769016  0.47939688  0.88526290  1
  O  O294  1  0.98665109  1.01108562  0.39489382  1
  O  O295  1  0.98663627  1.02340341  0.87461105  1
  O  O296  1  -0.02079822  0.01984381  0.12183274  1
  O  O297  1  -0.00350762  0.01624999  0.60985288  1
  O  O298  1  0.02350038  0.50211481  0.11016048  1
  O  O299  1  -0.00922789  0.52316081  0.61965934  1
  O  O300  1  0.50874429  0.01095279  0.12405920  1
  O  O301  1  0.50532463  0.02461667  0.60225923  1
  O  O302  1  0.49737133  0.46238866  0.09703439  1
  O  O303  1  0.49037239  0.50753672  0.60718630  1
  O  O304  1  0.25072747  0.36126835  0.22684351  1
  O  O305  1  0.22096915  0.35759375  0.76234421  1
  O  O306  1  0.19370149  0.83569236  0.24134850  1
  O  O307  1  0.24648291  0.89485397  0.74745385  1
  O  O308  1  0.75408409  0.37875784  0.23177053  1
  O  O309  1  0.76229313  0.39682472  0.74460700  1
  O  O310  1  0.71781585  0.85707455  0.23772074  1
  O  O311  1  0.74231387  0.82510694  0.73393713  1
  O  O312  1  0.23743808  0.12568629  0.26229338  1
  O  O313  1  0.25956568  0.12054749  0.73812890  1
  O  O314  1  0.28766726  0.61931585  0.20772936  1
  O  O315  1  0.25643230  0.60519942  0.73954213  1
  O  O316  1  0.76779240  0.12832547  0.26491489  1
  O  O317  1  0.76027315  0.12946705  0.73340277  1
  O  O318  1  0.73412033  0.60543589  0.25682521  1
  O  O319  1  0.75975179  0.62008640  0.76673160  1
  O  O320  1  0.36172474  0.10710850  0.37842255  1
  O  O321  1  0.37466215  0.12588060  0.86085097  1
  O  O322  1  0.32437844  0.60749889  0.36402574  1
  O  O323  1  0.37660887  0.61140350  0.87460392  1
  O  O324  1  0.88180230  0.14136484  0.36587373  1
  O  O325  1  0.86112255  0.12586734  0.86077232  1
  O  O326  1  0.88295069  0.63875123  0.35625493  1
  O  O327  1  0.87488681  0.61861735  0.87651610  1
  O  O328  1  0.13480357  0.37354421  0.13116683  1
  O  O329  1  0.11808661  0.37007680  0.62431611  1
  O  O330  1  0.11815672  0.90701790  0.12018142  1
  O  O331  1  0.14225558  0.86249549  0.63508852  1
  O  O332  1  0.63189436  0.37376490  0.11279746  1
  O  O333  1  0.65513120  0.36192784  0.62555374  1
  O  O334  1  0.63281399  0.88060287  0.13924305  1
  O  O335  1  0.64320798  0.88254319  0.61220972  1
  O  O336  1  0.12047116  0.26977706  0.25644987  1
  O  O337  1  0.10235647  0.25778735  0.73951193  1
  O  O338  1  0.15956323  0.67195560  0.27915072  1
  O  O339  1  0.12961503  0.77149830  0.76459008  1
  O  O340  1  0.63947560  0.25419445  0.27406021  1
  O  O341  1  0.61697677  0.23055011  0.75735013  1
  O  O342  1  0.60919194  0.73042819  0.25202137  1
  O  O343  1  0.60392798  0.70635590  0.76727050  1
  O  O344  1  0.43059780  0.28148518  0.22921864  1
  O  O345  1  0.39111008  0.23148980  0.74240139  1
  O  O346  1  0.38679771  0.76341152  0.26871744  1
  O  O347  1  0.37661390  0.76425984  0.77029292  1
  O  O348  1  0.87447938  0.24631013  0.24249392  1
  O  O349  1  0.88436795  0.23935695  0.74710944  1
  O  O350  1  0.86819890  0.66742367  0.29080373  1
  O  O351  1  0.87024556  0.73262080  0.77110659  1
  O  O352  1  0.41254821  0.46056044  0.45334200  1
  O  O353  1  0.37923029  0.49364903  0.98707795  1
  O  O354  1  0.36916268  0.98086711  0.48784379  1
  O  O355  1  0.36458722  1.00769515  1.00736028  1
  O  O356  1  0.87848936  0.51061266  0.49831371  1
  O  O357  1  0.90133794  0.47790772  1.01293672  1
  O  O358  1  0.88768182  0.97973995  0.49841538  1
  O  O359  1  0.87100731  0.99832600  0.97858671  1
  O  O360  1  0.12825162  0.01573053  0.00780221  1
  O  O361  1  0.10931947  0.00719520  0.49836860  1
  O  O362  1  0.12258843  0.49134366  0.00175193  1
  O  O363  1  0.10927361  0.50787938  0.51825720  1
  O  O364  1  0.63104281  -0.00409378  0.00913154  1
  O  O365  1  0.69657306  0.03518774  0.53779379  1
  O  O366  1  0.60701831  0.47910391  -0.01236845  1
  O  O367  1  0.58274672  0.53267664  0.46220623  1
  O  O368  1  0.35439541  0.35232705  0.10126276  1
  O  O369  1  0.35229347  0.38183595  0.65948637  1
  O  O370  1  0.38139118  0.88373926  0.10578233  1
  O  O371  1  0.37042709  0.87698012  0.61282557  1
  O  O372  1  0.87195722  0.36422933  0.12219019  1
  O  O373  1  0.85232986  0.38666407  0.61610448  1
  O  O374  1  0.85874441  0.87993214  0.11776693  1
  O  O375  1  0.88295375  0.85197621  0.62052576  1
  O  O376  1  0.13453578  0.11969186  0.38698291  1
  O  O377  1  0.11490026  0.14641054  0.86307560  1
  O  O378  1  0.14824386  0.60547913  0.41087876  1
  O  O379  1  0.13101440  0.63198885  0.86445974  1
  O  O380  1  0.64687976  0.11296179  0.37460589  1
  O  O381  1  0.64082403  0.12654831  0.87040400  1
  O  O382  1  0.71886443  0.58737166  0.33160069  1
  O  O383  1  0.64666731  0.61477739  0.90980384  1
