# generated using pymatgen
data_VZnO4
_symmetry_space_group_name_H-M   'P 1'
_cell_length_a   16.97901524
_cell_length_b   16.90178617
_cell_length_c   17.10923250
_cell_angle_alpha   90.49740204
_cell_angle_beta   89.94014272
_cell_angle_gamma   89.93544568
_symmetry_Int_Tables_number   1
_chemical_formula_structural   VZnO4
_chemical_formula_sum   'V64 Zn64 O256'
_cell_volume   4909.74285379
_cell_formula_units_Z   64
loop_
 _symmetry_equiv_pos_site_id
 _symmetry_equiv_pos_as_xyz
  1  'x, y, z'
loop_
 _atom_site_type_symbol
 _atom_site_label
 _atom_site_symmetry_multiplicity
 _atom_site_fract_x
 _atom_site_fract_y
 _atom_site_fract_z
 _atom_site_occupancy
  V  V0  1  0.85183014  0.00599133  0.86915000  1
  V  V1  1  0.61631770  0.00336308  0.12455844  1
  V  V2  1  0.61244686  0.74821769  0.37289870  1
  V  V3  1  0.86942677  0.46538968  0.87609689  1
  V  V4  1  0.36135288  0.74624460  0.13397991  1
  V  V5  1  0.87520082  0.25216245  0.14868885  1
  V  V6  1  0.36781492  0.74714360  0.62209109  1
  V  V7  1  0.48696489  0.49353587  0.01724285  1
  V  V8  1  -0.00586475  0.39926357  0.37509820  1
  V  V9  1  0.24643285  0.64760266  0.35691338  1
  V  V10  1  0.76117916  0.23498298  0.00243703  1
  V  V11  1  0.34897951  0.87493185  0.50898378  1
  V  V12  1  0.63625883  0.74845452  0.86713903  1
  V  V13  1  0.50023133  0.36541190  0.36879579  1
  V  V14  1  0.56409571  0.19144869  0.69809757  1
  V  V15  1  0.50235356  0.37225755  0.86777672  1
  V  V16  1  0.76448907  0.87045720  0.62975359  1
  V  V17  1  0.12554351  0.49966666  0.12845359  1
  V  V18  1  0.02073132  0.00762467  -0.01102691  1
  V  V19  1  0.37419652  0.00198870  0.88074295  1
  V  V20  1  0.11470024  0.88212167  0.72899437  1
  V  V21  1  0.75259720  0.76213659  0.01155689  1
  V  V22  1  0.50108765  0.49295038  0.49794230  1
  V  V23  1  0.63162783  0.24330601  0.38958717  1
  V  V24  1  0.50383028  0.86968912  0.88347385  1
  V  V25  1  0.00077044  0.01337824  0.51245688  1
  V  V26  1  -0.01986917  0.48752539  0.01232601  1
  V  V27  1  0.71890850  0.48222865  0.76970978  1
  V  V28  1  0.50222611  0.62023794  0.62674621  1
  V  V29  1  0.13415668  0.63676744  0.50033892  1
  V  V30  1  0.88977203  0.37082186  0.51277726  1
  V  V31  1  -0.01298845  0.72979007  0.23701410  1
  V  V32  1  0.00203264  0.12311069  0.12916666  1
  V  V33  1  0.60941000  -0.01618217  0.61890917  1
  V  V34  1  0.36658219  0.85712874  0.00107835  1
  V  V35  1  0.49704725  0.88610737  0.39380998  1
  V  V36  1  0.75286036  -0.00560381  0.24669922  1
  V  V37  1  0.87789864  0.88227938  0.00394342  1
  V  V38  1  0.62807439  0.62209237  0.50158402  1
  V  V39  1  0.51135889  0.64539855  0.14081775  1
  V  V40  1  0.84973374  0.64279941  0.75496938  1
  V  V41  1  0.11511812  0.77153285  0.35798738  1
  V  V42  1  0.12455583  0.38011589  0.25060497  1
  V  V43  1  0.63921553  0.50615146  0.13135515  1
  V  V44  1  0.11229894  0.26840338  0.88099850  1
  V  V45  1  0.75659522  0.75929473  0.50153258  1
  V  V46  1  0.37901912  0.11879586  0.72942769  1
  V  V47  1  0.37559660  0.51101890  0.36368400  1
  V  V48  1  0.16664157  0.13468850  0.54257317  1
  V  V49  1  0.76832622  0.13118802  0.37716740  1
  V  V50  1  0.25294402  -0.01253129  0.73502079  1
  V  V51  1  0.63625780  0.36697981  0.24349145  1
  V  V52  1  0.87917530  -0.03556462  0.37580167  1
  V  V53  1  0.12206625  0.24351789  0.38367597  1
  V  V54  1  0.61738580  0.87327049  0.24999676  1
  V  V55  1  0.33897294  -0.01467510  0.37118701  1
  V  V56  1  0.63748901  0.61998116  -0.00273812  1
  V  V57  1  -0.01363001  0.21797612  0.75492673  1
  V  V58  1  0.49485741  0.75030514  0.75128919  1
  V  V59  1  0.76467459  0.62561414  0.37541090  1
  V  V60  1  0.76324832  0.50379380  0.25663910  1
  V  V61  1  0.12417473  0.76359825  0.87363053  1
  V  V62  1  0.61699123  0.20653891  0.88966637  1
  V  V63  1  0.12459301  0.61904853  -0.00288316  1
  Zn  Zn64  1  0.12248235  0.16491358  0.22969546  1
  Zn  Zn65  1  0.20452350  0.18882971  0.74942053  1
  Zn  Zn66  1  0.17816885  0.67939287  0.18426260  1
  Zn  Zn67  1  0.17566867  0.70121135  0.69438653  1
  Zn  Zn68  1  0.70282989  0.17836683  0.18469387  1
  Zn  Zn69  1  0.74362075  -0.00384589  0.74477621  1
  Zn  Zn70  1  0.73700884  0.67274895  0.16996758  1
  Zn  Zn71  1  0.68913551  0.68358123  0.68623772  1
  Zn  Zn72  1  0.28579123  0.35310374  0.34528996  1
  Zn  Zn73  1  0.29061453  0.33940673  0.89240761  1
  Zn  Zn74  1  0.31945997  0.82659078  0.30619574  1
  Zn  Zn75  1  0.30602176  0.80331963  0.81595350  1
  Zn  Zn76  1  0.81703123  0.31909732  0.32220390  1
  Zn  Zn77  1  0.79190526  0.28764543  0.81721882  1
  Zn  Zn78  1  0.80409542  0.80579830  0.30546835  1
  Zn  Zn79  1  0.82008627  0.82527579  0.81515628  1
  Zn  Zn80  1  0.17209034  0.46640431  0.43206402  1
  Zn  Zn81  1  0.14877946  0.46391734  0.90495573  1
  Zn  Zn82  1  0.16028598  0.94305136  0.45794145  1
  Zn  Zn83  1  0.19434970  0.93500266  0.93760981  1
  Zn  Zn84  1  0.68896991  0.43764791  0.43104290  1
  Zn  Zn85  1  0.70831315  0.40820114  0.91861179  1
  Zn  Zn86  1  0.68332062  0.94646453  0.44073039  1
  Zn  Zn87  1  0.68408740  0.94172842  0.93956538  1
  Zn  Zn88  1  0.44676736  0.03714117  0.05606693  1
  Zn  Zn89  1  0.36967809  0.09650962  0.51896908  1
  Zn  Zn90  1  0.28034797  0.50500697  0.01802549  1
  Zn  Zn91  1  0.32099309  0.57833555  0.53842224  1
  Zn  Zn92  1  0.81669855  0.06854383  0.06415879  1
  Zn  Zn93  1  0.80158910  0.04158670  0.54237004  1
  Zn  Zn94  1  0.82340557  0.56796718  0.06095745  1
  Zn  Zn95  1  0.83761941  0.50858840  0.62182755  1
  Zn  Zn96  1  0.45775516  0.45170684  0.19473228  1
  Zn  Zn97  1  0.50949274  0.39274346  0.66280814  1
  Zn  Zn98  1  0.43371602  0.92033531  0.19789244  1
  Zn  Zn99  1  0.43587364  0.92793471  0.68969955  1
  Zn  Zn100  1  0.93676021  0.43146410  0.18815912  1
  Zn  Zn101  1  0.90714400  0.37217082  0.72027122  1
  Zn  Zn102  1  0.93249174  0.95023440  0.17499254  1
  Zn  Zn103  1  0.93067436  0.94822231  0.68688337  1
  Zn  Zn104  1  0.01734927  0.08877050  0.34394241  1
  Zn  Zn105  1  0.06141719  0.06492808  0.80049993  1
  Zn  Zn106  1  0.05639277  0.56875035  0.31200503  1
  Zn  Zn107  1  0.01488508  0.59123005  0.85562585  1
  Zn  Zn108  1  0.57427591  0.08882497  0.26735589  1
  Zn  Zn109  1  0.56075460  0.04448604  0.80127185  1
  Zn  Zn110  1  0.56754926  0.56101441  0.31242858  1
  Zn  Zn111  1  0.53141122  0.56346704  0.83034704  1
  Zn  Zn112  1  0.45347126  0.14487184  0.36713918  1
  Zn  Zn113  1  0.41954337  0.21445130  0.86480075  1
  Zn  Zn114  1  0.43426799  0.68865340  0.44038918  1
  Zn  Zn115  1  0.44097138  0.67575565  0.94812510  1
  Zn  Zn116  1  0.93669599  0.20457325  0.44253575  1
  Zn  Zn117  1  0.94216646  0.18175326  0.93585179  1
  Zn  Zn118  1  0.93913499  0.70675374  0.42885089  1
  Zn  Zn119  1  0.93534556  0.68892667  0.94066793  1
  Zn  Zn120  1  0.05424949  0.30784848  0.06572967  1
  Zn  Zn121  1  0.05262410  0.29817580  0.56457051  1
  Zn  Zn122  1  0.04359247  0.79811265  0.04688051  1
  Zn  Zn123  1  0.06910771  0.81748127  0.54306511  1
  Zn  Zn124  1  0.60541781  0.33397094  0.03282712  1
  Zn  Zn125  1  0.56929485  0.12147857  0.51021436  1
  Zn  Zn126  1  0.57457858  0.81813052  0.05966230  1
  Zn  Zn127  1  0.56297399  0.80671290  0.56319801  1
  O  O128  1  0.10348259  0.14699057  0.12001665  1
  O  O129  1  0.16503325  0.15256460  0.63931900  1
  O  O130  1  0.11683843  0.60855498  0.11584943  1
  O  O131  1  0.14790356  0.65260126  0.59677901  1
  O  O132  1  0.61974601  0.10431030  0.15055143  1
  O  O133  1  0.59765148  0.13497989  0.62019304  1
  O  O134  1  0.63288737  0.62534011  0.11752348  1
  O  O135  1  0.62010486  0.63031092  0.60590726  1
  O  O136  1  0.39820758  0.37389176  0.36386293  1
  O  O137  1  0.40501275  0.32996323  0.89600735  1
  O  O138  1  0.38251302  0.86066503  0.39992864  1
  O  O139  1  0.38556818  0.86308213  0.88427382  1
  O  O140  1  0.88961043  0.37183510  0.39358123  1
  O  O141  1  0.85480331  0.36830321  0.88976472  1
  O  O142  1  0.87004472  0.86686121  0.38205114  1
  O  O143  1  0.87442577  0.89523976  0.88441703  1
  O  O144  1  0.24097403  -0.02319826  0.38400953  1
  O  O145  1  0.27267157  -0.00809186  0.87726789  1
  O  O146  1  0.27826139  0.47464658  0.38556245  1
  O  O147  1  0.21334305  0.48451303  0.78691724  1
  O  O148  1  0.76676773  0.00389766  0.37285065  1
  O  O149  1  0.74665386  0.00158159  0.86747439  1
  O  O150  1  0.74502802  0.51751938  0.36734273  1
  O  O151  1  0.76258401  0.50210776  0.87659779  1
  O  O152  1  0.22281059  0.48743544  0.11977382  1
  O  O153  1  0.28974186  0.50147007  0.63388098  1
  O  O154  1  0.34672447  1.04494196  0.13776181  1
  O  O155  1  0.25832049  0.98769343  0.64038896  1
  O  O156  1  0.74677920  0.51207065  0.14474292  1
  O  O157  1  0.73593358  0.48672449  0.66986174  1
  O  O158  1  0.74119192  1.00108450  0.14473504  1
  O  O159  1  0.74651367  0.98050611  0.61853784  1
  O  O160  1  -0.00315104  0.38237025  0.27227410  1
  O  O161  1  0.02668182  0.43304611  0.73643530  1
  O  O162  1  0.04608183  0.90611655  0.21801620  1
  O  O163  1  0.01699576  0.90056642  0.74227561  1
  O  O164  1  0.52547510  0.38484205  0.26348409  1
  O  O165  1  0.49553365  0.40499171  0.77496656  1
  O  O166  1  0.51438270  0.87463883  0.27096871  1
  O  O167  1  0.50123029  0.85457393  0.75646073  1
  O  O168  1  0.47721956  0.13763110  0.26225557  1
  O  O169  1  0.49153922  0.12167554  0.74586617  1
  O  O170  1  0.51896127  0.63194067  0.23885089  1
  O  O171  1  0.51146264  0.62932141  0.72891754  1
  O  O172  1  1.00748946  0.11108846  0.23285189  1
  O  O173  1  0.97190915  0.12030876  0.74161471  1
  O  O174  1  0.98567008  0.63042532  0.24860888  1
  O  O175  1  1.04077678  0.61664937  0.71934670  1
  O  O176  1  0.27355523  0.23587676  0.04218031  1
  O  O177  1  0.37588949  0.29581712  0.57272152  1
  O  O178  1  0.38066079  0.75167444  0.00681038  1
  O  O179  1  0.37549201  0.75713172  0.51435891  1
  O  O180  1  0.85963086  0.24291318  -0.01051470  1
  O  O181  1  0.87872265  0.26971768  0.51679464  1
  O  O182  1  0.86317173  0.76524829  -0.01303301  1
  O  O183  1  0.85411452  0.74752384  0.49572059  1
  O  O184  1  0.11484464  0.22123427  0.49969494  1
  O  O185  1  0.11142023  0.25606333  0.97947297  1
  O  O186  1  0.12534815  0.74918164  0.46519019  1
  O  O187  1  0.11643766  0.72907355  0.98941831  1
  O  O188  1  0.62602708  0.23708873  0.48520217  1
  O  O189  1  0.60267757  0.22584460  0.98864997  1
  O  O190  1  0.62812518  0.74141258  0.48847777  1
  O  O191  1  0.63812617  0.74875726  0.98992724  1
  O  O192  1  0.40608995  0.29397514  0.13874649  1
  O  O193  1  0.53333235  0.28223196  0.66403060  1
  O  O194  1  0.52205811  0.74482168  0.12667185  1
  O  O195  1  0.49935424  0.74234199  0.63602274  1
  O  O196  1  0.98227554  0.23705987  0.11941729  1
  O  O197  1  1.02246769  0.26517356  0.67050741  1
  O  O198  1  1.00748088  0.75571862  0.14104468  1
  O  O199  1  1.00114457  0.72499734  0.57028969  1
  O  O200  1  0.01891401  0.27010879  0.39111487  1
  O  O201  1  -0.00345204  0.24932594  0.86080600  1
  O  O202  1  0.00795850  0.75601464  0.35461538  1
  O  O203  1  0.02926651  0.71522237  0.86583994  1
  O  O204  1  0.51670042  0.26374971  0.37032558  1
  O  O205  1  0.52655681  0.25490920  0.85088900  1
  O  O206  1  0.50977514  0.75411172  0.38011367  1
  O  O207  1  0.50824092  0.75511241  0.86428714  1
  O  O208  1  0.26041437  0.13168251  0.51037202  1
  O  O209  1  0.26844617  0.16406594  1.05218926  1
  O  O210  1  0.24272526  0.62461217  0.47282122  1
  O  O211  1  0.22387246  0.60692468  1.00445347  1
  O  O212  1  0.75228808  0.11864389  0.47530017  1
  O  O213  1  0.73969017  0.13490902  1.01244235  1
  O  O214  1  0.73461452  0.63422297  0.48789984  1
  O  O215  1  0.74122132  0.64355133  0.99968979  1
  O  O216  1  0.24924228  0.42872076  -0.05742303  1
  O  O217  1  0.20744120  0.39544763  0.53023533  1
  O  O218  1  0.26832245  0.86861410  -0.00275441  1
  O  O219  1  0.25113577  0.86938134  0.50494297  1
  O  O220  1  0.71974103  0.33784625  0.00736134  1
  O  O221  1  0.77809205  0.40825526  0.50110836  1
  O  O222  1  0.75598440  0.86629213  -0.00879391  1
  O  O223  1  0.74289501  0.86316116  0.50246294  1
  O  O224  1  0.10794950  0.49685108  0.23583390  1
  O  O225  1  0.18790476  0.54159094  0.74385092  1
  O  O226  1  0.19156550  1.04309623  0.22693122  1
  O  O227  1  0.14246858  0.99173800  0.75661035  1
  O  O228  1  0.63814809  0.49696417  0.24624848  1
  O  O229  1  0.62317530  0.50939894  0.78525941  1
  O  O230  1  0.63191110  0.98789314  0.25270416  1
  O  O231  1  0.63376600  1.01113866  0.72141230  1
  O  O232  1  0.34829133  -0.06220523  0.27396194  1
  O  O233  1  0.37328704  -0.00508496  0.76088239  1
  O  O234  1  0.38396593  0.50207520  0.26555193  1
  O  O235  1  0.33901883  0.49555235  0.68796809  1
  O  O236  1  0.85824796  -0.02218577  0.25791774  1
  O  O237  1  0.86090939  -0.00335766  0.76374201  1
  O  O238  1  0.86036410  0.49486661  0.25179290  1
  O  O239  1  0.86535576  0.46898331  0.77110554  1
  O  O240  1  0.10958770  0.39469918  0.36727472  1
  O  O241  1  0.10253004  0.36661169  0.86262199  1
  O  O242  1  0.12756118  0.86906008  0.36243423  1
  O  O243  1  0.11760481  0.86311607  0.88926903  1
  O  O244  1  0.62814603  0.36170934  0.36834132  1
  O  O245  1  0.59881107  0.37083203  0.90394591  1
  O  O246  1  0.61294498  0.86955697  0.38083807  1
  O  O247  1  0.61350135  0.86183097  0.88046038  1
  O  O248  1  0.46129723  0.15635257  0.05997656  1
  O  O249  1  0.37872830  0.11487859  0.63248171  1
  O  O250  1  0.40439169  0.64759333  0.12648023  1
  O  O251  1  0.39140522  0.63738387  0.61007061  1
  O  O252  1  0.88678890  0.13298312  0.12605465  1
  O  O253  1  0.83166963  0.13870762  0.63061530  1
  O  O254  1  0.84098319  0.64901606  0.13126043  1
  O  O255  1  0.88250818  0.60234372  0.66709890  1
  O  O256  1  0.27023211  0.22256022  0.20990243  1
  O  O257  1  0.23754785  0.29100799  0.67096076  1
  O  O258  1  0.26256695  0.73546443  0.13056078  1
  O  O259  1  0.27217336  0.74071270  0.64043862  1
  O  O260  1  0.76839745  0.24015665  0.11801285  1
  O  O261  1  0.73501095  0.27478034  0.62007211  1
  O  O262  1  0.73850873  0.76928107  0.10853793  1
  O  O263  1  0.73878102  0.75851481  0.60954349  1
  O  O264  1  0.21712967  0.27966242  0.39660345  1
  O  O265  1  0.21891793  0.25947460  0.85175425  1
  O  O266  1  0.24197329  0.75165516  0.34995782  1
  O  O267  1  0.22392563  0.73955369  0.86597201  1
  O  O268  1  0.74225019  0.24042281  0.36984779  1
  O  O269  1  0.72503651  0.23143399  0.89029738  1
  O  O270  1  0.73959442  0.74119946  0.38396381  1
  O  O271  1  0.73600141  0.75727750  0.87256907  1
  O  O272  1  0.00271520  0.11295999  0.00563929  1
  O  O273  1  -0.00424587  0.10683109  0.46112518  1
  O  O274  1  0.00184896  0.60736055  -0.00825235  1
  O  O275  1  0.01060652  0.66448974  0.51614745  1
  O  O276  1  0.43278770  0.20573876  0.01202299  1
  O  O277  1  0.46434935  0.13905625  0.47523374  1
  O  O278  1  0.52010362  0.61517590  0.01711112  1
  O  O279  1  0.51070518  0.61919885  0.50397890  1
  O  O280  1  0.51392310  0.39189877  0.47796371  1
  O  O281  1  0.50706814  0.39604281  1.03946159  1
  O  O282  1  0.50004963  0.87261697  0.49374700  1
  O  O283  1  0.49755258  0.86532407  0.98605002  1
  O  O284  1  0.99593982  0.38090804  0.49781561  1
  O  O285  1  0.99324244  0.38820852  1.00782649  1
  O  O286  1  1.04139503  0.91747673  0.49250672  1
  O  O287  1  0.98775656  0.88868751  1.00179395  1
  O  O288  1  0.49279825  0.50024014  0.37780405  1
  O  O289  1  0.49210307  0.47881867  0.91177531  1
  O  O290  1  0.48133088  0.98239376  0.37962306  1
  O  O291  1  0.49176495  0.97252797  0.86136596  1
  O  O292  1  0.99204883  0.49956395  0.38046492  1
  O  O293  1  0.97593381  0.48388844  0.88734408  1
  O  O294  1  0.97695755  0.98236723  0.35362379  1
  O  O295  1  1.00505499  1.01038224  0.88778247  1
  O  O296  1  -0.00594994  0.01375272  0.10507719  1
  O  O297  1  -0.02341205  0.02051860  0.60738266  1
  O  O298  1  -0.01733984  0.50359012  0.11471994  1
  O  O299  1  0.03635318  0.56613829  0.66646016  1
  O  O300  1  0.50865863  -0.00818777  0.13705970  1
  O  O301  1  0.50975083  -0.01509008  0.62523510  1
  O  O302  1  0.52207499  0.51936064  0.12873847  1
  O  O303  1  0.50619392  0.49538138  0.60485630  1
  O  O304  1  0.22381251  0.38645740  0.25400195  1
  O  O305  1  0.26411716  0.35580319  0.69286969  1
  O  O306  1  0.19367710  1.00827400  0.16286597  1
  O  O307  1  0.24392465  0.88227527  0.75732999  1
  O  O308  1  0.74241952  0.39287258  0.26653644  1
  O  O309  1  0.72169904  0.37916641  0.78789671  1
  O  O310  1  0.73074653  0.88559945  0.26638102  1
  O  O311  1  0.74888929  0.87020572  0.73063203  1
  O  O312  1  0.35139647  0.09632110  0.19053859  1
  O  O313  1  0.27311105  0.09751504  0.75713616  1
  O  O314  1  0.24639351  0.61677994  0.26345765  1
  O  O315  1  0.21811238  0.61463920  0.76197542  1
  O  O316  1  0.74495466  0.10283754  0.26637829  1
  O  O317  1  0.78995696  0.13719623  0.69080160  1
  O  O318  1  0.74778277  0.62027005  0.26929299  1
  O  O319  1  0.74872083  0.61714170  0.75887243  1
  O  O320  1  0.35030851  0.08350512  0.36110023  1
  O  O321  1  0.39359412  0.10133532  0.88360104  1
  O  O322  1  0.36101408  0.61905877  0.37732811  1
  O  O323  1  0.43375878  0.61283237  0.85926327  1
  O  O324  1  0.86791703  0.13925308  0.36948667  1
  O  O325  1  0.87363928  0.10313483  0.88333248  1
  O  O326  1  0.86210260  0.63020344  0.38407903  1
  O  O327  1  0.89721541  0.61803235  0.84571827  1
  O  O328  1  0.10300027  0.38172209  0.14423752  1
  O  O329  1  0.15136186  0.38131877  0.57770759  1
  O  O330  1  0.09893233  0.89218531  0.16847610  1
  O  O331  1  0.12404075  0.86757979  0.63160032  1
  O  O332  1  0.62940045  0.38945232  0.14099347  1
  O  O333  1  0.69392323  0.33413588  0.61548293  1
  O  O334  1  0.61949295  0.88295775  0.14621651  1
  O  O335  1  0.63039606  0.88205660  0.61689685  1
  O  O336  1  0.11718612  0.27388073  0.27077308  1
  O  O337  1  0.09010069  0.41057488  0.70776481  1
  O  O338  1  0.11059546  0.74395801  0.25332706  1
  O  O339  1  0.12113656  0.77723527  0.75905474  1
  O  O340  1  0.64205131  0.26648327  0.24031589  1
  O  O341  1  0.64026272  0.20086859  0.76241346  1
  O  O342  1  0.63321108  0.76548986  0.27109336  1
  O  O343  1  0.61671345  0.73846254  0.76378973  1
  O  O344  1  0.31471938  0.23750110  0.26584231  1
  O  O345  1  0.36868980  0.21555888  0.75821599  1
  O  O346  1  0.37942442  0.76702013  0.23039778  1
  O  O347  1  0.38894506  0.74882593  0.74061427  1
  O  O348  1  0.86873879  0.24911811  0.24763149  1
  O  O349  1  0.88609743  0.26552777  0.75352262  1
  O  O350  1  0.89159671  0.76512977  0.24980991  1
  O  O351  1  0.85748723  0.74266556  0.74736445  1
  O  O352  1  0.39658593  0.50559548  0.48624216  1
  O  O353  1  0.39104816  0.50516375  1.03750171  1
  O  O354  1  0.36276965  0.97832705  0.48767164  1
  O  O355  1  0.38659905  0.97675000  0.98521217  1
  O  O356  1  0.83092825  0.47672139  0.50312090  1
  O  O357  1  0.87255999  0.49880138  0.99099208  1
  O  O358  1  0.88908609  0.99432592  0.48129056  1
  O  O359  1  0.86432540  0.99132643  0.98983137  1
  O  O360  1  0.11934258  -0.00359696  -0.00241829  1
  O  O361  1  0.12057763  0.04090771  0.51691914  1
  O  O362  1  0.10078869  0.49782912  0.01928258  1
  O  O363  1  0.10872742  0.53842652  0.49256934  1
  O  O364  1  0.62799064  -0.00898051  0.02681838  1
  O  O365  1  0.62607862  0.01487790  0.51639587  1
  O  O366  1  0.63914926  0.51506525  0.01205614  1
  O  O367  1  0.61708903  0.51580468  0.48368846  1
  O  O368  1  0.37856653  0.35983537  0.15909558  1
  O  O369  1  0.38286610  0.35923443  0.60933341  1
  O  O370  1  0.38558577  0.85941659  0.10790410  1
  O  O371  1  0.37815498  0.86117839  0.61479715  1
  O  O372  1  0.87873359  0.35189125  0.13061779  1
  O  O373  1  0.89333805  0.40152573  0.61400287  1
  O  O374  1  0.87085411  0.88380702  0.10314402  1
  O  O375  1  0.86368290  0.87592788  0.62228705  1
  O  O376  1  0.12472500  0.14423028  0.34911809  1
  O  O377  1  0.10126914  0.18046155  0.79938413  1
  O  O378  1  0.13792849  0.63347779  0.37097736  1
  O  O379  1  0.12276045  0.57931314  0.89592397  1
  O  O380  1  0.62567673  0.14186290  0.36217247  1
  O  O381  1  0.60066204  0.10763412  0.88790682  1
  O  O382  1  0.62350705  0.63839523  0.38174390  1
  O  O383  1  0.61790756  0.63919412  0.89419821  1
