# generated using pymatgen
data_VZnO4
_symmetry_space_group_name_H-M   'P 1'
_cell_length_a   16.92385436
_cell_length_b   16.98372223
_cell_length_c   16.87025641
_cell_angle_alpha   90.21155528
_cell_angle_beta   89.51918410
_cell_angle_gamma   89.96545351
_symmetry_Int_Tables_number   1
_chemical_formula_structural   VZnO4
_chemical_formula_sum   'V64 Zn64 O256'
_cell_volume   4848.81373297
_cell_formula_units_Z   64
loop_
 _symmetry_equiv_pos_site_id
 _symmetry_equiv_pos_as_xyz
  1  'x, y, z'
loop_
 _atom_site_type_symbol
 _atom_site_label
 _atom_site_symmetry_multiplicity
 _atom_site_fract_x
 _atom_site_fract_y
 _atom_site_fract_z
 _atom_site_occupancy
  V  V0  1  0.28536130  0.30192554  0.52719358  1
  V  V1  1  0.23903566  0.49325779  0.72935096  1
  V  V2  1  0.01726195  0.49428038  0.50949411  1
  V  V3  1  -0.00573834  0.76625229  0.77434215  1
  V  V4  1  0.01108401  0.50117975  0.00272515  1
  V  V5  1  0.74641656  0.13655969  0.87652932  1
  V  V6  1  0.51112397  0.11699034  0.62443150  1
  V  V7  1  0.75582762  0.00535715  0.75769928  1
  V  V8  1  0.62033943  0.74612348  0.88485015  1
  V  V9  1  -0.00562954  0.01128507  0.00681547  1
  V  V10  1  0.75969416  0.86620413  0.63060383  1
  V  V11  1  0.36224354  0.87323349  0.48454020  1
  V  V12  1  0.34372560  0.00780100  0.35907504  1
  V  V13  1  0.75033681  0.33890343  0.12742769  1
  V  V14  1  0.49328545  0.74876985  0.24404049  1
  V  V15  1  0.88722961  0.12757034  0.74189690  1
  V  V16  1  0.25445894  0.38812232  0.12784474  1
  V  V17  1  0.12939041  0.88440618  0.76536779  1
  V  V18  1  0.87609284  0.86753390  0.50727205  1
  V  V19  1  0.40410353  0.51239288  0.41024308  1
  V  V20  1  0.24900053  -0.00519854  0.72234147  1
  V  V21  1  0.74370395  0.22802292  0.49054195  1
  V  V22  1  0.49772616  0.24292763  0.24232917  1
  V  V23  1  0.12953405  0.03821448  0.13784309  1
  V  V24  1  0.87036653  0.35418352  -0.00145060  1
  V  V25  1  0.38092996  0.60084966  0.23678424  1
  V  V26  1  0.62811417  -0.01262183  0.63253413  1
  V  V27  1  0.01446700  0.63160708  0.63965041  1
  V  V28  1  0.87441209  0.62793476  0.74967688  1
  V  V29  1  0.24873452  0.61935284  0.37297358  1
  V  V30  1  0.25785453  0.24410853  -0.00873907  1
  V  V31  1  0.49760828  0.01197465  0.01598680  1
  V  V32  1  0.87800504  0.49279077  0.88118490  1
  V  V33  1  0.74345170  0.48870891  0.74113199  1
  V  V34  1  0.51415466  0.75948492  0.73227693  1
  V  V35  1  0.51654143  0.60955883  0.11491674  1
  V  V36  1  0.00621453  0.62416880  0.14402392  1
  V  V37  1  0.74329682  0.62509887  0.88738605  1
  V  V38  1  0.85809681  0.00206899  0.36721907  1
  V  V39  1  0.64063567  0.48842361  0.13255344  1
  V  V40  1  0.35663861  -0.00856631  0.87694201  1
  V  V41  1  0.38986239  0.61712864  0.74290610  1
  V  V42  1  0.37865301  0.37906128  -0.02315555  1
  V  V43  1  0.51005563  0.25226131  0.74266557  1
  V  V44  1  0.88480982  0.24743795  0.61776434  1
  V  V45  1  0.50394225  0.88259379  0.87475662  1
  V  V46  1  0.02489980  0.24993436  0.28875167  1
  V  V47  1  -0.01345762  0.15222636  0.13296899  1
  V  V48  1  -0.00283699  0.00713358  0.51655870  1
  V  V49  1  0.14659770  0.11104984  0.49672905  1
  V  V50  1  0.35501709  0.76509153  0.62545140  1
  V  V51  1  0.50989170  0.49036426  -0.01863451  1
  V  V52  1  0.12311454  0.26783575  0.87454275  1
  V  V53  1  0.85466029  0.38418934  0.50293445  1
  V  V54  1  0.51073697  0.37386706  0.37108763  1
  V  V55  1  0.63936378  0.74537525  0.35180075  1
  V  V56  1  0.87767136  0.75134913  0.10271268  1
  V  V57  1  0.13741779  0.65103975  0.51432516  1
  V  V58  1  0.24238683  0.62115074  0.86597542  1
  V  V59  1  0.51491766  -0.00503009  0.47735891  1
  V  V60  1  0.37146942  0.12393847  0.74744749  1
  V  V61  1  0.62195075  0.26100909  0.88362466  1
  V  V62  1  0.00115038  0.87116140  0.35695870  1
  V  V63  1  0.23139828  0.89302681  0.11264038  1
  Zn  Zn64  1  0.15579142  0.25237967  0.16534078  1
  Zn  Zn65  1  0.18640547  0.17606219  0.66568955  1
  Zn  Zn66  1  0.18808435  0.55490218  0.18687660  1
  Zn  Zn67  1  0.19214921  0.70118698  0.72219887  1
  Zn  Zn68  1  0.67420825  0.30353381  0.31195558  1
  Zn  Zn69  1  0.69297944  0.19054166  0.67660026  1
  Zn  Zn70  1  0.67416981  0.77576035  0.15256301  1
  Zn  Zn71  1  0.69507864  0.68695473  0.69995121  1
  Zn  Zn72  1  0.31696572  0.34779117  0.32152256  1
  Zn  Zn73  1  0.31046030  0.31468071  0.80631064  1
  Zn  Zn74  1  0.30899951  0.80272732  0.28913529  1
  Zn  Zn75  1  0.31805296  0.80868352  0.81405597  1
  Zn  Zn76  1  0.83378905  0.33521333  0.32162974  1
  Zn  Zn77  1  0.81513048  0.30869121  0.80437129  1
  Zn  Zn78  1  0.84867755  0.76878345  0.35275230  1
  Zn  Zn79  1  0.80462748  0.81398111  0.81743577  1
  Zn  Zn80  1  0.21510060  0.47288013  0.51570928  1
  Zn  Zn81  1  0.19771289  0.43874883  0.92015925  1
  Zn  Zn82  1  0.17023917  0.95234887  0.42408205  1
  Zn  Zn83  1  0.16570135  0.94409099  0.95072065  1
  Zn  Zn84  1  0.63831152  0.37281620  0.48729143  1
  Zn  Zn85  1  0.69239176  0.43292431  0.93822857  1
  Zn  Zn86  1  0.68553705  0.91324659  0.43712087  1
  Zn  Zn87  1  0.65040386  0.90204803  0.99627904  1
  Zn  Zn88  1  0.30885332  0.05761971  0.05104700  1
  Zn  Zn89  1  0.33192080  0.13042356  0.55210523  1
  Zn  Zn90  1  0.31945917  0.55538851  0.04502895  1
  Zn  Zn91  1  0.32560448  0.58410672  0.56930829  1
  Zn  Zn92  1  0.82686280  0.10716541  0.06171613  1
  Zn  Zn93  1  0.81235542  0.05873490  0.55974692  1
  Zn  Zn94  1  0.81725880  0.56962610  0.06916216  1
  Zn  Zn95  1  0.82710773  0.56456872  0.56566042  1
  Zn  Zn96  1  0.44023101  0.42240126  0.17696149  1
  Zn  Zn97  1  0.39196690  0.41120978  0.67126319  1
  Zn  Zn98  1  0.40393372  0.92090004  0.17896620  1
  Zn  Zn99  1  0.43572019  0.93162013  0.68848261  1
  Zn  Zn100  1  0.93257473  0.43080977  0.17314431  1
  Zn  Zn101  1  0.91771858  0.45163443  0.66805427  1
  Zn  Zn102  1  0.93563503  0.94863330  0.18654580  1
  Zn  Zn103  1  0.94578557  0.93598854  0.69541595  1
  Zn  Zn104  1  0.05238075  0.05714655  0.31861091  1
  Zn  Zn105  1  0.07009155  0.06758266  0.81350470  1
  Zn  Zn106  1  0.04828132  0.58679169  0.33610518  1
  Zn  Zn107  1  0.06513457  0.54579438  0.80941616  1
  Zn  Zn108  1  0.50964310  0.03747915  0.27099391  1
  Zn  Zn109  1  0.56962949  0.06607196  0.81133230  1
  Zn  Zn110  1  0.57492244  0.56442394  0.31153867  1
  Zn  Zn111  1  0.56427295  0.56552285  0.79878145  1
  Zn  Zn112  1  0.37419899  0.21050416  0.38325474  1
  Zn  Zn113  1  0.43722130  0.18610291  0.92807820  1
  Zn  Zn114  1  0.40652247  0.72095620  0.40658470  1
  Zn  Zn115  1  0.43230505  0.68385376  0.93178147  1
  Zn  Zn116  1  0.92446079  0.17988958  0.43806144  1
  Zn  Zn117  1  0.95227661  0.16923243  0.92255894  1
  Zn  Zn118  1  0.96039816  0.70520847  0.45857115  1
  Zn  Zn119  1  0.93814540  0.67618884  0.94331089  1
  Zn  Zn120  1  0.06669471  0.32627871  0.04847852  1
  Zn  Zn121  1  0.05930183  0.28483105  0.50112520  1
  Zn  Zn122  1  0.03068782  0.83693293  0.09668916  1
  Zn  Zn123  1  0.05534616  0.82392058  0.58903255  1
  Zn  Zn124  1  0.55951265  0.31190023  0.06707883  1
  Zn  Zn125  1  0.46119546  0.28857796  0.53561998  1
  Zn  Zn126  1  0.51524909  0.79767481  0.05072373  1
  Zn  Zn127  1  0.56695179  0.81913731  0.54018899  1
  O  O128  1  0.14295150  0.13625934  0.14234378  1
  O  O129  1  0.12153496  0.11305757  0.60117480  1
  O  O130  1  0.10758139  0.61359217  0.13699385  1
  O  O131  1  0.11925510  0.64135522  0.63592381  1
  O  O132  1  0.66425981  0.09360126  0.12782599  1
  O  O133  1  0.61730468  0.10824529  0.62640063  1
  O  O134  1  0.61712020  0.60448170  0.11517083  1
  O  O135  1  0.64435357  0.61746826  0.60691071  1
  O  O136  1  0.39214962  0.40974438  0.38880480  1
  O  O137  1  0.38126925  0.37610499  0.87703382  1
  O  O138  1  0.37075179  0.84108185  0.38447575  1
  O  O139  1  0.38617850  0.88545183  0.86522713  1
  O  O140  1  0.89328376  0.37721669  0.41007010  1
  O  O141  1  0.86588620  0.38620591  0.88321781  1
  O  O142  1  0.87824993  0.87873720  0.39380694  1
  O  O143  1  0.82111244  0.88916868  0.92333941  1
  O  O144  1  0.25665289  -0.04055886  0.34572624  1
  O  O145  1  0.25761048  -0.00849251  0.88247040  1
  O  O146  1  0.27320696  0.52423369  0.42088430  1
  O  O147  1  0.25437900  0.50706486  0.84355205  1
  O  O148  1  0.75934737  -0.01615944  0.38660193  1
  O  O149  1  0.74738690  0.01843591  0.85808479  1
  O  O150  1  0.76609127  0.57708360  0.46902013  1
  O  O151  1  0.75563373  0.50907885  0.86859398  1
  O  O152  1  0.24566027  0.49433134  0.11124446  1
  O  O153  1  0.26083013  0.50562685  0.62281966  1
  O  O154  1  0.23960864  1.00057740  0.12444667  1
  O  O155  1  0.25068625  0.98223710  0.62838500  1
  O  O156  1  0.74088243  0.50022522  0.11681231  1
  O  O157  1  0.76778987  0.50543242  0.64311532  1
  O  O158  1  0.72783025  1.05817820  0.13545653  1
  O  O159  1  0.74138226  0.99654477  0.63182274  1
  O  O160  1  -0.01651485  0.35222487  0.25392794  1
  O  O161  1  0.00244117  0.37863304  0.74100535  1
  O  O162  1  0.00654960  0.88203829  0.25776827  1
  O  O163  1  -0.04633948  0.85871064  0.78373794  1
  O  O164  1  0.49562473  0.38060827  0.26647164  1
  O  O165  1  0.47419524  0.34349544  0.72627775  1
  O  O166  1  0.47973689  0.84336490  0.21895629  1
  O  O167  1  0.50520331  0.86529212  0.75833519  1
  O  O168  1  0.48866729  0.14184504  0.24120612  1
  O  O169  1  0.49676624  0.12829035  0.74140449  1
  O  O170  1  0.49343004  0.61312833  0.23463474  1
  O  O171  1  0.49654176  0.64386456  0.74576593  1
  O  O172  1  1.01040314  0.14852952  0.25450789  1
  O  O173  1  0.98532630  0.11828557  0.75122089  1
  O  O174  1  0.99344526  0.61910722  0.24519746  1
  O  O175  1  0.99030955  0.62019724  0.75165674  1
  O  O176  1  0.36909667  0.26287293  -0.01575632  1
  O  O177  1  0.38742705  0.21230058  0.49640205  1
  O  O178  1  0.41609723  0.75997959  0.01052571  1
  O  O179  1  0.37980588  0.76101403  0.51595779  1
  O  O180  1  0.88224458  0.25832925  -0.01693015  1
  O  O181  1  0.85969758  0.25965416  0.50128047  1
  O  O182  1  0.87412031  0.75131669  0.00166902  1
  O  O183  1  0.87283389  0.76673028  0.50536252  1
  O  O184  1  0.14106394  0.21188453  0.47890109  1
  O  O185  1  0.14230208  0.26104809  0.98353087  1
  O  O186  1  0.11217925  0.74872210  0.51908825  1
  O  O187  1  0.15626342  0.73000130  1.01325899  1
  O  O188  1  0.64723419  0.25629257  0.50342955  1
  O  O189  1  0.61042778  0.25102439  0.98254776  1
  O  O190  1  0.62886017  0.80563699  0.44356417  1
  O  O191  1  0.60604728  0.72913112  0.97987266  1
  O  O192  1  0.48638481  0.27374411  0.14433464  1
  O  O193  1  0.50191721  0.22305247  0.62741432  1
  O  O194  1  0.50507561  0.71467591  0.13296786  1
  O  O195  1  0.52107599  0.76408948  0.63108653  1
  O  O196  1  1.02783591  0.24833244  0.13512182  1
  O  O197  1  0.98229367  0.24443740  0.58943233  1
  O  O198  1  0.99966932  0.72746194  0.11647074  1
  O  O199  1  0.99650788  0.73831094  0.65823571  1
  O  O200  1  0.00770617  0.24895557  0.39066469  1
  O  O201  1  0.02361463  0.24872811  0.88062108  1
  O  O202  1  -0.03229923  0.76309559  0.36214169  1
  O  O203  1  0.00187686  0.73343536  0.86827577  1
  O  O204  1  0.49413977  0.27094363  0.36660086  1
  O  O205  1  0.51289172  0.24087800  0.85404330  1
  O  O206  1  0.50847457  0.74373319  0.34951158  1
  O  O207  1  0.50776553  0.75842932  0.86221495  1
  O  O208  1  0.24539591  0.08394198  0.50101244  1
  O  O209  1  0.26173244  0.14459992  0.99779774  1
  O  O210  1  0.23804249  0.64513450  0.51686514  1
  O  O211  1  0.26674908  0.61427395  0.96436752  1
  O  O212  1  0.74804824  0.12815951  0.49103685  1
  O  O213  1  0.76036194  0.12896529  0.97513001  1
  O  O214  1  0.77999140  0.63744300  0.42018992  1
  O  O215  1  0.75026828  0.62129392  0.98565522  1
  O  O216  1  0.26817052  0.38154925  -0.00700721  1
  O  O217  1  0.20471181  0.36337511  0.53598708  1
  O  O218  1  0.24549581  0.88136832  0.01355979  1
  O  O219  1  0.26604258  0.88862384  0.49350297  1
  O  O220  1  0.76338187  0.36987069  0.00569304  1
  O  O221  1  0.75682231  0.39892190  0.49588595  1
  O  O222  1  0.77675431  0.89041868  -0.01575313  1
  O  O223  1  0.76313224  0.87903967  0.52169776  1
  O  O224  1  0.11465733  0.49108915  0.27169858  1
  O  O225  1  0.13932329  0.48994699  0.73469798  1
  O  O226  1  0.11894963  1.00635138  0.23274905  1
  O  O227  1  0.14600649  1.00283027  0.75494797  1
  O  O228  1  0.63003982  0.49984310  0.23200119  1
  O  O229  1  0.64376807  0.50709655  0.74484658  1
  O  O230  1  0.59960336  0.97908278  0.21676809  1
  O  O231  1  0.64239194  1.00117216  0.74125700  1
  O  O232  1  0.40551646  -0.01546574  0.27668813  1
  O  O233  1  0.35910793  -0.00689902  0.75535376  1
  O  O234  1  0.38151300  0.50226440  0.25250293  1
  O  O235  1  0.39737388  0.51937921  0.72761035  1
  O  O236  1  0.86517092  -0.01288489  0.26536457  1
  O  O237  1  0.86547073  0.01731511  0.74207696  1
  O  O238  1  0.87258071  0.46061172  0.27472046  1
  O  O239  1  0.87217964  0.50726098  0.76377933  1
  O  O240  1  0.14054747  0.43589035  0.31556271  1
  O  O241  1  0.13094709  0.36648205  0.85604358  1
  O  O242  1  0.09604231  0.86745551  0.38885003  1
  O  O243  1  0.10482670  0.90066138  0.86259814  1
  O  O244  1  0.61735517  0.38626185  0.37056341  1
  O  O245  1  0.63043488  0.35975841  0.87192587  1
  O  O246  1  0.62227063  0.89829885  0.32110922  1
  O  O247  1  0.61587676  0.85893823  0.88686859  1
  O  O248  1  0.36097224  0.13113773  0.14840363  1
  O  O249  1  0.39610230  0.09904111  0.64258091  1
  O  O250  1  0.37471653  0.60717733  0.13429855  1
  O  O251  1  0.38095538  0.65524837  0.63654042  1
  O  O252  1  0.88688744  0.15725886  0.14386691  1
  O  O253  1  0.87049527  0.13513818  0.63100241  1
  O  O254  1  0.88838822  0.63965532  0.12032598  1
  O  O255  1  0.88239789  0.62846860  0.64500750  1
  O  O256  1  0.25278259  0.26947884  0.09767551  1
  O  O257  1  0.26444748  0.22739057  0.59861038  1
  O  O258  1  0.21215758  0.72847979  0.05885251  1
  O  O259  1  0.25723465  0.76090872  0.64123882  1
  O  O260  1  0.74287146  0.24540786  0.10989583  1
  O  O261  1  0.76336373  0.24423543  0.60373114  1
  O  O262  1  0.78289125  0.75671041  0.14070783  1
  O  O263  1  0.74946382  0.76788712  0.64107432  1
  O  O264  1  0.28466059  0.29249640  0.42038510  1
  O  O265  1  0.24659973  0.25988254  0.88256261  1
  O  O266  1  0.27665282  0.71634555  0.37841155  1
  O  O267  1  0.24675210  0.72524695  0.83573521  1
  O  O268  1  0.75709543  0.26450619  0.38552726  1
  O  O269  1  0.73522873  0.24459683  0.86090771  1
  O  O270  1  0.73834077  0.76318562  0.33316725  1
  O  O271  1  0.73549717  0.73827626  0.87139828  1
  O  O272  1  -0.00233796  0.13874481  0.02941011  1
  O  O273  1  0.00003922  0.10591047  0.48770179  1
  O  O274  1  0.00523552  0.60408221  0.00047999  1
  O  O275  1  0.00865817  0.63357219  0.52744780  1
  O  O276  1  0.48483738  0.11088878  -0.00179844  1
  O  O277  1  0.49258478  0.09033699  0.52344446  1
  O  O278  1  0.49134945  0.60225085  0.00940235  1
  O  O279  1  0.61290134  0.64805378  0.54765663  1
  O  O280  1  0.51726846  0.36955292  0.48372665  1
  O  O281  1  0.49091155  0.38153784  0.99881732  1
  O  O282  1  0.48813144  0.89460875  0.50104977  1
  O  O283  1  0.49241761  0.89278359  0.97956128  1
  O  O284  1  1.03629496  0.39597295  0.51144272  1
  O  O285  1  0.97786455  0.38850781  1.00927308  1
  O  O286  1  0.98332666  0.88033636  0.51438308  1
  O  O287  1  1.00847981  0.91092283  1.00778519  1
  O  O288  1  0.50555885  0.50486064  0.38242062  1
  O  O289  1  0.51672993  0.50282400  0.88291283  1
  O  O290  1  0.53459147  1.01698190  0.38273890  1
  O  O291  1  0.50365364  0.98672320  0.86459361  1
  O  O292  1  1.00044081  0.52019871  0.41284269  1
  O  O293  1  0.98490620  0.49976446  0.88223889  1
  O  O294  1  0.98222010  0.98126767  0.38122222  1
  O  O295  1  1.00585800  1.04801523  0.90776055  1
  O  O296  1  0.00901394  0.03367732  0.13214483  1
  O  O297  1  -0.02360231  0.01172300  0.61475802  1
  O  O298  1  -0.01060017  0.50935994  0.11450783  1
  O  O299  1  0.00278547  0.52261751  0.62832901  1
  O  O300  1  0.46251006  -0.00721689  0.11149469  1
  O  O301  1  0.52060416  -0.00209880  0.64428421  1
  O  O302  1  0.51353228  0.49683454  0.11874554  1
  O  O303  1  0.50428340  0.47615162  0.62502698  1
  O  O304  1  0.26166897  0.38182976  0.22913549  1
  O  O305  1  0.28520592  0.39618875  0.73117529  1
  O  O306  1  0.17794074  0.80010707  0.27846993  1
  O  O307  1  0.23577801  0.88282347  0.75524222  1
  O  O308  1  0.75498132  0.34611453  0.23368319  1
  O  O309  1  0.75630530  0.39022455  0.75251099  1
  O  O310  1  0.64976343  0.93181456  0.25445534  1
  O  O311  1  0.76596805  0.89375260  0.74432202  1
  O  O312  1  0.32056114  0.17104443  0.19492381  1
  O  O313  1  0.26669019  0.10793767  0.73064409  1
  O  O314  1  0.25866890  0.60290763  0.26706694  1
  O  O315  1  0.26632762  0.60649008  0.74180233  1
  O  O316  1  0.73089019  0.11147473  0.28028153  1
  O  O317  1  0.75617238  0.11872032  0.74791522  1
  O  O318  1  0.80234308  0.50852018  0.27935345  1
  O  O319  1  0.76372637  0.61710217  0.75889936  1
  O  O320  1  0.33285188  0.10607624  0.35631511  1
  O  O321  1  0.38324984  0.10050940  0.85435259  1
  O  O322  1  0.38242696  0.61019037  0.36451890  1
  O  O323  1  0.37520104  0.63273788  0.84724766  1
  O  O324  1  0.87066477  0.10293189  0.37585932  1
  O  O325  1  0.86089853  0.14452241  0.85014347  1
  O  O326  1  0.85570015  0.64701193  0.39342363  1
  O  O327  1  0.86381871  0.61250891  0.87170245  1
  O  O328  1  0.14700078  0.36783142  0.12158034  1
  O  O329  1  0.05369800  0.34379798  0.70138210  1
  O  O330  1  0.13593627  0.86778075  0.13268497  1
  O  O331  1  0.06712178  0.89567996  0.67943585  1
  O  O332  1  0.64417222  0.37762614  0.11847473  1
  O  O333  1  0.56610721  0.43069544  0.62536357  1
  O  O334  1  0.61590509  0.84169171  0.08514882  1
  O  O335  1  0.64107797  0.88334316  0.62405960  1
  O  O336  1  0.12322602  0.26699462  0.27610812  1
  O  O337  1  0.13902116  0.21722499  0.76749950  1
  O  O338  1  0.14107236  0.74439637  0.24879828  1
  O  O339  1  0.10735857  0.77614168  0.76130138  1
  O  O340  1  0.59979037  0.24771201  0.25211837  1
  O  O341  1  0.61255445  0.25286583  0.73870286  1
  O  O342  1  0.60981389  0.74828434  0.24427740  1
  O  O343  1  0.61603611  0.74495619  0.75809439  1
  O  O344  1  0.38323818  0.25775072  0.27676817  1
  O  O345  1  0.37662512  0.22538637  0.75536382  1
  O  O346  1  0.38633498  0.71964005  0.25239061  1
  O  O347  1  0.39323236  0.76120547  0.73228728  1
  O  O348  1  0.92229171  0.29101903  0.25350292  1
  O  O349  1  0.87759321  0.24417719  0.72891333  1
  O  O350  1  0.80903137  0.57748436  0.25383508  1
  O  O351  1  0.87708433  0.73089918  0.77029934  1
  O  O352  1  0.40831471  0.53135636  0.50845531  1
  O  O353  1  0.39404813  0.48746599  0.98918328  1
  O  O354  1  0.38830535  0.98403578  0.45602804  1
  O  O355  1  0.37945158  1.00145429  0.97893046  1
  O  O356  1  0.89959305  0.48187078  0.52813588  1
  O  O357  1  0.87550418  0.49962050  0.98719609  1
  O  O358  1  0.87967441  0.99035702  0.49378995  1
  O  O359  1  0.89350318  1.01880413  1.02783418  1
  O  O360  1  0.11638966  0.01545000  0.02828997  1
  O  O361  1  0.09941578  -0.01634464  0.51483056  1
  O  O362  1  0.10747276  0.48013218  -0.01185924  1
  O  O363  1  0.11823314  0.53456049  0.51831744  1
  O  O364  1  0.59890412  0.00212403  0.01043948  1
  O  O365  1  0.61613064  -0.01370103  0.51345497  1
  O  O366  1  0.61398854  0.48589021  0.00754255  1
  O  O367  1  0.62532158  0.45282584  0.57871778  1
  O  O368  1  0.36153439  0.38235393  0.10507587  1
  O  O369  1  0.36467716  0.35774075  0.57026460  1
  O  O370  1  0.30542408  0.85770725  0.18013257  1
  O  O371  1  0.37668158  0.86954619  0.61252123  1
  O  O372  1  0.85993454  0.36500859  0.11110726  1
  O  O373  1  0.87775424  0.35856292  0.61414570  1
  O  O374  1  0.91403476  0.84881964  0.13056932  1
  O  O375  1  0.86661726  0.88066331  0.62281263  1
  O  O376  1  0.13250648  0.06784561  0.39667117  1
  O  O377  1  0.14556660  0.15868420  0.82951925  1
  O  O378  1  0.14110477  0.63050899  0.39549230  1
  O  O379  1  0.14081734  0.61442817  0.85937608  1
  O  O380  1  0.67002914  0.10751960  0.31921891  1
  O  O381  1  0.63930676  0.13715670  0.86616754  1
  O  O382  1  0.63202635  0.64700287  0.36901738  1
  O  O383  1  0.63792411  0.63007659  0.86616110  1
