# generated using pymatgen
data_VZnO4
_symmetry_space_group_name_H-M   'P 1'
_cell_length_a   17.11609046
_cell_length_b   16.98391175
_cell_length_c   17.05487601
_cell_angle_alpha   89.70411836
_cell_angle_beta   90.30812820
_cell_angle_gamma   89.83876526
_symmetry_Int_Tables_number   1
_chemical_formula_structural   VZnO4
_chemical_formula_sum   'V64 Zn64 O256'
_cell_volume   4957.66342347
_cell_formula_units_Z   64
loop_
 _symmetry_equiv_pos_site_id
 _symmetry_equiv_pos_as_xyz
  1  'x, y, z'
loop_
 _atom_site_type_symbol
 _atom_site_label
 _atom_site_symmetry_multiplicity
 _atom_site_fract_x
 _atom_site_fract_y
 _atom_site_fract_z
 _atom_site_occupancy
  V  V0  1  0.86549030  0.74326904  0.63075463  1
  V  V1  1  0.88218169  -0.01788688  0.87580560  1
  V  V2  1  0.36178676  0.60769747  0.24166202  1
  V  V3  1  0.74927355  0.38182158  0.11626444  1
  V  V4  1  -0.00709064  0.62022051  0.63137318  1
  V  V5  1  0.87073580  0.50212288  0.36947447  1
  V  V6  1  0.63850981  0.87351293  0.26077387  1
  V  V7  1  0.00519526  -0.00859504  0.01538836  1
  V  V8  1  0.00617408  0.61370248  0.10960397  1
  V  V9  1  0.12013884  0.24779288  0.39418719  1
  V  V10  1  0.12854042  0.28214355  0.87117183  1
  V  V11  1  0.75405365  0.23489717  0.00047584  1
  V  V12  1  -0.00589671  0.49788313  0.50405208  1
  V  V13  1  0.12289767  0.61414045  0.48931308  1
  V  V14  1  0.21962623  0.37124180  0.63266681  1
  V  V15  1  0.62391267  0.25013940  0.36222329  1
  V  V16  1  0.61818024  0.37114322  0.24259864  1
  V  V17  1  0.88673696  0.37707812  -0.00651086  1
  V  V18  1  0.60678960  0.00198741  0.13434712  1
  V  V19  1  0.12857668  0.11730325  -0.03060752  1
  V  V20  1  0.88187129  0.50183531  0.87635644  1
  V  V21  1  0.36329423  0.37639494  -0.00018655  1
  V  V22  1  0.36509697  0.12796993  0.26107614  1
  V  V23  1  0.74640776  0.50162203  0.24544128  1
  V  V24  1  0.63132235  0.71750329  0.36722000  1
  V  V25  1  0.62422915  0.36826015  0.75021834  1
  V  V26  1  0.27064410  0.78568413  0.46426008  1
  V  V27  1  0.74868246  0.71102062  0.48907101  1
  V  V28  1  0.28091940  0.66960742  0.84651781  1
  V  V29  1  0.76950044  -0.00282569  0.24171668  1
  V  V30  1  0.38278110  0.50190396  0.86030550  1
  V  V31  1  0.14465075  0.12620746  0.51790896  1
  V  V32  1  0.12743199  -0.01190629  0.16882696  1
  V  V33  1  0.73033549  0.87107329  0.60128035  1
  V  V34  1  0.51946341  0.61605888  0.12046353  1
  V  V35  1  0.42880987  0.25831062  0.60991919  1
  V  V36  1  0.87658188  0.62683694  0.23736038  1
  V  V37  1  0.76749832  0.12495238  0.35792794  1
  V  V38  1  0.75090777  0.24327238  0.49474700  1
  V  V39  1  0.15692439  0.64261151  -0.00476094  1
  V  V40  1  0.75431194  0.11856314  0.85846202  1
  V  V41  1  -0.04882222  0.02283081  0.50827115  1
  V  V42  1  -0.00051794  0.37187404  0.35876687  1
  V  V43  1  0.51213612  0.47273405  0.49155923  1
  V  V44  1  0.36176532  0.48555904  0.37317148  1
  V  V45  1  0.50200792  0.86027650  0.84654550  1
  V  V46  1  0.62038577  0.24389859  0.87456706  1
  V  V47  1  0.39380502  0.01684169  0.92545279  1
  V  V48  1  0.30948086  0.82530873  0.11562037  1
  V  V49  1  0.00818987  0.76165824  0.74224783  1
  V  V50  1  0.88961429  0.24111191  0.12931343  1
  V  V51  1  0.75450716  0.50366527  0.74786971  1
  V  V52  1  0.87282217  0.37093010  0.50264408  1
  V  V53  1  0.72794648  -0.02913856  0.75969202  1
  V  V54  1  -0.01256279  0.26418141  0.74746603  1
  V  V55  1  0.51110980  0.49618766  -0.00173876  1
  V  V56  1  0.75404179  0.37052045  0.62597723  1
  V  V57  1  0.49326122  0.73778949  0.24947463  1
  V  V58  1  0.23535448  0.52463564  0.74355412  1
  V  V59  1  0.36543856  0.14539866  0.76661894  1
  V  V60  1  0.74036707  0.62785139  0.89576515  1
  V  V61  1  0.00282740  0.75618624  0.24670733  1
  V  V62  1  0.24293629  0.36739829  0.12940961  1
  V  V63  1  0.09749153  0.76239999  0.39048071  1
  Zn  Zn64  1  0.19675967  0.16733721  0.13526167  1
  Zn  Zn65  1  0.18143956  0.18938145  0.70267803  1
  Zn  Zn66  1  0.18240731  0.54746267  0.18188997  1
  Zn  Zn67  1  0.14452016  0.75545714  0.60892770  1
  Zn  Zn68  1  0.69811051  0.18572964  0.18039478  1
  Zn  Zn69  1  0.65040601  0.18339347  0.67808814  1
  Zn  Zn70  1  0.68805435  0.68708957  0.17638952  1
  Zn  Zn71  1  0.69105664  0.67895343  0.68247229  1
  Zn  Zn72  1  0.29423860  0.31928810  0.31007175  1
  Zn  Zn73  1  0.30354218  0.33657034  0.80833967  1
  Zn  Zn74  1  0.22317312  0.73689390  0.26475058  1
  Zn  Zn75  1  0.31802260  0.85274380  0.92176931  1
  Zn  Zn76  1  0.81571021  0.31386750  0.30575827  1
  Zn  Zn77  1  0.81241046  0.31040375  0.81552472  1
  Zn  Zn78  1  0.81114884  0.80277309  0.31637773  1
  Zn  Zn79  1  0.81096809  0.80583972  0.82308334  1
  Zn  Zn80  1  0.18147802  0.42895268  0.44284218  1
  Zn  Zn81  1  0.16754209  0.45978440  1.01634025  1
  Zn  Zn82  1  0.15354566  0.91775520  0.49740844  1
  Zn  Zn83  1  0.21131555  0.95048283  1.01073761  1
  Zn  Zn84  1  0.68812401  0.43474103  0.42897450  1
  Zn  Zn85  1  0.69358191  0.43521012  0.92721863  1
  Zn  Zn86  1  0.80158075  0.94098489  0.43446261  1
  Zn  Zn87  1  0.66435326  0.94429757  0.94726212  1
  Zn  Zn88  1  0.30365256  0.05951216  0.07883988  1
  Zn  Zn89  1  0.33942962  0.14667269  0.54368770  1
  Zn  Zn90  1  0.32497095  0.55575941  0.05985671  1
  Zn  Zn91  1  0.29478465  0.51782458  0.54155591  1
  Zn  Zn92  1  0.82693919  0.05503308  0.06365211  1
  Zn  Zn93  1  0.75455166  0.06555035  0.57513737  1
  Zn  Zn94  1  0.81809038  0.56218137  0.05777224  1
  Zn  Zn95  1  0.81642384  0.55174187  0.56655462  1
  Zn  Zn96  1  0.43261066  0.43876852  0.17625793  1
  Zn  Zn97  1  0.44891734  0.44441604  0.67624021  1
  Zn  Zn98  1  0.43327528  0.93725032  0.22297337  1
  Zn  Zn99  1  0.45746128  0.98520387  0.70361391  1
  Zn  Zn100  1  0.93586360  0.43518575  0.17907383  1
  Zn  Zn101  1  0.93571987  0.43432763  0.69150266  1
  Zn  Zn102  1  0.94298885  0.92627659  0.32647939  1
  Zn  Zn103  1  0.89916212  0.93070768  0.68111185  1
  Zn  Zn104  1  0.08894905  0.03088772  0.36843510  1
  Zn  Zn105  1  0.06213299  0.06313900  0.80519261  1
  Zn  Zn106  1  0.05371237  0.55976581  0.31198511  1
  Zn  Zn107  1  0.09132913  0.48939835  0.85966196  1
  Zn  Zn108  1  0.58032024  0.08939571  0.27529842  1
  Zn  Zn109  1  0.55799826  0.06577506  0.82120794  1
  Zn  Zn110  1  0.55698279  0.54734409  0.31172743  1
  Zn  Zn111  1  0.57496390  0.54984951  0.81801395  1
  Zn  Zn112  1  0.44058087  0.30676967  0.42368547  1
  Zn  Zn113  1  0.41317450  0.21349012  0.90597604  1
  Zn  Zn114  1  0.42476403  0.68373154  0.40741072  1
  Zn  Zn115  1  0.45941053  0.68105609  0.92546131  1
  Zn  Zn116  1  0.93705853  0.19135107  0.43430011  1
  Zn  Zn117  1  0.95496175  0.16352731  0.89928662  1
  Zn  Zn118  1  0.92798120  0.68521239  0.43557022  1
  Zn  Zn119  1  0.95362501  0.66899793  0.91090851  1
  Zn  Zn120  1  0.06726135  0.30185205  0.04940931  1
  Zn  Zn121  1  0.05237032  0.30761991  0.57429402  1
  Zn  Zn122  1  0.06602694  0.81278948  0.06920295  1
  Zn  Zn123  1  0.06447291  0.92411799  0.65852577  1
  Zn  Zn124  1  0.57452242  0.32753979  0.04401627  1
  Zn  Zn125  1  0.58636148  0.31376594  0.55644458  1
  Zn  Zn126  1  0.51060052  0.84558878  0.11142846  1
  Zn  Zn127  1  0.57026819  0.77560974  0.56005325  1
  O  O128  1  0.11772011  0.09310924  0.14932271  1
  O  O129  1  0.13743599  0.12350037  0.61680110  1
  O  O130  1  0.11038441  0.61354955  0.10530957  1
  O  O131  1  0.09297270  0.63467310  0.60210655  1
  O  O132  1  0.62055650  0.10512156  0.16528737  1
  O  O133  1  0.65734967  0.10594836  0.60658662  1
  O  O134  1  0.61801484  0.61537572  0.12334737  1
  O  O135  1  0.60279294  0.59707774  0.65000096  1
  O  O136  1  0.37884826  0.37733279  0.36066261  1
  O  O137  1  0.37727371  0.39709818  0.87804291  1
  O  O138  1  0.41297356  0.90688169  0.35753978  1
  O  O139  1  0.41737740  0.90728306  0.89070719  1
  O  O140  1  0.88413225  0.38031492  0.37911955  1
  O  O141  1  0.86187801  0.38455484  0.88950150  1
  O  O142  1  0.86773555  0.86801724  0.38577860  1
  O  O143  1  0.86282816  0.88384224  0.88617731  1
  O  O144  1  0.39024507  -0.05343606  0.41309324  1
  O  O145  1  0.29237614  -0.02803931  0.92375259  1
  O  O146  1  0.26220450  0.48065572  0.37837652  1
  O  O147  1  0.27664539  0.51291821  0.84499522  1
  O  O148  1  0.75320471  0.02011061  0.36390854  1
  O  O149  1  0.74031200  0.00554157  0.87462418  1
  O  O150  1  0.76083931  0.48726185  0.35412243  1
  O  O151  1  0.75795112  0.50774731  0.86619062  1
  O  O152  1  0.24259918  0.48973369  0.10653365  1
  O  O153  1  0.25554275  0.52752507  0.64457884  1
  O  O154  1  0.23042391  0.98704880  0.12975065  1
  O  O155  1  0.29326963  0.97777556  0.63102103  1
  O  O156  1  0.75849977  0.48752293  0.13081791  1
  O  O157  1  0.75744094  0.48722258  0.63999003  1
  O  O158  1  0.75601435  1.00333474  0.14042494  1
  O  O159  1  0.74608835  0.96874913  0.64670085  1
  O  O160  1  -0.00435617  0.37840096  0.26105244  1
  O  O161  1  0.00115859  0.36703930  0.74993008  1
  O  O162  1  -0.01529181  0.85351024  0.24803428  1
  O  O163  1  -0.01353179  0.86360738  0.72649793  1
  O  O164  1  0.52142808  0.38226098  0.22970513  1
  O  O165  1  0.52858647  0.38564199  0.74311718  1
  O  O166  1  0.50519586  0.84281595  0.24975413  1
  O  O167  1  0.49378733  0.89221230  0.74822797  1
  O  O168  1  0.46729107  0.12587077  0.26734169  1
  O  O169  1  0.45688854  0.08680222  0.75136650  1
  O  O170  1  0.50596887  0.61848200  0.23710505  1
  O  O171  1  0.54817371  0.59080460  0.70106962  1
  O  O172  1  1.05451531  0.19295659  0.24449932  1
  O  O173  1  0.99311739  0.14800152  0.78727067  1
  O  O174  1  0.98558886  0.62388930  0.23838495  1
  O  O175  1  0.99677100  0.63619889  0.72839643  1
  O  O176  1  0.37978185  0.27738436  -0.01237488  1
  O  O177  1  0.40184840  0.23904648  0.50936353  1
  O  O178  1  0.42804064  0.77907588  -0.00613602  1
  O  O179  1  0.36806298  0.76817383  0.44794826  1
  O  O180  1  0.85949116  0.26381040  0.00265841  1
  O  O181  1  0.86071568  0.26330593  0.48817336  1
  O  O182  1  0.88413403  0.81607925  0.05981208  1
  O  O183  1  0.84967179  0.73647956  0.50109852  1
  O  O184  1  0.11319845  0.23752316  0.50175779  1
  O  O185  1  0.11551489  0.23027265  0.97142090  1
  O  O186  1  0.09978993  0.72758713  0.48959395  1
  O  O187  1  0.11428245  0.73353783  1.00439439  1
  O  O188  1  0.64648637  0.26503117  0.47228513  1
  O  O189  1  0.64645599  0.25977483  0.98467258  1
  O  O190  1  0.63610818  0.73419665  0.47774770  1
  O  O191  1  0.69278353  0.79508599  1.04333637  1
  O  O192  1  0.51537629  0.23109388  0.09903711  1
  O  O193  1  0.52771250  0.24283077  0.62420745  1
  O  O194  1  0.50952039  0.72789568  0.14280874  1
  O  O195  1  0.53989595  0.74098184  0.67788852  1
  O  O196  1  0.98711121  0.25654865  0.11422641  1
  O  O197  1  1.00521971  0.24123683  0.64931783  1
  O  O198  1  1.00910805  0.73498993  0.14364117  1
  O  O199  1  0.97208193  0.74180529  0.62706392  1
  O  O200  1  0.00243795  0.26627517  0.38002920  1
  O  O201  1  0.00713451  0.25992717  0.86600231  1
  O  O202  1  -0.00594200  0.74019342  0.36291611  1
  O  O203  1  -0.01084584  0.74517799  0.84083599  1
  O  O204  1  0.52583590  0.25002676  0.37098812  1
  O  O205  1  0.52370535  0.23935470  0.88622298  1
  O  O206  1  0.52196435  0.72368773  0.35850149  1
  O  O207  1  0.49233463  0.75915657  0.84992774  1
  O  O208  1  0.24171252  0.12970398  0.49974078  1
  O  O209  1  0.21844998  0.12123772  1.02541074  1
  O  O210  1  0.21959147  0.60038871  0.49764909  1
  O  O211  1  0.24827106  0.63754310  1.03166665  1
  O  O212  1  0.75292734  0.14185351  0.47887878  1
  O  O213  1  0.75277270  0.13531627  1.00425683  1
  O  O214  1  0.74579046  0.61283161  0.49716529  1
  O  O215  1  0.74165156  0.61437094  0.99526846  1
  O  O216  1  0.26433068  0.38715839  -0.00878281  1
  O  O217  1  0.24802380  0.40535583  0.53612989  1
  O  O218  1  0.25964339  0.84832490  0.02221818  1
  O  O219  1  0.25713828  0.88572533  0.46570880  1
  O  O220  1  0.75215941  0.37585047  0.01058253  1
  O  O221  1  0.75810533  0.37540391  0.50347506  1
  O  O222  1  0.73031389  0.84928796  0.00304977  1
  O  O223  1  0.72872272  0.88759511  0.50377521  1
  O  O224  1  0.12154006  0.49763430  0.25635611  1
  O  O225  1  0.13819619  0.52432873  0.76068142  1
  O  O226  1  0.11634136  0.98578268  0.26991560  1
  O  O227  1  0.11613161  0.99333091  0.73483661  1
  O  O228  1  0.64237963  0.48756781  0.25021399  1
  O  O229  1  0.64915713  0.47766202  0.76341378  1
  O  O230  1  0.64126335  0.98435538  0.25251056  1
  O  O231  1  0.63369235  1.00623880  0.75847446  1
  O  O232  1  0.36468677  0.02327848  0.26152586  1
  O  O233  1  0.33027633  -0.03610433  0.69304162  1
  O  O234  1  0.37505593  0.50029162  0.25575339  1
  O  O235  1  0.40648097  0.50533656  0.76287007  1
  O  O236  1  0.86547703  -0.01539122  0.25381403  1
  O  O237  1  0.84368119  -0.01612217  0.76731365  1
  O  O238  1  0.86705103  0.50362585  0.25128953  1
  O  O239  1  0.86114941  0.48583602  0.76552561  1
  O  O240  1  0.10159682  0.36819699  0.38843917  1
  O  O241  1  0.11523436  0.38071758  0.88856333  1
  O  O242  1  0.09446721  0.86013855  0.40422976  1
  O  O243  1  0.17585842  0.94611922  0.79102523  1
  O  O244  1  0.63570162  0.36638405  0.34944536  1
  O  O245  1  0.64139342  0.35511080  0.86047218  1
  O  O246  1  0.61879473  0.86011731  0.35584220  1
  O  O247  1  0.58972191  0.89050216  0.88418814  1
  O  O248  1  0.36667802  0.12672484  0.15502247  1
  O  O249  1  0.37889634  0.17640082  0.65076215  1
  O  O250  1  0.39277008  0.60341420  0.14282399  1
  O  O251  1  0.43740078  0.66225222  0.58689909  1
  O  O252  1  0.87519798  0.14282294  0.11711224  1
  O  O253  1  0.85234712  0.13932460  0.64063932  1
  O  O254  1  0.87792310  0.62302719  0.13454110  1
  O  O255  1  0.87703513  0.63311120  0.61812904  1
  O  O256  1  0.24244605  0.26598787  0.12104306  1
  O  O257  1  0.23541167  0.27243706  0.63847267  1
  O  O258  1  0.34049516  0.73589911  0.10050526  1
  O  O259  1  0.24616031  0.74896428  0.55461012  1
  O  O260  1  0.75586499  0.25833959  0.11109867  1
  O  O261  1  0.74426926  0.25664822  0.59822585  1
  O  O262  1  0.73980921  0.75815573  0.09704073  1
  O  O263  1  0.74356379  0.74187158  0.60263265  1
  O  O264  1  0.21552542  0.27013635  0.37506031  1
  O  O265  1  0.22833162  0.27373013  0.86559846  1
  O  O266  1  0.21155584  0.74863422  0.38088870  1
  O  O267  1  0.30326153  0.76724456  0.84828718  1
  O  O268  1  0.75123876  0.24626828  0.37245833  1
  O  O269  1  0.75410480  0.23297144  0.88438308  1
  O  O270  1  0.74272509  0.73442992  0.38222417  1
  O  O271  1  0.76225686  0.72477814  0.87999452  1
  O  O272  1  0.01911289  0.10731795  -0.02174890  1
  O  O273  1  -0.02145262  0.11973260  0.51375744  1
  O  O274  1  -0.02053194  0.63722300  0.01492567  1
  O  O275  1  -0.01325949  0.60705646  0.50001443  1
  O  O276  1  0.50336244  0.17202717  0.05708326  1
  O  O277  1  0.50004943  0.05593343  0.42700400  1
  O  O278  1  0.49943260  0.61722240  0.01454518  1
  O  O279  1  0.48628242  0.68090288  0.53417620  1
  O  O280  1  0.50587674  0.36870079  0.49561361  1
  O  O281  1  0.48936078  0.39105125  1.00642537  1
  O  O282  1  0.49454111  0.86429127  0.51608281  1
  O  O283  1  0.49362710  0.82110196  0.99787820  1
  O  O284  1  0.98475722  0.38184455  0.50735426  1
  O  O285  1  0.98332543  0.37111998  0.99727481  1
  O  O286  1  0.97593663  0.97465197  0.59824121  1
  O  O287  1  1.01278517  0.89165118  0.99998693  1
  O  O288  1  0.49205811  0.49942977  0.38763971  1
  O  O289  1  0.49211363  0.52253869  0.88891292  1
  O  O290  1  0.53270202  1.02007318  0.37264344  1
  O  O291  1  0.49247402  1.03398513  0.90426471  1
  O  O292  1  0.98719000  0.48543558  0.38325187  1
  O  O293  1  0.97924543  0.50752360  0.86633743  1
  O  O294  1  0.98232905  0.99319578  0.41207492  1
  O  O295  1  0.97865618  0.99139465  0.85649023  1
  O  O296  1  0.00750082  0.00135300  0.11280608  1
  O  O297  1  -0.09714561  0.10470668  0.67981869  1
  O  O298  1  -0.00935345  0.51460555  0.12079182  1
  O  O299  1  -0.01941146  0.51212396  0.61785072  1
  O  O300  1  0.50921786  -0.00171443  0.15601766  1
  O  O301  1  0.45073605  0.02514275  0.58685266  1
  O  O302  1  0.50422743  0.50629204  0.11054531  1
  O  O303  1  0.48535414  0.50033725  0.58592081  1
  O  O304  1  0.24384475  0.37797860  0.22823532  1
  O  O305  1  0.25431369  0.40702995  0.73108009  1
  O  O306  1  0.25463933  0.82142698  0.20046031  1
  O  O307  1  0.19874989  0.88259118  0.76406852  1
  O  O308  1  0.75126203  0.38363087  0.23233006  1
  O  O309  1  0.75044144  0.37328081  0.73940100  1
  O  O310  1  0.74533402  0.88109534  0.25576471  1
  O  O311  1  0.72690164  0.87126922  0.76884659  1
  O  O312  1  0.26090171  0.13710448  0.24200376  1
  O  O313  1  0.27217263  0.12346328  0.74211345  1
  O  O314  1  0.26141047  0.62838424  0.23262530  1
  O  O315  1  0.26504408  0.63409831  0.75140533  1
  O  O316  1  0.76036923  0.11394301  0.25166446  1
  O  O317  1  0.75041981  0.11974733  0.76139064  1
  O  O318  1  0.76025134  0.60837915  0.23406932  1
  O  O319  1  0.74899112  0.60509235  0.74478133  1
  O  O320  1  0.34560127  0.12190398  0.36096679  1
  O  O321  1  0.36311652  0.11279550  0.87415195  1
  O  O322  1  0.37248311  0.60147127  0.35315707  1
  O  O323  1  0.36744521  0.62174689  0.88756175  1
  O  O324  1  0.86551682  0.13500846  0.36683124  1
  O  O325  1  0.85587641  0.10464502  0.88033112  1
  O  O326  1  0.87869340  0.60674819  0.35880263  1
  O  O327  1  0.86134416  0.60585100  0.88376571  1
  O  O328  1  0.13990865  0.37724519  0.09198048  1
  O  O329  1  0.12147735  0.38236872  0.62779060  1
  O  O330  1  0.11153545  0.89288494  0.13433430  1
  O  O331  1  0.12584119  0.86629778  0.59088015  1
  O  O332  1  0.64299474  0.36945766  0.12895002  1
  O  O333  1  0.64402977  0.36872522  0.63841508  1
  O  O334  1  0.61269898  0.88507584  0.14881278  1
  O  O335  1  0.63455639  0.85097711  0.61885942  1
  O  O336  1  0.10551339  0.24216279  0.26284837  1
  O  O337  1  0.11319930  0.25066904  0.76941380  1
  O  O338  1  0.10454325  0.74732864  0.27350793  1
  O  O339  1  0.10419602  0.75574773  0.72287704  1
  O  O340  1  0.63556689  0.26353084  0.24797847  1
  O  O341  1  0.63198563  0.25488403  0.76077012  1
  O  O342  1  0.63739690  0.75032113  0.25816546  1
  O  O343  1  0.59802596  0.74094828  0.72610654  1
  O  O344  1  0.36969466  0.23254206  0.26542458  1
  O  O345  1  0.37768049  0.24400774  0.79305933  1
  O  O346  1  0.39460993  0.72093205  0.26072278  1
  O  O347  1  0.35308455  0.78857340  0.68416798  1
  O  O348  1  0.87396387  0.25844702  0.22746606  1
  O  O349  1  0.88629979  0.25753945  0.75376404  1
  O  O350  1  0.87710322  0.72960511  0.25411730  1
  O  O351  1  0.85684547  0.74676973  0.73097308  1
  O  O352  1  0.38225234  0.49868456  0.47566615  1
  O  O353  1  0.38805215  0.49394529  0.98727946  1
  O  O354  1  0.38401490  1.03024681  0.55048042  1
  O  O355  1  0.39619654  1.03516924  1.02316992  1
  O  O356  1  0.87486942  0.48896510  0.48785472  1
  O  O357  1  0.87257659  0.48647323  0.98980734  1
  O  O358  1  0.84842571  1.01775724  0.51282131  1
  O  O359  1  0.89447659  1.00244184  0.98887883  1
  O  O360  1  0.11563781  0.00660650  -0.00845149  1
  O  O361  1  0.12081946  0.02688370  0.48512003  1
  O  O362  1  0.12142314  0.54466869  -0.04014421  1
  O  O363  1  0.10109652  0.50341320  0.49488583  1
  O  O364  1  0.62388087  -0.00049190  0.03572851  1
  O  O365  1  0.52640928  -0.06917583  0.51754543  1
  O  O366  1  0.60887374  0.48611750  -0.01500699  1
  O  O367  1  0.61175678  0.48762021  0.49107267  1
  O  O368  1  0.35941193  0.38137113  0.10966981  1
  O  O369  1  0.39653910  0.34834862  0.64184331  1
  O  O370  1  0.39850278  0.88117027  0.13085128  1
  O  O371  1  0.38465354  0.81724642  0.62653744  1
  O  O372  1  0.86607044  0.36963330  0.11036540  1
  O  O373  1  0.86479273  0.37715699  0.61250846  1
  O  O374  1  0.86463198  0.86484669  0.10821400  1
  O  O375  1  0.84312254  0.84980324  0.61690492  1
  O  O376  1  0.11113184  0.14490216  0.38756688  1
  O  O377  1  0.14798275  0.10940362  0.87280287  1
  O  O378  1  0.10553694  0.62485531  0.38827829  1
  O  O379  1  0.19050160  0.66123254  0.89119150  1
  O  O380  1  0.64453642  0.14634395  0.35286998  1
  O  O381  1  0.64052337  0.13733059  0.87049369  1
  O  O382  1  0.63681717  0.62007459  0.35901378  1
  O  O383  1  0.64284014  0.62306858  0.86805495  1
