# generated using pymatgen
data_VZnO4
_symmetry_space_group_name_H-M   'P 1'
_cell_length_a   17.03981242
_cell_length_b   17.50629949
_cell_length_c   16.95438051
_cell_angle_alpha   89.27963784
_cell_angle_beta   90.48683488
_cell_angle_gamma   90.60064510
_symmetry_Int_Tables_number   1
_chemical_formula_structural   VZnO4
_chemical_formula_sum   'V64 Zn64 O256'
_cell_volume   5056.70595145
_cell_formula_units_Z   64
loop_
 _symmetry_equiv_pos_site_id
 _symmetry_equiv_pos_as_xyz
  1  'x, y, z'
loop_
 _atom_site_type_symbol
 _atom_site_label
 _atom_site_symmetry_multiplicity
 _atom_site_fract_x
 _atom_site_fract_y
 _atom_site_fract_z
 _atom_site_occupancy
  V  V0  1  0.00054759  0.83534758  0.90581330  1
  V  V1  1  0.84370154  0.65499241  0.73772789  1
  V  V2  1  -0.07255456  0.52559226  -0.02988702  1
  V  V3  1  -0.01446085  0.59496187  0.15748691  1
  V  V4  1  0.50206303  0.60142797  0.61948528  1
  V  V5  1  0.74132459  0.10057337  0.36309608  1
  V  V6  1  -0.01311675  0.62754852  0.61172770  1
  V  V7  1  0.12485746  0.05855003  0.12033103  1
  V  V8  1  0.46284127  0.28212778  0.75323874  1
  V  V9  1  0.65013294  -0.02005679  0.08804653  1
  V  V10  1  0.47876432  -0.00925462  -0.00787400  1
  V  V11  1  0.10824855  0.75053176  0.35037504  1
  V  V12  1  0.37538430  0.63504672  0.74429114  1
  V  V13  1  0.48942800  0.74608082  0.24878056  1
  V  V14  1  0.86014735  0.22795398  0.08024314  1
  V  V15  1  0.75201900  -0.00900555  0.22659050  1
  V  V16  1  0.89848320  0.88170457  0.46848086  1
  V  V17  1  0.86183975  0.62801176  0.26451668  1
  V  V18  1  0.22884733  0.15599622  0.84263303  1
  V  V19  1  0.73519224  0.76027747  0.02235461  1
  V  V20  1  0.36878419  0.74203435  0.10415454  1
  V  V21  1  0.52962792  0.12332957  0.09440107  1
  V  V22  1  0.02694420  0.76777154  0.72955366  1
  V  V23  1  0.74322843  0.58950492  0.38084452  1
  V  V24  1  0.62392220  0.74510007  0.88154754  1
  V  V25  1  0.62746019  0.21784690  0.36263803  1
  V  V26  1  0.26333553  0.34373861  0.59211608  1
  V  V27  1  0.49049869  0.86098412  0.88788777  1
  V  V28  1  0.37286250  0.10704858  0.23491000  1
  V  V29  1  0.24967406  -0.01557329  0.23113134  1
  V  V30  1  0.37355992  0.50524359  0.88116074  1
  V  V31  1  0.47504934  0.10409720  0.67187279  1
  V  V32  1  0.22886428  0.51823713  0.74054480  1
  V  V33  1  0.62696445  0.37305825  0.25267438  1
  V  V34  1  -0.00719550  0.05743230  -0.00056992  1
  V  V35  1  0.89848062  -0.01126939  0.34891579  1
  V  V36  1  0.01778249  0.08883654  0.59871674  1
  V  V37  1  0.63326336  0.23398664  0.87131159  1
  V  V38  1  0.51207357  0.22797892  0.23551147  1
  V  V39  1  0.88597201  0.06478872  0.83798837  1
  V  V40  1  0.50331477  0.75865875  0.73103347  1
  V  V41  1  0.39361379  0.88645228  0.49298499  1
  V  V42  1  0.02556563  0.40119938  0.87605140  1
  V  V43  1  0.86704542  0.77349084  0.60438192  1
  V  V44  1  0.26797521  0.37693054  0.13257276  1
  V  V45  1  0.12258586  0.48122330  0.13409030  1
  V  V46  1  0.64225968  0.11885074  0.54230146  1
  V  V47  1  0.60257120  0.58788696  0.48059912  1
  V  V48  1  0.11881601  0.62546917  0.49205387  1
  V  V49  1  0.49602202  0.60485242  0.12502287  1
  V  V50  1  0.36472823  0.24615889  0.10974619  1
  V  V51  1  0.15035075  0.10033542  0.47763773  1
  V  V52  1  0.11919076  0.36207626  0.27241628  1
  V  V53  1  0.23059399  -0.05512070  0.77140489  1
  V  V54  1  0.74858900  0.40583419  0.11793940  1
  V  V55  1  0.74031494  0.78276705  0.47544699  1
  V  V56  1  0.89508395  0.14144619  0.25219141  1
  V  V57  1  0.25916022  0.63378131  0.37162980  1
  V  V58  1  0.27003125  0.49236113  0.27329151  1
  V  V59  1  0.74329407  0.00406933  0.74616349  1
  V  V60  1  0.68566447  0.41855381  0.77351974  1
  V  V61  1  0.20766306  0.62813156  0.91903683  1
  V  V62  1  0.62745071  0.77785795  0.35311331  1
  V  V63  1  0.31108702  0.20080975  0.46872963  1
  Zn  Zn64  1  0.20813719  0.18915620  0.29998822  1
  Zn  Zn65  1  0.19147916  0.18263545  0.64356890  1
  Zn  Zn66  1  0.18582025  0.66265507  0.17896169  1
  Zn  Zn67  1  0.16507121  0.66091335  0.69532039  1
  Zn  Zn68  1  0.70703704  0.17312897  0.17035432  1
  Zn  Zn69  1  0.72651444  0.18899571  0.72684179  1
  Zn  Zn70  1  0.68585535  0.67751399  0.18689465  1
  Zn  Zn71  1  0.69695872  0.77054743  0.69371594  1
  Zn  Zn72  1  0.34817092  0.31588358  0.31170007  1
  Zn  Zn73  1  0.27163579  0.33881538  0.80566649  1
  Zn  Zn74  1  0.27303236  0.78380539  0.25083773  1
  Zn  Zn75  1  0.31278310  0.78804297  0.83281143  1
  Zn  Zn76  1  0.78959655  0.28888516  0.26662884  1
  Zn  Zn77  1  0.79460910  0.33548494  0.92165219  1
  Zn  Zn78  1  0.85720569  0.83162994  0.25107705  1
  Zn  Zn79  1  0.82019850  0.82428488  0.82557046  1
  Zn  Zn80  1  0.17282112  0.45696385  0.44107633  1
  Zn  Zn81  1  0.21829241  0.44911677  0.94098760  1
  Zn  Zn82  1  0.19835435  0.92215659  0.40838702  1
  Zn  Zn83  1  0.14166414  0.99471797  0.91497798  1
  Zn  Zn84  1  0.51192748  0.36104762  0.41996962  1
  Zn  Zn85  1  0.63849294  0.39410507  0.95076542  1
  Zn  Zn86  1  0.70665171  0.93573888  0.57308023  1
  Zn  Zn87  1  0.69759748  0.91165266  0.91280744  1
  Zn  Zn88  1  0.30726449  0.06717792  0.04681714  1
  Zn  Zn89  1  0.31671871  0.04968436  0.58042899  1
  Zn  Zn90  1  0.31063704  0.56433022  0.07688730  1
  Zn  Zn91  1  0.30188473  0.58312808  0.56553219  1
  Zn  Zn92  1  0.80574772  0.04762686  0.01781491  1
  Zn  Zn93  1  0.81210789  0.09133205  0.58790964  1
  Zn  Zn94  1  0.72290723  0.54451081  0.00574871  1
  Zn  Zn95  1  0.72688051  0.61546265  0.60755809  1
  Zn  Zn96  1  0.44858404  0.42626027  0.22709946  1
  Zn  Zn97  1  0.41289824  0.44958559  0.69620688  1
  Zn  Zn98  1  0.42889641  0.91139510  0.20064728  1
  Zn  Zn99  1  0.43204838  0.92420428  0.69371877  1
  Zn  Zn100  1  0.95483559  0.37764523  0.15603261  1
  Zn  Zn101  1  0.87632235  0.45401243  0.77340250  1
  Zn  Zn102  1  0.93268824  0.96583310  0.14672730  1
  Zn  Zn103  1  0.93021092  0.93913909  0.67423291  1
  Zn  Zn104  1  0.07693635  0.06462810  0.30385243  1
  Zn  Zn105  1  0.09338385  0.07181911  0.76078503  1
  Zn  Zn106  1  0.08430317  0.56317933  0.30012309  1
  Zn  Zn107  1  0.03852717  0.58190346  0.81353515  1
  Zn  Zn108  1  0.56122027  0.03316761  0.27954985  1
  Zn  Zn109  1  0.56991592  0.06211654  0.82996310  1
  Zn  Zn110  1  0.58151066  0.57513984  0.26940761  1
  Zn  Zn111  1  0.57829168  0.54128456  0.86595557  1
  Zn  Zn112  1  0.48617326  0.23555395  0.55146759  1
  Zn  Zn113  1  0.43501088  0.19809553  0.92747973  1
  Zn  Zn114  1  0.44683157  0.69367821  0.42561914  1
  Zn  Zn115  1  0.44190777  0.66992189  0.94497139  1
  Zn  Zn116  1  0.93393483  0.13443311  0.45122627  1
  Zn  Zn117  1  0.94325448  0.22709914  0.91679783  1
  Zn  Zn118  1  0.92972239  0.69127199  0.42152678  1
  Zn  Zn119  1  0.91372519  0.69124081  0.92396321  1
  Zn  Zn120  1  0.04279302  0.21855755  0.18393675  1
  Zn  Zn121  1  0.13680859  0.29715390  0.46703067  1
  Zn  Zn122  1  -0.04216823  0.78532752  0.09612694  1
  Zn  Zn123  1  0.05369965  0.79650250  0.53242204  1
  Zn  Zn124  1  0.58416362  0.29699903  0.07278480  1
  Zn  Zn125  1  0.56657645  0.38592989  0.62057589  1
  Zn  Zn126  1  0.54840127  0.81362459  0.08344432  1
  Zn  Zn127  1  0.57772666  0.82002819  0.56141760  1
  O  O128  1  0.12303315  0.15399381  0.13203455  1
  O  O129  1  0.13295097  0.10201095  0.59419719  1
  O  O130  1  0.10266127  0.58629721  0.16484998  1
  O  O131  1  0.10168851  0.63585622  0.59942936  1
  O  O132  1  0.62952783  0.13212554  0.09241144  1
  O  O133  1  0.71355817  0.14704531  0.61302497  1
  O  O134  1  0.60288207  0.60749314  0.15582420  1
  O  O135  1  0.60869431  0.61268090  0.59476860  1
  O  O136  1  0.43724751  0.37726352  0.33953352  1
  O  O137  1  0.32411510  0.41489944  0.87883981  1
  O  O138  1  0.41817267  0.90976185  0.39369464  1
  O  O139  1  0.39023417  0.85995511  0.87675739  1
  O  O140  1  0.84744063  0.30436975  0.46271855  1
  O  O141  1  0.99508078  0.30986332  0.86010873  1
  O  O142  1  0.88066907  0.88393456  0.35504946  1
  O  O143  1  0.91506990  0.87123350  0.87050497  1
  O  O144  1  0.25458835  -0.01420813  0.33104839  1
  O  O145  1  0.24169571  -0.02681044  0.86856681  1
  O  O146  1  0.25192469  0.50774619  0.37787599  1
  O  O147  1  0.24720446  0.54274702  0.86914914  1
  O  O148  1  0.75645444  0.00220562  0.33985665  1
  O  O149  1  0.81794705  0.03584405  0.90590642  1
  O  O150  1  0.74565639  0.49796972  0.37721838  1
  O  O151  1  0.63279494  0.50012805  0.95850101  1
  O  O152  1  0.25200078  0.49047720  0.15393613  1
  O  O153  1  0.23570252  0.52845123  0.63971204  1
  O  O154  1  0.22295872  1.02153714  0.10525334  1
  O  O155  1  0.27706664  0.98119506  0.66658937  1
  O  O156  1  0.72547880  0.49946869  0.11488738  1
  O  O157  1  0.77291177  0.51132641  0.63136993  1
  O  O158  1  0.75548921  1.00678461  0.11451872  1
  O  O159  1  0.77512892  0.99465523  0.64412915  1
  O  O160  1  0.02165908  0.36375888  0.25779615  1
  O  O161  1  -0.01021962  0.46493643  0.80139940  1
  O  O162  1  0.09278148  0.86659478  0.18224647  1
  O  O163  1  -0.00656112  0.85847574  0.71986869  1
  O  O164  1  0.52254907  0.32949785  0.22203923  1
  O  O165  1  0.49356588  0.37382049  0.71742727  1
  O  O166  1  0.51929494  0.83879057  0.20356907  1
  O  O167  1  0.49136074  0.85694490  0.76203594  1
  O  O168  1  0.50123885  0.11157742  0.20165264  1
  O  O169  1  0.48200717  0.10687325  0.77275621  1
  O  O170  1  0.49059106  0.64237678  0.24894598  1
  O  O171  1  0.49514547  0.63659133  0.72044264  1
  O  O172  1  1.00002321  0.13968411  0.26433559  1
  O  O173  1  1.02155657  0.12477929  0.69398296  1
  O  O174  1  0.97526063  0.58829920  0.26790295  1
  O  O175  1  0.99236148  0.66184594  0.72757787  1
  O  O176  1  0.38310146  0.25769250  0.01196953  1
  O  O177  1  0.40905666  0.18499695  0.47964809  1
  O  O178  1  0.36778487  0.73427125  0.00418978  1
  O  O179  1  0.40021382  0.78758838  0.47867418  1
  O  O180  1  0.87529181  0.28570994  -0.00927251  1
  O  O181  1  0.85705995  0.30738654  0.53442985  1
  O  O182  1  0.82497464  0.69189557  0.00461185  1
  O  O183  1  0.86766406  0.77383021  0.47898749  1
  O  O184  1  0.18977643  0.21049789  0.50254460  1
  O  O185  1  0.09427944  0.29496025  1.02433039  1
  O  O186  1  0.11575024  0.73155699  0.47063848  1
  O  O187  1  0.20032698  0.80972592  1.00862897  1
  O  O188  1  0.62077073  0.19722936  0.46331103  1
  O  O189  1  0.59998831  0.29026740  0.96442618  1
  O  O190  1  0.63302006  0.76984215  0.47555873  1
  O  O191  1  0.63084671  0.75839275  0.99718603  1
  O  O192  1  0.50444968  0.22528304  0.11106868  1
  O  O193  1  0.47996840  0.22581033  0.67031537  1
  O  O194  1  0.48491584  0.72706213  0.12666296  1
  O  O195  1  0.50791257  0.76198455  0.63086710  1
  O  O196  1  0.95823056  0.27010088  0.12612572  1
  O  O197  1  1.02370407  0.29985680  0.65282653  1
  O  O198  1  0.99471224  0.68928009  0.14110995  1
  O  O199  1  0.97838936  0.75788099  0.61222897  1
  O  O200  1  -0.02624683  0.25412899  0.43123299  1
  O  O201  1  0.14498267  0.25530264  0.99530007  1
  O  O202  1  0.00696988  0.74198431  0.35388073  1
  O  O203  1  0.03495214  0.76670857  0.83707516  1
  O  O204  1  0.51599527  0.20960115  0.33666581  1
  O  O205  1  0.49783300  0.25072386  0.84791671  1
  O  O206  1  0.51801214  0.75370546  0.35938185  1
  O  O207  1  0.50231360  0.75748373  0.89122608  1
  O  O208  1  0.27315298  0.10446030  0.49107769  1
  O  O209  1  0.27701363  0.12947608  0.94735477  1
  O  O210  1  0.22865705  0.62275391  0.48739760  1
  O  O211  1  0.22613453  0.61909296  1.01940425  1
  O  O212  1  0.75064313  0.10608984  0.46465995  1
  O  O213  1  0.80622130  0.15743393  1.03492346  1
  O  O214  1  0.71623278  0.60704037  0.48699285  1
  O  O215  1  0.74922850  0.65749089  0.98246144  1
  O  O216  1  0.26298281  0.39549892  0.03553948  1
  O  O217  1  0.32115103  0.28386013  0.53236598  1
  O  O218  1  0.22908765  0.87057713  0.02935499  1
  O  O219  1  0.29355032  0.88059045  0.47077185  1
  O  O220  1  0.74244063  0.37952378  0.01744627  1
  O  O221  1  0.76616056  0.45994561  0.56918321  1
  O  O222  1  0.76725763  0.84778099  -0.01254993  1
  O  O223  1  0.75483577  0.87951143  0.48102789  1
  O  O224  1  0.13954017  0.47300419  0.26417066  1
  O  O225  1  0.13677581  0.56532989  0.75358845  1
  O  O226  1  0.14225560  1.01766723  0.22407660  1
  O  O227  1  0.13445861  0.97126634  0.74804811  1
  O  O228  1  0.59355115  0.46185020  0.26905680  1
  O  O229  1  0.65297227  0.50932588  0.78326067  1
  O  O230  1  0.64805806  1.00544494  0.20910661  1
  O  O231  1  0.64545934  1.01912927  0.75294034  1
  O  O232  1  0.35668938  0.00438346  0.20016900  1
  O  O233  1  0.33350493  -0.02250586  0.72940419  1
  O  O234  1  0.36700116  0.50017512  0.26861316  1
  O  O235  1  0.34936444  0.52058343  0.75663556  1
  O  O236  1  0.87469867  0.00806540  0.24122329  1
  O  O237  1  0.89493237  0.00367465  0.75679016  1
  O  O238  1  0.94723447  0.42544529  0.43235412  1
  O  O239  1  0.85179665  0.56274219  0.76169294  1
  O  O240  1  0.13247591  0.36619291  0.37830410  1
  O  O241  1  0.12369714  0.40743744  0.89125358  1
  O  O242  1  0.13308322  0.84543467  0.36724230  1
  O  O243  1  0.06948046  0.90321951  0.92781443  1
  O  O244  1  0.61573294  0.32434184  0.35388890  1
  O  O245  1  0.62800227  0.36463629  0.83568942  1
  O  O246  1  0.63143802  0.86953095  0.34404807  1
  O  O247  1  0.60094602  0.85918062  0.87745814  1
  O  O248  1  0.36576938  0.14194524  0.11258281  1
  O  O249  1  0.37908951  0.11552408  0.64332754  1
  O  O250  1  0.38476787  0.63187433  0.12980929  1
  O  O251  1  0.39157723  0.62007840  0.62381271  1
  O  O252  1  0.89240700  0.14275965  0.15080210  1
  O  O253  1  0.91579334  0.12402615  0.56574746  1
  O  O254  1  0.87364966  0.58715173  0.17060225  1
  O  O255  1  0.87645119  0.66076838  0.63006591  1
  O  O256  1  0.26495735  0.26725332  0.12497622  1
  O  O257  1  0.21759378  0.28708195  0.66260600  1
  O  O258  1  0.27023797  0.73018867  0.14685115  1
  O  O259  1  0.20052226  0.84652742  0.60187309  1
  O  O260  1  0.78228266  0.26169445  0.14240088  1
  O  O261  1  0.80414585  0.26337326  0.67209668  1
  O  O262  1  0.73924582  0.75341729  0.12270955  1
  O  O263  1  0.76276269  0.73882187  0.57190728  1
  O  O264  1  0.29273903  0.23446702  0.37035572  1
  O  O265  1  0.21445818  0.25152906  0.84934913  1
  O  O266  1  0.24655214  0.73145223  0.35421705  1
  O  O267  1  0.24867429  0.71090773  0.88119518  1
  O  O268  1  0.73204511  0.21677251  0.34876254  1
  O  O269  1  0.73337686  0.24722528  0.88438956  1
  O  O270  1  0.73702697  0.75047901  0.37676248  1
  O  O271  1  0.72101152  0.76485497  0.86108904  1
  O  O272  1  -0.02537774  0.15279879  0.00369261  1
  O  O273  1  0.04132660  0.11074538  0.48663293  1
  O  O274  1  -0.03806290  0.57247498  0.05194441  1
  O  O275  1  -0.01174142  0.63749234  0.50517318  1
  O  O276  1  0.48603368  0.10984233  -0.00282944  1
  O  O277  1  0.55100980  0.13621345  0.58625897  1
  O  O278  1  0.50253100  0.61172143  0.02341063  1
  O  O279  1  0.50272170  0.62779520  0.50152615  1
  O  O280  1  0.52520969  0.33655682  0.52803326  1
  O  O281  1  0.46984177  0.38568456  1.02607866  1
  O  O282  1  0.49740111  0.88912128  0.51212931  1
  O  O283  1  0.49730426  0.88480583  0.99813959  1
  O  O284  1  1.01340933  0.27900190  0.49051554  1
  O  O285  1  0.97458018  0.43448151  0.96255933  1
  O  O286  1  0.99565086  0.87381848  0.47303370  1
  O  O287  1  0.97135291  0.77052925  0.98540824  1
  O  O288  1  0.41462591  0.49625737  0.44862201  1
  O  O289  1  0.47215275  0.49114395  0.86368900  1
  O  O290  1  0.48403414  0.95543529  0.29278854  1
  O  O291  1  0.50372438  0.98377113  0.89066204  1
  O  O292  1  0.97324430  0.41903416  0.49961007  1
  O  O293  1  0.95158964  0.59058321  0.89398107  1
  O  O294  1  0.99637065  0.99439481  0.34460852  1
  O  O295  1  0.97812209  1.03973921  0.89781727  1
  O  O296  1  0.02500405  0.02943571  0.12754808  1
  O  O297  1  0.00543577  -0.00588965  0.60632829  1
  O  O298  1  0.01841883  0.47222259  0.14473780  1
  O  O299  1  -0.02677231  0.53747968  0.63077326  1
  O  O300  1  0.53742279  0.00831510  0.08718503  1
  O  O301  1  0.49331765  0.00859871  0.65467286  1
  O  O302  1  0.47801244  0.51008207  0.15229292  1
  O  O303  1  0.49702622  0.50448434  0.62791295  1
  O  O304  1  0.26369599  0.38267213  0.26271312  1
  O  O305  1  0.21330914  0.42421176  0.75544492  1
  O  O306  1  0.24932008  0.88851671  0.21627413  1
  O  O307  1  0.24009092  0.84831933  0.76973782  1
  O  O308  1  0.73170250  0.37957430  0.25441887  1
  O  O309  1  0.78541317  0.40261288  0.82157921  1
  O  O310  1  0.76422250  0.89633820  0.23096098  1
  O  O311  1  0.75574419  0.92072759  0.80800766  1
  O  O312  1  0.27129864  0.11811054  0.24187367  1
  O  O313  1  0.23581888  0.13712330  0.74272608  1
  O  O314  1  0.24619369  0.60153314  0.26760133  1
  O  O315  1  0.27594932  0.64833406  0.72703296  1
  O  O316  1  0.77117864  0.11337816  0.24643166  1
  O  O317  1  0.77898791  0.09633878  0.77007229  1
  O  O318  1  0.75249281  0.61608100  0.26883151  1
  O  O319  1  0.74298119  0.66543506  0.71249273  1
  O  O320  1  0.40346763  0.09738811  0.32539130  1
  O  O321  1  0.33565641  0.13601694  0.88509799  1
  O  O322  1  0.35704731  0.63377328  0.39344060  1
  O  O323  1  0.39279534  0.61995576  0.84944529  1
  O  O324  1  0.87265512  0.09939708  0.36213456  1
  O  O325  1  0.90584445  0.16133875  0.83412210  1
  O  O326  1  0.85265544  0.61588086  0.37746922  1
  O  O327  1  0.86375383  0.71207869  0.82122061  1
  O  O328  1  0.15182038  0.37842278  0.15593624  1
  O  O329  1  0.19083076  0.38493627  0.52915977  1
  O  O330  1  0.08667336  0.84415908  0.11367338  1
  O  O331  1  0.14002100  0.87633085  0.57357230  1
  O  O332  1  0.64272625  0.36186508  0.14153695  1
  O  O333  1  0.66461008  0.38975404  0.67731306  1
  O  O334  1  0.63895274  0.88657756  0.09897743  1
  O  O335  1  0.65808273  0.85366710  0.63122396  1
  O  O336  1  0.13388018  0.26123567  0.25637791  1
  O  O337  1  0.03937217  0.36842306  0.65385708  1
  O  O338  1  0.13284041  0.73652013  0.25060046  1
  O  O339  1  0.12147974  0.76188166  0.70055691  1
  O  O340  1  0.62226335  0.22074521  0.23659335  1
  O  O341  1  0.63111625  0.22762706  0.76589415  1
  O  O342  1  0.62269790  0.74093395  0.25671212  1
  O  O343  1  0.60174880  0.74814299  0.76385998  1
  O  O344  1  0.39958766  0.22512615  0.22685948  1
  O  O345  1  0.36493500  0.28966665  0.76392981  1
  O  O346  1  0.39204048  0.76509379  0.26307513  1
  O  O347  1  0.39482497  0.73800478  0.75439101  1
  O  O348  1  0.88225427  0.23398390  0.28050092  1
  O  O349  1  0.85815814  0.30572362  0.70997114  1
  O  O350  1  0.87024703  0.72245515  0.25357591  1
  O  O351  1  0.83206785  0.79292557  0.69771148  1
  O  O352  1  0.36234116  0.48756691  0.49872741  1
  O  O353  1  0.36479794  0.52821774  0.97897611  1
  O  O354  1  0.38492663  0.98699917  0.50848187  1
  O  O355  1  0.38237035  0.99271873  1.00742340  1
  O  O356  1  0.82480482  0.45759523  0.52487283  1
  O  O357  1  0.82922298  0.51539073  0.97063036  1
  O  O358  1  0.88285996  0.98335714  0.45908651  1
  O  O359  1  0.91206371  1.00274713  1.03653729  1
  O  O360  1  0.10077411  0.04485758  0.00836548  1
  O  O361  1  0.16002771  0.00394766  0.47240781  1
  O  O362  1  0.13852231  0.48652558  0.03784078  1
  O  O363  1  0.09614164  0.53066459  0.47373219  1
  O  O364  1  0.66709187  -0.00758510  -0.01237168  1
  O  O365  1  0.64220200  0.02289758  0.53503186  1
  O  O366  1  0.50254545  0.44823515  0.01870099  1
  O  O367  1  0.58971363  0.49545219  0.48248085  1
  O  O368  1  0.37277798  0.35943088  0.14921143  1
  O  O369  1  0.33093607  0.40444069  0.63029338  1
  O  O370  1  0.38120518  0.83924571  0.12177101  1
  O  O371  1  0.38051600  0.87626346  0.59707357  1
  O  O372  1  0.84641770  0.40526243  0.14448970  1
  O  O373  1  0.86972178  0.37491451  0.67861273  1
  O  O374  1  0.92129617  0.85941465  0.16243988  1
  O  O375  1  0.88011072  0.87651739  0.58170062  1
  O  O376  1  0.14529075  0.12544565  0.37352302  1
  O  O377  1  0.13766424  0.10613592  0.86143481  1
  O  O378  1  0.13045730  0.63529249  0.37277097  1
  O  O379  1  0.10922754  0.62457467  0.90109786  1
  O  O380  1  0.63545919  0.10168947  0.34577431  1
  O  O381  1  0.61550975  0.14006141  0.89751731  1
  O  O382  1  0.62643956  0.60786344  0.37330321  1
  O  O383  1  0.60745022  0.64908056  0.88272134  1
