# generated using pymatgen
data_VZnO4
_symmetry_space_group_name_H-M   'P 1'
_cell_length_a   16.96260110
_cell_length_b   16.93931835
_cell_length_c   16.92324330
_cell_angle_alpha   90.48174654
_cell_angle_beta   90.08905623
_cell_angle_gamma   89.94720715
_symmetry_Int_Tables_number   1
_chemical_formula_structural   VZnO4
_chemical_formula_sum   'V64 Zn64 O256'
_cell_volume   4862.45865901
_cell_formula_units_Z   64
loop_
 _symmetry_equiv_pos_site_id
 _symmetry_equiv_pos_as_xyz
  1  'x, y, z'
loop_
 _atom_site_type_symbol
 _atom_site_label
 _atom_site_symmetry_multiplicity
 _atom_site_fract_x
 _atom_site_fract_y
 _atom_site_fract_z
 _atom_site_occupancy
  V  V0  1  0.50016979  0.63674360  0.13715813  1
  V  V1  1  0.23699345  0.12189356  0.85706839  1
  V  V2  1  0.50739222  0.64168850  0.63191659  1
  V  V3  1  0.51275169  0.22713812  0.73682467  1
  V  V4  1  0.73951728  0.63660122  0.36274805  1
  V  V5  1  0.36517861  0.88439473  -0.00054520  1
  V  V6  1  0.61883075  0.11459561  0.49421328  1
  V  V7  1  0.24771938  0.62778563  0.85830838  1
  V  V8  1  -0.01209855  0.61581054  0.62196075  1
  V  V9  1  0.09914352  0.01709934  0.57974884  1
  V  V10  1  0.62117810  0.48497259  0.61009336  1
  V  V11  1  0.37420186  0.00869102  0.37510760  1
  V  V12  1  0.87263292  0.73377429  0.11958240  1
  V  V13  1  0.35896804  0.75638544  0.62631740  1
  V  V14  1  0.14200089  0.61979583  0.50156468  1
  V  V15  1  0.86775162  0.49935260  0.39185379  1
  V  V16  1  0.89072462  0.02433174  0.89869553  1
  V  V17  1  0.51195841  0.00648727  -0.01093668  1
  V  V18  1  0.01150688  0.87291009  0.88409355  1
  V  V19  1  0.75438076  0.49433927  0.24501296  1
  V  V20  1  0.74713434  0.88142510  0.12341605  1
  V  V21  1  0.00171923  0.25821473  0.76323376  1
  V  V22  1  0.00857232  0.73489502  0.76460808  1
  V  V23  1  0.41334773  0.85952104  0.48516891  1
  V  V24  1  0.74332225  0.48315929  0.75554007  1
  V  V25  1  0.23828822  0.24528230  -0.01705734  1
  V  V26  1  0.74951511  0.26329230  0.49899372  1
  V  V27  1  0.79607212  -0.00233825  0.26053597  1
  V  V28  1  0.74163768  0.24218200  -0.00644294  1
  V  V29  1  0.13091987  0.87861360  0.74544842  1
  V  V30  1  -0.01808865  0.86999714  0.39205624  1
  V  V31  1  0.61690863  0.36550858  0.76614194  1
  V  V32  1  0.36548607  0.34931273  0.51502977  1
  V  V33  1  0.24070103  0.39142009  0.11850788  1
  V  V34  1  0.88132859  0.11445087  0.73303426  1
  V  V35  1  -0.00005293  0.73067502  0.25638992  1
  V  V36  1  0.87127200  0.37906625  0.02422855  1
  V  V37  1  0.87420082  0.87093506  -0.00430924  1
  V  V38  1  0.62674407  0.64197511  0.49560966  1
  V  V39  1  0.36329880  -0.00444597  0.85359665  1
  V  V40  1  0.38209952  0.36831137  -0.00918990  1
  V  V41  1  0.36778380  0.76231971  0.13404625  1
  V  V42  1  0.15166940  0.36261732  0.75325805  1
  V  V43  1  0.02545345  0.61343137  0.10921855  1
  V  V44  1  0.24453728  0.74212021  -0.00407829  1
  V  V45  1  0.35979843  0.60952260  0.25386390  1
  V  V46  1  0.36264468  0.24539273  0.13806529  1
  V  V47  1  0.87767452  0.48208674  0.87612128  1
  V  V48  1  0.61758573  -0.00522934  0.63460998  1
  V  V49  1  0.50191687  0.13412760  0.13391303  1
  V  V50  1  0.85616211  0.75781701  0.63463316  1
  V  V51  1  0.49701302  0.35957936  0.37078656  1
  V  V52  1  0.37942574  0.50940825  0.86513147  1
  V  V53  1  0.14576520  0.49579058  0.63968195  1
  V  V54  1  -0.00032073  0.24824102  0.26041705  1
  V  V55  1  0.86311832  0.22944797  0.13287124  1
  V  V56  1  0.50434063  0.50155019  0.00113930  1
  V  V57  1  0.61735262  0.74177295  0.87817064  1
  V  V58  1  0.11712557  0.87587385  0.26903550  1
  V  V59  1  0.12049678  0.38808689  0.26695666  1
  V  V60  1  0.88109421  0.28311444  0.61880851  1
  V  V61  1  0.37218459  0.50183776  0.40267497  1
  V  V62  1  0.61800546  0.47486059  0.14001122  1
  V  V63  1  0.85905318  0.62756286  0.76840385  1
  Zn  Zn64  1  0.12781363  0.25481755  0.11815515  1
  Zn  Zn65  1  0.16960299  0.17058448  0.68020056  1
  Zn  Zn66  1  0.18669345  0.69304102  0.18875354  1
  Zn  Zn67  1  0.18266861  0.68400995  0.68488577  1
  Zn  Zn68  1  0.69043478  0.17876076  0.18474795  1
  Zn  Zn69  1  0.69927058  0.18287238  0.69097365  1
  Zn  Zn70  1  0.71014704  0.66420114  0.15189015  1
  Zn  Zn71  1  0.68421250  0.67420343  0.69075220  1
  Zn  Zn72  1  0.33042921  0.35629429  0.29410201  1
  Zn  Zn73  1  0.33211546  0.30455704  0.81012328  1
  Zn  Zn74  1  0.32563147  0.86185780  0.29241630  1
  Zn  Zn75  1  0.31629710  0.80888372  0.81217320  1
  Zn  Zn76  1  0.79345844  0.30782172  0.30180944  1
  Zn  Zn77  1  0.81087990  0.29717289  0.80904287  1
  Zn  Zn78  1  0.81292650  0.80729154  0.30039572  1
  Zn  Zn79  1  0.82086211  0.84812206  0.78774566  1
  Zn  Zn80  1  0.19165520  0.43968635  0.44844989  1
  Zn  Zn81  1  0.20586721  0.43500640  0.92836718  1
  Zn  Zn82  1  0.15294429  0.99174456  0.38643312  1
  Zn  Zn83  1  0.19241916  0.93486417  0.93427232  1
  Zn  Zn84  1  0.68015831  0.43672660  0.42227899  1
  Zn  Zn85  1  0.68792919  0.42495008  0.94452576  1
  Zn  Zn86  1  0.72325300  1.14992731  0.35332324  1
  Zn  Zn87  1  0.70526661  0.94733616  0.92045414  1
  Zn  Zn88  1  0.35589800  0.10041552  0.01532098  1
  Zn  Zn89  1  0.27759071  -0.01028737  0.52386302  1
  Zn  Zn90  1  0.31957125  0.56886591  0.05866016  1
  Zn  Zn91  1  0.31620849  0.57010144  0.58261681  1
  Zn  Zn92  1  0.81298813  0.05917478  0.05550368  1
  Zn  Zn93  1  0.78371746  0.09983791  0.57106912  1
  Zn  Zn94  1  0.79975791  0.55480144  0.05121163  1
  Zn  Zn95  1  0.79973246  0.56373985  0.56860435  1
  Zn  Zn96  1  0.43573951  0.43687219  0.18167772  1
  Zn  Zn97  1  0.44910349  0.43543762  0.67997226  1
  Zn  Zn98  1  0.42255463  0.96943496  0.18123516  1
  Zn  Zn99  1  0.43654559  0.90888741  0.68229082  1
  Zn  Zn100  1  0.94505295  0.44939627  0.19945308  1
  Zn  Zn101  1  0.94357336  0.44128511  0.70355311  1
  Zn  Zn102  1  0.94149751  0.91217123  0.18508824  1
  Zn  Zn103  1  0.94915055  0.93405572  0.69503434  1
  Zn  Zn104  1  -0.00250611  0.03947145  0.28944685  1
  Zn  Zn105  1  0.05510906  0.06088850  0.80655065  1
  Zn  Zn106  1  0.05711022  0.56298654  0.31913908  1
  Zn  Zn107  1  0.08522144  0.52044820  0.85548891  1
  Zn  Zn108  1  0.54260290  0.06345673  0.31902401  1
  Zn  Zn109  1  0.53614272  0.01514268  0.77993744  1
  Zn  Zn110  1  0.54920909  0.55918148  0.31793049  1
  Zn  Zn111  1  0.55746561  0.55576103  0.80788968  1
  Zn  Zn112  1  0.43818706  0.18663816  0.44091210  1
  Zn  Zn113  1  0.44196886  0.18100564  0.90166848  1
  Zn  Zn114  1  0.42447537  0.66380623  0.45562246  1
  Zn  Zn115  1  0.43169132  0.68459637  0.95234490  1
  Zn  Zn116  1  0.93676894  0.33849337  0.43175751  1
  Zn  Zn117  1  0.97257634  0.23000116  0.96961394  1
  Zn  Zn118  1  0.90669392  0.70878332  0.43484468  1
  Zn  Zn119  1  0.93595409  0.68074931  0.94031321  1
  Zn  Zn120  1  0.05417600  0.43912741  0.03753605  1
  Zn  Zn121  1  0.06163366  0.32482492  0.57107269  1
  Zn  Zn122  1  0.06014300  0.79836693  0.06457996  1
  Zn  Zn123  1  0.05385121  0.79896698  0.57131586  1
  Zn  Zn124  1  0.55706915  0.30288431  0.06576236  1
  Zn  Zn125  1  0.55436147  0.30089258  0.55506614  1
  Zn  Zn126  1  0.53905305  0.84338687  0.09582712  1
  Zn  Zn127  1  0.58839551  0.82222107  0.56689176  1
  O  O128  1  0.15041208  0.07447703  0.12095091  1
  O  O129  1  0.09686457  0.11193124  0.61864759  1
  O  O130  1  0.12404669  0.62548299  0.11744294  1
  O  O131  1  0.10863348  0.60948319  0.63270953  1
  O  O132  1  0.60038901  0.14835579  0.12276987  1
  O  O133  1  0.67019601  0.09964583  0.61501629  1
  O  O134  1  0.59817388  0.64307992  0.14581635  1
  O  O135  1  0.62305611  0.61841068  0.61184688  1
  O  O136  1  0.37488109  0.38441934  0.39876052  1
  O  O137  1  0.37087393  0.39106341  0.88744983  1
  O  O138  1  0.38295111  0.84261675  0.38848385  1
  O  O139  1  0.36902943  0.88759960  0.88689978  1
  O  O140  1  0.85947178  0.39534625  0.36802157  1
  O  O141  1  0.86838667  0.38195024  0.86790533  1
  O  O142  1  0.88676930  0.82209949  0.38604098  1
  O  O143  1  0.88478337  0.87608317  0.88751621  1
  O  O144  1  0.26323680  -0.00938138  0.40632107  1
  O  O145  1  0.25452643  0.00685102  0.86973330  1
  O  O146  1  0.27357135  0.49375033  0.37904625  1
  O  O147  1  0.27129419  0.51465672  0.87204105  1
  O  O148  1  0.80078251  -0.00875720  0.35639960  1
  O  O149  1  0.78961115  0.02501992  0.90016928  1
  O  O150  1  0.74941661  0.50809198  0.36032320  1
  O  O151  1  0.74941639  0.49045702  0.86176396  1
  O  O152  1  0.25376848  0.48845082  0.10704932  1
  O  O153  1  0.24362994  0.51213367  0.64851634  1
  O  O154  1  0.17700665  1.02217108  0.07457408  1
  O  O155  1  0.19598637  0.98178693  0.59608193  1
  O  O156  1  0.72413363  0.50431266  0.13376579  1
  O  O157  1  0.72987370  0.50389455  0.64343341  1
  O  O158  1  0.75853299  0.98380906  0.12335335  1
  O  O159  1  0.82362844  0.95419840  0.54121412  1
  O  O160  1  0.01285062  0.37680860  0.25211946  1
  O  O161  1  0.00616853  0.36137480  0.75209071  1
  O  O162  1  -0.00346926  0.85179275  0.26814826  1
  O  O163  1  0.00680131  0.85590282  0.76809350  1
  O  O164  1  0.45092732  0.37061922  0.26943472  1
  O  O165  1  0.51638972  0.36236325  0.74784187  1
  O  O166  1  0.51133972  0.88973836  0.20475579  1
  O  O167  1  0.51032988  0.90410083  0.76658054  1
  O  O168  1  0.49075970  0.11802328  0.23187959  1
  O  O169  1  0.52272276  0.12953449  0.75913159  1
  O  O170  1  0.47851637  0.62321378  0.24215314  1
  O  O171  1  0.51127032  0.62358061  0.73149155  1
  O  O172  1  1.00521813  0.14778437  0.25715531  1
  O  O173  1  0.98885780  0.14063416  0.75430548  1
  O  O174  1  1.00999196  0.62745337  0.22952407  1
  O  O175  1  0.98073324  0.63179841  0.75548811  1
  O  O176  1  0.37888096  0.26476058  -0.01429601  1
  O  O177  1  0.36467785  0.24921904  0.50294759  1
  O  O178  1  0.37096254  0.76520307  0.00609575  1
  O  O179  1  0.38543723  0.75328594  0.51140084  1
  O  O180  1  0.86758118  0.26042312  0.02110821  1
  O  O181  1  0.87339617  0.27845853  0.51329311  1
  O  O182  1  0.87695388  0.75714639  0.00913774  1
  O  O183  1  0.87415217  0.75565175  0.53663136  1
  O  O184  1  0.13480642  0.24699405  0.51295962  1
  O  O185  1  0.14133283  0.25580755  0.98866263  1
  O  O186  1  0.11554002  0.71671347  0.52078528  1
  O  O187  1  0.14625470  0.75569634  1.00491128  1
  O  O188  1  0.64548523  0.23662681  0.51861951  1
  O  O189  1  0.64234198  0.26623869  1.00417314  1
  O  O190  1  0.63488320  0.74031110  0.49900030  1
  O  O191  1  0.61325102  0.73074974  0.98019483  1
  O  O192  1  0.47440393  0.24404283  0.12053687  1
  O  O193  1  0.49317270  0.23854016  0.64087388  1
  O  O194  1  0.48146364  0.74236694  0.11737998  1
  O  O195  1  0.52360617  0.74258185  0.62843517  1
  O  O196  1  0.97629506  0.25822081  0.13239675  1
  O  O197  1  0.98305861  0.25976285  0.62684083  1
  O  O198  1  0.99079952  0.73117689  0.12586194  1
  O  O199  1  0.98238485  0.73804634  0.65163409  1
  O  O200  1  -0.01139560  0.26482054  0.35863370  1
  O  O201  1  0.00009173  0.25376236  0.86269913  1
  O  O202  1  -0.00275572  0.71869799  0.35633737  1
  O  O203  1  -0.00837974  0.75326884  0.86900391  1
  O  O204  1  0.49136588  0.25815403  0.36768650  1
  O  O205  1  0.61169292  0.15409731  0.89777283  1
  O  O206  1  0.58284968  0.79388611  0.34758497  1
  O  O207  1  0.51236980  0.72524211  0.87628610  1
  O  O208  1  0.25601934  0.17208829  0.59416281  1
  O  O209  1  0.25152680  0.14173334  0.98850202  1
  O  O210  1  0.24265996  0.62273170  0.51024368  1
  O  O211  1  0.26009338  0.63774889  0.99045683  1
  O  O212  1  0.73779730  0.12959855  0.47457815  1
  O  O213  1  0.74793542  0.14135558  1.01097293  1
  O  O214  1  0.73171902  0.61918388  0.48902375  1
  O  O215  1  0.72474381  0.63366299  1.04173129  1
  O  O216  1  0.26390291  0.36611066  -0.00034963  1
  O  O217  1  0.26707906  0.37692584  0.50763102  1
  O  O218  1  0.25974973  0.86160098  -0.00426553  1
  O  O219  1  0.22456995  0.79321917  0.44148452  1
  O  O220  1  0.76545052  0.36383951  0.00096913  1
  O  O221  1  0.73297066  0.36120583  0.49342556  1
  O  O222  1  0.76810524  0.88104994  0.00506442  1
  O  O223  1  0.78768546  0.90912043  0.49728869  1
  O  O224  1  0.12024385  0.48783346  0.25495257  1
  O  O225  1  0.12517962  0.47780311  0.74905100  1
  O  O226  1  0.10278004  0.98415685  0.27935045  1
  O  O227  1  0.11252157  0.97858446  0.74822284  1
  O  O228  1  0.61817718  0.50291310  0.23968230  1
  O  O229  1  0.62993607  0.48295742  0.75347568  1
  O  O230  1  0.60309531  0.98301572  0.24302210  1
  O  O231  1  0.64331825  1.00982843  0.73414848  1
  O  O232  1  0.35332559  -0.02572420  0.27052791  1
  O  O233  1  0.37134799  -0.01256521  0.75628274  1
  O  O234  1  0.35808356  0.51118259  0.23647440  1
  O  O235  1  0.39931518  0.49284570  0.76903202  1
  O  O236  1  0.89746665  0.00754261  0.23150407  1
  O  O237  1  0.89464171  0.01696657  0.77812693  1
  O  O238  1  0.85449085  0.50914948  0.24204612  1
  O  O239  1  0.85825973  0.50287364  0.75983305  1
  O  O240  1  0.13936231  0.37639244  0.36459857  1
  O  O241  1  0.14381023  0.36732796  0.85281640  1
  O  O242  1  0.09874127  0.86079525  0.37107798  1
  O  O243  1  0.11425628  0.87108072  0.87476072  1
  O  O244  1  0.59528294  0.38389620  0.36759507  1
  O  O245  1  0.62187326  0.36925968  0.86513673  1
  O  O246  1  0.57734036  0.91104013  0.25186150  1
  O  O247  1  0.59347105  0.84104539  0.87649380  1
  O  O248  1  0.36866681  0.14182954  0.12284583  1
  O  O249  1  0.35540522  0.08531569  0.58857192  1
  O  O250  1  0.37667252  0.63786030  0.13784973  1
  O  O251  1  0.39570465  0.64711140  0.62082022  1
  O  O252  1  0.87404059  0.13155147  0.12686109  1
  O  O253  1  0.87572243  0.09096166  0.63485609  1
  O  O254  1  0.86972943  0.63314760  0.11231120  1
  O  O255  1  0.87366892  0.62966003  0.64334114  1
  O  O256  1  0.25610279  0.25853775  0.10045341  1
  O  O257  1  0.32504608  0.14628153  0.62343915  1
  O  O258  1  0.26331829  0.74560273  0.11105904  1
  O  O259  1  0.26112435  0.74387273  0.62586196  1
  O  O260  1  0.76156685  0.24954716  0.12304643  1
  O  O261  1  0.77890546  0.23302074  0.61053773  1
  O  O262  1  0.76963717  0.76342821  0.13992166  1
  O  O263  1  0.75714518  0.74417161  0.64115737  1
  O  O264  1  0.24879518  0.20982226  0.35978987  1
  O  O265  1  0.25889134  0.23665047  0.87604709  1
  O  O266  1  0.24063741  0.74399798  0.39137171  1
  O  O267  1  0.26318550  0.73739485  0.88564899  1
  O  O268  1  0.78300763  0.24507895  0.40069310  1
  O  O269  1  0.75852800  0.24597103  0.89306960  1
  O  O270  1  0.73956625  0.73596226  0.35538788  1
  O  O271  1  0.71776420  0.75844697  0.89117855  1
  O  O272  1  0.02310217  0.21301713  0.07745989  1
  O  O273  1  0.08470234  0.19620956  0.47488624  1
  O  O274  1  0.00461200  0.62578079  0.01052228  1
  O  O275  1  -0.01642259  0.62912686  0.52464456  1
  O  O276  1  0.47876264  0.11823311  -0.00680371  1
  O  O277  1  0.52300275  0.14686834  0.50803859  1
  O  O278  1  0.48978171  0.60882921  0.02313403  1
  O  O279  1  0.51821783  0.62762108  0.50973602  1
  O  O280  1  0.48344234  0.36094557  0.48695726  1
  O  O281  1  0.48706514  0.38465943  1.00933544  1
  O  O282  1  0.51230847  0.86016010  0.48895622  1
  O  O283  1  0.48430196  0.89980968  1.00889354  1
  O  O284  1  1.01641452  0.38709323  0.49188361  1
  O  O285  1  0.97142482  0.36697071  0.99843903  1
  O  O286  1  1.00045058  0.85368906  0.48970870  1
  O  O287  1  0.99549121  0.85818620  0.98829776  1
  O  O288  1  0.47468219  0.48959833  0.36751930  1
  O  O289  1  0.49871486  0.50896566  0.89534849  1
  O  O290  1  0.47427284  0.98784836  0.36683965  1
  O  O291  1  0.47498622  1.00604035  0.88712477  1
  O  O292  1  0.96321781  0.51785355  0.36694904  1
  O  O293  1  0.97485480  0.49643309  0.86299001  1
  O  O294  1  0.96759946  0.96776842  0.37996293  1
  O  O295  1  1.00016015  0.97852516  0.87962246  1
  O  O296  1  0.04115090  -0.05475360  0.13155019  1
  O  O297  1  0.01367747  -0.03064760  0.61296108  1
  O  O298  1  0.00439072  0.50971270  0.11928902  1
  O  O299  1  -0.00666353  0.51481108  0.63589670  1
  O  O300  1  0.48773865  0.02620158  0.10247127  1
  O  O301  1  0.51517266  -0.01031590  0.64106771  1
  O  O302  1  0.50783607  0.50791208  0.12440007  1
  O  O303  1  0.51966998  0.51231359  0.62902076  1
  O  O304  1  0.23527164  0.37508749  0.22584335  1
  O  O305  1  0.25088420  0.34732142  0.74185626  1
  O  O306  1  0.21617824  0.86485828  0.26146275  1
  O  O307  1  0.22827568  0.86454212  0.76632999  1
  O  O308  1  0.74287025  0.39654008  0.24900595  1
  O  O309  1  0.73687716  0.37696012  0.74900212  1
  O  O310  1  0.76606416  0.89075863  0.23644613  1
  O  O311  1  0.72517277  0.89311112  0.82161120  1
  O  O312  1  0.23272422  0.16140277  0.30852853  1
  O  O313  1  0.24661158  0.13218969  0.75825740  1
  O  O314  1  0.26459222  0.64069554  0.25196326  1
  O  O315  1  0.26210349  0.64067753  0.75992064  1
  O  O316  1  0.73991222  0.08520701  0.24846498  1
  O  O317  1  0.78612163  0.13928198  0.75849019  1
  O  O318  1  0.73165449  0.61537659  0.25739132  1
  O  O319  1  0.75607933  0.60844416  0.75437650  1
  O  O320  1  0.37607123  0.10854663  0.38213335  1
  O  O321  1  0.35728840  0.10327595  0.87741931  1
  O  O322  1  0.37974952  0.61267941  0.36380346  1
  O  O323  1  0.37874378  0.61382739  0.87821316  1
  O  O324  1  0.92526618  0.12470394  0.41278402  1
  O  O325  1  0.91998615  0.11681055  0.91998939  1
  O  O326  1  0.84396344  0.62151848  0.38380131  1
  O  O327  1  0.86837278  0.61141921  0.87168182  1
  O  O328  1  0.13780611  0.37736507  0.10415766  1
  O  O329  1  0.13227992  0.38890358  0.63604466  1
  O  O330  1  0.09513927  0.88664573  0.14436107  1
  O  O331  1  0.12026669  0.84812550  0.64973591  1
  O  O332  1  0.60849889  0.37707833  0.14126566  1
  O  O333  1  0.61531918  0.38397495  0.62606793  1
  O  O334  1  0.65014640  0.86165623  0.11234268  1
  O  O335  1  0.65287353  0.90004505  0.61641792  1
  O  O336  1  0.10580557  0.26899922  0.23180755  1
  O  O337  1  0.11182919  0.25706463  0.73446280  1
  O  O338  1  0.10484488  0.75952162  0.23627056  1
  O  O339  1  0.10875916  0.73949560  0.75819937  1
  O  O340  1  0.70091081  0.23709709  0.27974925  1
  O  O341  1  0.62322931  0.25527134  0.74334240  1
  O  O342  1  0.57914071  0.75675382  0.28546666  1
  O  O343  1  0.62990110  0.74039134  0.77321949  1
  O  O344  1  0.34992303  0.25294430  0.23472102  1
  O  O345  1  0.43267994  0.24738036  0.80879146  1
  O  O346  1  0.36815003  0.76606473  0.23419188  1
  O  O347  1  0.38325698  0.78123377  0.72388446  1
  O  O348  1  0.88386064  0.26202648  0.23544041  1
  O  O349  1  0.88755515  0.24557060  0.73650787  1
  O  O350  1  0.89185351  0.74652544  0.23110617  1
  O  O351  1  0.86411785  0.73290268  0.76384548  1
  O  O352  1  0.37957000  0.51565165  0.50237682  1
  O  O353  1  0.38734599  0.49128797  0.99688589  1
  O  O354  1  0.38358419  0.96561470  0.48490433  1
  O  O355  1  0.35587570  0.98620387  1.00486908  1
  O  O356  1  0.85859380  0.50094824  0.49205854  1
  O  O357  1  0.86167085  0.48729250  0.98620667  1
  O  O358  1  0.92589166  1.10496630  0.48223210  1
  O  O359  1  0.89320828  0.98089101  1.00378064  1
  O  O360  1  0.13204087  0.00635643  0.00830247  1
  O  O361  1  0.09371260  0.02325375  0.47734356  1
  O  O362  1  0.11647746  0.49159935  -0.03755299  1
  O  O363  1  0.13414095  0.50503962  0.53006726  1
  O  O364  1  0.60994386  -0.00454629  -0.02674526  1
  O  O365  1  0.61314350  0.01588151  0.51559295  1
  O  O366  1  0.60961476  0.48475631  0.01596645  1
  O  O367  1  0.62973004  0.49630049  0.51042190  1
  O  O368  1  0.36254011  0.36615422  0.11203688  1
  O  O369  1  0.38652311  0.37277908  0.61323018  1
  O  O370  1  0.37576855  0.86933185  0.11597384  1
  O  O371  1  0.37672418  0.86415232  0.59670717  1
  O  O372  1  0.87267696  0.39131952  0.12280975  1
  O  O373  1  0.86831739  0.37929050  0.63888826  1
  O  O374  1  0.87342991  0.86183499  0.11010697  1
  O  O375  1  0.86353595  0.85766897  0.67757922  1
  O  O376  1  0.10954901  0.16634884  0.41098525  1
  O  O377  1  0.13774720  0.11385579  0.87028189  1
  O  O378  1  0.12083338  0.60226254  0.40413944  1
  O  O379  1  0.14906764  0.61760834  0.86304217  1
  O  O380  1  0.61728435  0.11194208  0.38599688  1
  O  O381  1  0.65707281  0.11257555  0.85985434  1
  O  O382  1  0.62564873  0.61808088  0.38593193  1
  O  O383  1  0.62758720  0.63620527  0.86545470  1
