# generated using pymatgen
data_VZnO4
_symmetry_space_group_name_H-M   'P 1'
_cell_length_a   16.90102118
_cell_length_b   16.94314464
_cell_length_c   16.95212152
_cell_angle_alpha   89.70659181
_cell_angle_beta   90.10039614
_cell_angle_gamma   89.48561584
_symmetry_Int_Tables_number   1
_chemical_formula_structural   VZnO4
_chemical_formula_sum   'V64 Zn64 O256'
_cell_volume   4854.08215307
_cell_formula_units_Z   64
loop_
 _symmetry_equiv_pos_site_id
 _symmetry_equiv_pos_as_xyz
  1  'x, y, z'
loop_
 _atom_site_type_symbol
 _atom_site_label
 _atom_site_symmetry_multiplicity
 _atom_site_fract_x
 _atom_site_fract_y
 _atom_site_fract_z
 _atom_site_occupancy
  V  V0  1  0.75185677  -0.00740387  0.24042219  1
  V  V1  1  0.36564855  0.11294446  0.74282397  1
  V  V2  1  0.49672084  0.25151132  0.77074653  1
  V  V3  1  0.24421660  0.12273481  0.36451210  1
  V  V4  1  -0.00154919  0.11919593  0.61912594  1
  V  V5  1  0.48927218  0.13455708  0.62193432  1
  V  V6  1  0.25118672  0.25226696  0.49803422  1
  V  V7  1  0.74405033  0.11695587  0.38067089  1
  V  V8  1  0.36671980  -0.00808595  0.37231860  1
  V  V9  1  0.61571584  0.74260397  0.36625426  1
  V  V10  1  0.13564438  0.49963514  0.62336462  1
  V  V11  1  0.87391941  0.76160758  0.61487701  1
  V  V12  1  0.12351203  0.62448165  -0.00261200  1
  V  V13  1  0.12473234  0.90195151  0.24611086  1
  V  V14  1  0.23821741  0.37960584  0.13223950  1
  V  V15  1  0.00300320  0.25696354  0.73535167  1
  V  V16  1  0.88718783  0.36396963  -0.03351977  1
  V  V17  1  0.00310376  0.87815640  0.87476307  1
  V  V18  1  0.88633833  -0.00830678  0.39162529  1
  V  V19  1  0.25138878  0.11226311  0.87426849  1
  V  V20  1  0.38982694  0.74655554  0.11598783  1
  V  V21  1  0.87504947  0.13379874  0.24174492  1
  V  V22  1  0.87309551  0.00554836  0.86332228  1
  V  V23  1  0.39900365  0.61991744  0.23619874  1
  V  V24  1  0.00007181  0.62599589  0.62208325  1
  V  V25  1  0.12378022  0.24989136  0.87471365  1
  V  V26  1  0.00984384  0.01375829  0.00924910  1
  V  V27  1  0.13884767  -0.00468752  0.64033879  1
  V  V28  1  -0.01115017  0.50471724  -0.01483262  1
  V  V29  1  0.74211317  0.50373428  0.75250470  1
  V  V30  1  0.12332403  0.11898108  0.49606115  1
  V  V31  1  0.73019789  0.88546436  0.63496889  1
  V  V32  1  0.62400923  0.11119704  0.50708449  1
  V  V33  1  0.62106148  0.25003073  0.38062349  1
  V  V34  1  0.62179998  0.88212748  0.23951181  1
  V  V35  1  0.37502504  0.24945387  0.11715056  1
  V  V36  1  0.25040678  0.87344048  0.11916687  1
  V  V37  1  0.38623964  0.49373682  0.36556186  1
  V  V38  1  0.26241666  0.37443329  0.62077767  1
  V  V39  1  0.86995721  0.12889532  0.74623684  1
  V  V40  1  0.61206574  0.52708867  0.60661497  1
  V  V41  1  0.72663477  0.74668500  0.49988382  1
  V  V42  1  0.49707332  0.74398375  0.76157227  1
  V  V43  1  0.49828108  0.25989421  0.25872216  1
  V  V44  1  0.63751309  0.13271471  0.00841995  1
  V  V45  1  -0.00484538  0.49315403  0.49134577  1
  V  V46  1  0.87498008  0.61835657  0.75731411  1
  V  V47  1  0.24872055  0.25292093  -0.00587351  1
  V  V48  1  0.14179808  0.64097034  0.50424715  1
  V  V49  1  0.38850949  0.37270851  0.48820442  1
  V  V50  1  0.60736248  0.60773367  0.01730456  1
  V  V51  1  0.24818629  0.62839746  0.36268364  1
  V  V52  1  0.76099540  0.38043606  0.61084206  1
  V  V53  1  0.49721667  0.87603505  0.37303235  1
  V  V54  1  0.38158429  0.11871109  0.24629893  1
  V  V55  1  0.49024711  -0.00875114  0.51018961  1
  V  V56  1  0.25649668  0.59241884  0.86822013  1
  V  V57  1  -0.00091508  0.75477771  0.75386023  1
  V  V58  1  0.13374479  0.37686202  0.74588714  1
  V  V59  1  0.74752484  0.72803955  -0.01318380  1
  V  V60  1  0.85982568  0.87809410  0.00550881  1
  V  V61  1  0.11584271  0.26879366  0.36662650  1
  V  V62  1  0.13558689  0.75085230  0.87448887  1
  V  V63  1  0.11290898  0.50541453  0.13357128  1
  Zn  Zn64  1  0.18582105  0.20030843  0.19225979  1
  Zn  Zn65  1  0.18801856  0.18683980  0.68113236  1
  Zn  Zn66  1  0.19565004  0.69211338  0.17004366  1
  Zn  Zn67  1  0.18812561  0.67920731  0.69974024  1
  Zn  Zn68  1  0.69668708  0.19384615  0.20723072  1
  Zn  Zn69  1  0.69840849  0.23951879  0.74628430  1
  Zn  Zn70  1  0.69797332  0.69434045  0.17257288  1
  Zn  Zn71  1  0.69065795  0.69326712  0.69293298  1
  Zn  Zn72  1  0.30679485  0.30795912  0.31087987  1
  Zn  Zn73  1  0.31854046  0.30417234  0.80374096  1
  Zn  Zn74  1  0.30500483  0.80348595  0.29965417  1
  Zn  Zn75  1  0.31282206  0.80335939  0.94872514  1
  Zn  Zn76  1  0.95488245  0.28774682  0.27773749  1
  Zn  Zn77  1  0.82753160  0.33011707  0.79765196  1
  Zn  Zn78  1  0.80169432  0.81876812  0.32715904  1
  Zn  Zn79  1  0.81355121  0.81315203  0.81290439  1
  Zn  Zn80  1  0.19184239  0.44728746  0.43479433  1
  Zn  Zn81  1  0.17493904  0.43052378  0.94382072  1
  Zn  Zn82  1  0.16146074  0.94874769  0.41531305  1
  Zn  Zn83  1  0.18627420  0.93708098  0.94106164  1
  Zn  Zn84  1  0.62025593  0.41416604  0.48109878  1
  Zn  Zn85  1  0.71204825  0.31785022  0.94134090  1
  Zn  Zn86  1  0.68768245  0.93092482  0.44178770  1
  Zn  Zn87  1  0.68228976  0.95594395  0.91043582  1
  Zn  Zn88  1  0.30032512  0.06747033  0.06522584  1
  Zn  Zn89  1  0.30993502  0.06022335  0.55605706  1
  Zn  Zn90  1  0.30452709  0.56379704  0.06017362  1
  Zn  Zn91  1  0.31906771  0.54977674  0.55076097  1
  Zn  Zn92  1  0.82974338  0.05151662  0.06521991  1
  Zn  Zn93  1  0.81179522  0.05815091  0.56821495  1
  Zn  Zn94  1  0.76802591  0.51446655  -0.03351380  1
  Zn  Zn95  1  0.80767080  0.56266586  0.55931081  1
  Zn  Zn96  1  0.42042693  0.42813660  0.18932975  1
  Zn  Zn97  1  0.48864355  0.40456652  0.64217116  1
  Zn  Zn98  1  0.42805319  0.92814815  0.18944098  1
  Zn  Zn99  1  0.37852029  0.90976397  0.79002919  1
  Zn  Zn100  1  0.93022617  0.46869222  0.18914955  1
  Zn  Zn101  1  0.93774516  0.43784887  0.67169205  1
  Zn  Zn102  1  0.93790478  0.94082605  0.18854599  1
  Zn  Zn103  1  0.94352850  0.94033312  0.68444788  1
  Zn  Zn104  1  0.05542633  0.06687615  0.30579502  1
  Zn  Zn105  1  0.06410394  0.06647389  0.81100694  1
  Zn  Zn106  1  0.06239594  0.57535164  0.32316939  1
  Zn  Zn107  1  0.06459182  0.56148340  0.80976153  1
  Zn  Zn108  1  0.55926132  0.05650423  0.31522757  1
  Zn  Zn109  1  0.57542694  0.08951544  0.80558948  1
  Zn  Zn110  1  0.56900551  0.55227455  0.30964504  1
  Zn  Zn111  1  0.56159963  0.54365100  0.81454685  1
  Zn  Zn112  1  0.43383891  0.18209352  0.43494522  1
  Zn  Zn113  1  0.43951279  0.17023243  0.93006526  1
  Zn  Zn114  1  0.40618488  0.70758025  0.40983122  1
  Zn  Zn115  1  0.43653323  0.65841275  0.94347751  1
  Zn  Zn116  1  0.94308225  0.17300951  0.42303924  1
  Zn  Zn117  1  0.94470340  0.18911849  0.92808284  1
  Zn  Zn118  1  0.95507964  0.70075374  0.44159412  1
  Zn  Zn119  1  0.93292168  0.69217211  0.94340746  1
  Zn  Zn120  1  0.02625012  0.33700603  0.10704200  1
  Zn  Zn121  1  0.06782127  0.31233738  0.55681342  1
  Zn  Zn122  1  0.06969648  0.82526559  0.05561023  1
  Zn  Zn123  1  0.07193638  0.81371144  0.57441669  1
  Zn  Zn124  1  0.56376152  0.30061807  0.07972006  1
  Zn  Zn125  1  0.61242159  0.28080919  0.59113944  1
  Zn  Zn126  1  0.59531430  0.78428944  0.07076257  1
  Zn  Zn127  1  0.55802014  0.81629815  0.56537022  1
  O  O128  1  0.09233555  0.16950088  0.11832620  1
  O  O129  1  0.11988330  0.11822248  0.61492399  1
  O  O130  1  0.13831436  0.61315128  0.10550914  1
  O  O131  1  0.12447960  0.62011236  0.62136386  1
  O  O132  1  0.64075068  0.13514136  0.11362431  1
  O  O133  1  0.60343580  0.11529957  0.60828223  1
  O  O134  1  0.63296809  0.62061597  0.11660319  1
  O  O135  1  0.63158051  0.62452142  0.62440999  1
  O  O136  1  0.36220702  0.38668094  0.37373783  1
  O  O137  1  0.37646720  0.39371606  0.86468914  1
  O  O138  1  0.38038221  0.88372002  0.35632616  1
  O  O139  1  0.36636382  0.88215775  0.89314322  1
  O  O140  1  0.86155743  0.33041912  0.42962240  1
  O  O141  1  0.90184166  0.37532874  0.86839637  1
  O  O142  1  0.86640521  0.89323361  0.38090293  1
  O  O143  1  0.88519179  0.88997252  0.87327883  1
  O  O144  1  0.25638284  0.01099642  0.38008853  1
  O  O145  1  0.24245990  0.01354482  0.87746609  1
  O  O146  1  0.26076850  0.52218721  0.37946984  1
  O  O147  1  0.23839124  0.49382526  0.87381197  1
  O  O148  1  0.75147580  0.00526034  0.37553598  1
  O  O149  1  0.77527155  0.00831197  0.86697205  1
  O  O150  1  0.72023477  0.49241929  0.31971635  1
  O  O151  1  0.75453873  0.50251044  0.85037285  1
  O  O152  1  0.24040480  0.48454939  0.11880054  1
  O  O153  1  0.24784797  0.48920546  0.61812142  1
  O  O154  1  0.27043778  0.97448369  0.11640493  1
  O  O155  1  0.23816754  1.00571453  0.62185084  1
  O  O156  1  0.74189880  0.47829921  0.13750217  1
  O  O157  1  0.73658138  0.49543774  0.62207482  1
  O  O158  1  0.75514978  0.99954771  0.14226740  1
  O  O159  1  0.74985331  0.98386474  0.62316952  1
  O  O160  1  -0.03704640  0.36338815  0.19827946  1
  O  O161  1  0.01209610  0.36249139  0.73029867  1
  O  O162  1  0.02446642  0.88392867  0.23560879  1
  O  O163  1  -0.00399676  0.86422287  0.75879880  1
  O  O164  1  0.49573113  0.35975321  0.24580790  1
  O  O165  1  0.50828451  0.34643852  0.73999908  1
  O  O166  1  0.51181284  0.88878539  0.25990590  1
  O  O167  1  0.48334084  0.84702387  0.77665818  1
  O  O168  1  0.48487239  0.12819257  0.25190118  1
  O  O169  1  0.48452611  0.12043350  0.73008511  1
  O  O170  1  0.49753389  0.60805230  0.23386572  1
  O  O171  1  0.51123805  0.63866502  0.75623564  1
  O  O172  1  0.97692073  0.13181185  0.25592654  1
  O  O173  1  1.00324352  0.13635345  0.73334803  1
  O  O174  1  0.96959933  0.65229525  0.33674871  1
  O  O175  1  0.99665448  0.63186950  0.74040036  1
  O  O176  1  0.37223270  0.23475533  0.01344245  1
  O  O177  1  0.36119251  0.26203148  0.47874264  1
  O  O178  1  0.37866635  0.73368891  0.01036119  1
  O  O179  1  0.34677343  0.80970980  0.52527976  1
  O  O180  1  0.88546720  0.26459447  -0.01422521  1
  O  O181  1  0.86347176  0.27017197  0.47164672  1
  O  O182  1  0.86311219  0.76951665  -0.00454801  1
  O  O183  1  0.87932355  0.74909310  0.51332620  1
  O  O184  1  0.13167537  0.24174265  0.48805710  1
  O  O185  1  0.13097919  0.25111763  0.97579776  1
  O  O186  1  0.13567122  0.73966856  0.51522873  1
  O  O187  1  0.11263308  0.73368369  0.98787661  1
  O  O188  1  0.61056156  0.22349081  0.48785261  1
  O  O189  1  0.64466145  0.23878536  1.00490131  1
  O  O190  1  0.62123195  0.74684053  0.49422320  1
  O  O191  1  0.63263004  0.71154654  0.98645757  1
  O  O192  1  0.48231441  0.25025964  0.13648614  1
  O  O193  1  0.50254665  0.23358388  0.61710320  1
  O  O194  1  0.49037700  0.75374142  0.11641578  1
  O  O195  1  0.50630176  0.76333465  0.65728073  1
  O  O196  1  1.03021789  0.21420025  0.11432379  1
  O  O197  1  1.01165676  0.23941212  0.63037226  1
  O  O198  1  1.03002626  0.74071025  0.14909653  1
  O  O199  1  0.99668032  0.74613500  0.63295135  1
  O  O200  1  0.00763662  0.25650556  0.37578425  1
  O  O201  1  0.01948056  0.24249938  0.85293661  1
  O  O202  1  0.00928215  0.80996240  0.41698567  1
  O  O203  1  -0.00024329  0.75919279  0.86898546  1
  O  O204  1  0.50174766  0.24318724  0.36460201  1
  O  O205  1  0.48620324  0.25678194  0.87133125  1
  O  O206  1  0.50385369  0.76252262  0.38035970  1
  O  O207  1  0.49296705  0.73427909  0.86499619  1
  O  O208  1  0.24412707  0.13449829  0.48724228  1
  O  O209  1  0.25409381  0.13402389  0.98358179  1
  O  O210  1  0.24381809  0.62498713  0.50360710  1
  O  O211  1  0.23215957  0.61342321  0.98400506  1
  O  O212  1  0.73012269  0.11211775  0.49943187  1
  O  O213  1  0.74250459  0.12396729  1.01115161  1
  O  O214  1  0.75483878  0.65006561  0.50663835  1
  O  O215  1  0.77534478  0.63221849  0.99254669  1
  O  O216  1  0.24221370  0.35932602  0.01009702  1
  O  O217  1  0.25358100  0.36945575  0.50370960  1
  O  O218  1  0.23822419  0.86349563  0.01118348  1
  O  O219  1  0.29368271  0.85962572  0.52776839  1
  O  O220  1  0.78496615  0.39043404  -0.01310866  1
  O  O221  1  0.73649705  0.38298043  0.51365047  1
  O  O222  1  0.76258963  0.90003931  -0.01621514  1
  O  O223  1  0.74023796  0.85745117  0.51593474  1
  O  O224  1  0.10692165  0.52406930  0.23172846  1
  O  O225  1  0.11888110  0.48802280  0.73493887  1
  O  O226  1  0.13140936  1.00309183  0.24940435  1
  O  O227  1  0.12918897  1.00496755  0.73959512  1
  O  O228  1  0.65115015  0.47990563  0.27312329  1
  O  O229  1  0.63878292  0.50736335  0.73822241  1
  O  O230  1  0.63527463  0.99123488  0.25449488  1
  O  O231  1  0.62204461  0.99045420  0.81987845  1
  O  O232  1  0.37760812  0.01268860  0.25363123  1
  O  O233  1  0.37506416  0.01434281  0.75021688  1
  O  O234  1  0.37041475  0.50755787  0.25238592  1
  O  O235  1  0.41870196  0.44494880  0.82322420  1
  O  O236  1  0.86178281  0.00304184  0.25991853  1
  O  O237  1  0.88634339  0.01535198  0.75294388  1
  O  O238  1  0.87304482  0.55102698  0.24738843  1
  O  O239  1  0.88033652  0.51649481  0.73724519  1
  O  O240  1  0.13132240  0.36647836  0.37960066  1
  O  O241  1  0.13284635  0.36069669  0.85677512  1
  O  O242  1  0.13945203  0.86934299  0.34557829  1
  O  O243  1  0.11707311  0.85797117  0.88254591  1
  O  O244  1  0.62390257  0.34851536  0.38875890  1
  O  O245  1  0.60132598  0.37458524  0.93571947  1
  O  O246  1  0.61096362  0.86970640  0.37110337  1
  O  O247  1  0.60294931  0.86727400  0.92969964  1
  O  O248  1  0.36070417  0.13649481  0.14059810  1
  O  O249  1  0.37890979  0.12317000  0.62733340  1
  O  O250  1  0.36689400  0.62663922  0.13329308  1
  O  O251  1  0.39656135  0.64043525  0.57223083  1
  O  O252  1  0.86273460  0.12593503  0.14182217  1
  O  O253  1  0.89043993  0.12180460  0.63052094  1
  O  O254  1  0.83438936  0.60498403  0.20047235  1
  O  O255  1  0.88923542  0.63766645  0.62861406  1
  O  O256  1  0.25145975  0.25268582  0.11380327  1
  O  O257  1  0.24570734  0.25811044  0.60654485  1
  O  O258  1  0.26805842  0.75730676  0.11992255  1
  O  O259  1  0.24683022  0.76805215  0.65099212  1
  O  O260  1  0.72231697  0.28973049  0.14065417  1
  O  O261  1  0.71761074  0.28464362  0.64171072  1
  O  O262  1  0.72408599  0.76681543  0.08623936  1
  O  O263  1  0.76105159  0.75779195  0.61973189  1
  O  O264  1  0.23631858  0.24291811  0.37887588  1
  O  O265  1  0.24701658  0.24815171  0.87884387  1
  O  O266  1  0.29125479  0.72623234  0.38684063  1
  O  O267  1  0.23538149  0.74713191  0.87620485  1
  O  O268  1  0.72505581  0.22488147  0.36953006  1
  O  O269  1  0.74195263  0.27468538  0.84466306  1
  O  O270  1  0.72855270  0.75656024  0.39027088  1
  O  O271  1  0.74815354  0.76272680  0.88967431  1
  O  O272  1  0.00159357  0.11182811  -0.01356958  1
  O  O273  1  0.00785304  0.13578921  0.51169015  1
  O  O274  1  0.00892514  0.61676719  -0.00641357  1
  O  O275  1  0.01923704  0.62652586  0.50793073  1
  O  O276  1  0.53389103  0.14009362  0.01480985  1
  O  O277  1  0.49488482  0.11204770  0.50506318  1
  O  O278  1  0.50645035  0.60493134  0.01246158  1
  O  O279  1  0.44430974  0.66251082  0.51682239  1
  O  O280  1  0.48463288  0.36237509  0.48498836  1
  O  O281  1  0.54709626  0.37193023  0.98860460  1
  O  O282  1  0.49802342  0.88417908  0.49153492  1
  O  O283  1  0.54868745  0.87073509  0.98092372  1
  O  O284  1  1.00358583  0.39405322  0.51211483  1
  O  O285  1  0.98433080  0.39047233  1.01228647  1
  O  O286  1  1.01555957  0.85886880  0.47442913  1
  O  O287  1  0.98979860  0.88022280  0.98929309  1
  O  O288  1  0.48637643  0.49304559  0.36421059  1
  O  O289  1  0.48038544  0.47347926  0.86512895  1
  O  O290  1  0.48541902  0.99245704  0.38025471  1
  O  O291  1  0.50109161  1.07622511  0.89388790  1
  O  O292  1  1.01295096  0.50072101  0.39188194  1
  O  O293  1  1.01146179  0.49698572  0.88752383  1
  O  O294  1  0.98592940  1.00438563  0.37352534  1
  O  O295  1  1.00171736  0.99081651  0.87422352  1
  O  O296  1  -0.01072901  0.00723460  0.10760811  1
  O  O297  1  0.01223034  0.01584178  0.62658872  1
  O  O298  1  0.00923636  0.50879061  0.11214056  1
  O  O299  1  0.01306697  0.51263136  0.61760369  1
  O  O300  1  0.46429486  -0.00767455  0.08353889  1
  O  O301  1  0.48753819  -0.00012034  0.60765587  1
  O  O302  1  0.45466592  0.47256068  0.07944290  1
  O  O303  1  0.51159869  0.51656341  0.63467698  1
  O  O304  1  0.24462626  0.36488004  0.23109892  1
  O  O305  1  0.24676269  0.36326241  0.73094561  1
  O  O306  1  0.23942969  0.86572422  0.23248280  1
  O  O307  1  0.26577320  0.81520442  0.71197191  1
  O  O308  1  0.77035974  0.43686117  0.31887259  1
  O  O309  1  0.76500481  0.40168416  0.73147142  1
  O  O310  1  0.73759654  0.88445447  0.25486639  1
  O  O311  1  0.75244697  0.86627987  0.73342737  1
  O  O312  1  0.25652817  0.13512075  0.25952741  1
  O  O313  1  0.25974545  0.13172686  0.75298690  1
  O  O314  1  0.23522295  0.63716299  0.26379514  1
  O  O315  1  0.24699891  0.61446111  0.76864843  1
  O  O316  1  0.75031262  0.10869737  0.26134809  1
  O  O317  1  0.77313031  0.14045505  0.73904503  1
  O  O318  1  0.77981545  0.64631211  0.24308535  1
  O  O319  1  0.76758704  0.61832725  0.73827253  1
  O  O320  1  0.36517211  0.11664387  0.36303301  1
  O  O321  1  0.35809143  0.12473120  0.86015357  1
  O  O322  1  0.37565420  0.60925834  0.35190287  1
  O  O323  1  0.35586154  0.60348972  0.88852240  1
  O  O324  1  0.86123500  0.11334935  0.37134186  1
  O  O325  1  0.88857620  0.11775373  0.85531051  1
  O  O326  1  0.93369205  0.69940296  0.27484402  1
  O  O327  1  0.88484901  0.63025113  0.85545674  1
  O  O328  1  0.12805217  0.39179951  0.12394068  1
  O  O329  1  0.13974079  0.38211425  0.62596196  1
  O  O330  1  0.13976307  0.87071162  0.13216888  1
  O  O331  1  0.12059285  0.89718212  0.62292900  1
  O  O332  1  0.66195775  0.33802057  0.13146426  1
  O  O333  1  0.59884783  0.39488970  0.59716339  1
  O  O334  1  0.61198483  0.87563216  0.14181804  1
  O  O335  1  0.62935855  0.87671937  0.62949567  1
  O  O336  1  0.11996352  0.25442972  0.26642612  1
  O  O337  1  0.12197678  0.25936856  0.74675871  1
  O  O338  1  0.08121768  0.72822755  0.20419956  1
  O  O339  1  0.11182611  0.74044405  0.76714893  1
  O  O340  1  0.60549466  0.23846106  0.26306409  1
  O  O341  1  0.59419127  0.20162215  0.76560948  1
  O  O342  1  0.63401484  0.76616178  0.26185953  1
  O  O343  1  0.60576839  0.74589463  0.75780365  1
  O  O344  1  0.38252224  0.24022090  0.24794365  1
  O  O345  1  0.38964216  0.23241532  0.74844129  1
  O  O346  1  0.38237723  0.72628536  0.24030917  1
  O  O347  1  0.39766360  0.72670875  0.74341274  1
  O  O348  1  0.85459166  0.23230203  0.25883098  1
  O  O349  1  0.89692248  0.24203437  0.74954792  1
  O  O350  1  0.90896650  0.76791282  0.30295347  1
  O  O351  1  0.88336679  0.74042337  0.73961321  1
  O  O352  1  0.37915704  0.48550832  0.47899383  1
  O  O353  1  0.39842062  0.48269419  1.02876379  1
  O  O354  1  0.38074588  1.00147737  0.48483172  1
  O  O355  1  0.41635052  1.01324007  1.02925324  1
  O  O356  1  0.89700951  0.51805697  0.50316312  1
  O  O357  1  0.88730539  0.50562823  0.99030745  1
  O  O358  1  0.87783654  1.00848524  0.49086930  1
  O  O359  1  0.88788360  0.99810961  0.98079462  1
  O  O360  1  0.10927129  -0.00621530  0.00089235  1
  O  O361  1  0.12822164  0.01510710  0.49911705  1
  O  O362  1  0.11208065  0.50729998  0.00629544  1
  O  O363  1  0.12291046  0.51102978  0.51127533  1
  O  O364  1  0.63123505  0.02824786  0.00593015  1
  O  O365  1  0.60341860  0.00529163  0.49119971  1
  O  O366  1  0.65578250  0.51434816  0.00004989  1
  O  O367  1  0.61567069  0.52495977  0.50407653  1
  O  O368  1  0.35577762  0.35460903  0.12617754  1
  O  O369  1  0.37417050  0.38101169  0.59993130  1
  O  O370  1  0.36961971  0.85399521  0.12983763  1
  O  O371  1  0.31696144  0.87130253  0.69431118  1
  O  O372  1  0.79961732  0.43554797  0.15279555  1
  O  O373  1  0.86240934  0.37448492  0.61287573  1
  O  O374  1  0.87250829  0.89017440  0.10407884  1
  O  O375  1  0.88233436  0.86195332  0.62668759  1
  O  O376  1  0.12845985  0.13019873  0.37914803  1
  O  O377  1  0.14243762  0.14117346  0.85718315  1
  O  O378  1  0.14043494  0.63314735  0.39126662  1
  O  O379  1  0.13007988  0.63032057  0.88066162  1
  O  O380  1  0.62345151  0.11976108  0.38590930  1
  O  O381  1  0.64158799  0.13514333  0.90493506  1
  O  O382  1  0.61159617  0.64439012  0.36174507  1
  O  O383  1  0.61565234  0.59272808  0.89954088  1
