# generated using pymatgen
data_VZnO4
_symmetry_space_group_name_H-M   'P 1'
_cell_length_a   16.94341020
_cell_length_b   16.91880112
_cell_length_c   16.92692590
_cell_angle_alpha   90.29936022
_cell_angle_beta   90.02806002
_cell_angle_gamma   89.87678124
_symmetry_Int_Tables_number   1
_chemical_formula_structural   VZnO4
_chemical_formula_sum   'V64 Zn64 O256'
_cell_volume   4852.23159854
_cell_formula_units_Z   64
loop_
 _symmetry_equiv_pos_site_id
 _symmetry_equiv_pos_as_xyz
  1  'x, y, z'
loop_
 _atom_site_type_symbol
 _atom_site_label
 _atom_site_symmetry_multiplicity
 _atom_site_fract_x
 _atom_site_fract_y
 _atom_site_fract_z
 _atom_site_occupancy
  V  V0  1  0.63024786  0.35229546  0.75586903  1
  V  V1  1  0.49994870  0.37498462  0.38141196  1
  V  V2  1  0.12919820  0.75603751  0.36741790  1
  V  V3  1  0.89747185  0.73898080  0.63039781  1
  V  V4  1  0.87451563  0.50082851  0.36389351  1
  V  V5  1  0.14475446  0.50236889  0.18225493  1
  V  V6  1  0.65491118  -0.00342128  0.61348552  1
  V  V7  1  0.25356004  0.74695092  0.50541476  1
  V  V8  1  0.63486589  0.13551632  0.48621775  1
  V  V9  1  0.13456274  0.50503900  0.60779860  1
  V  V10  1  0.63170680  0.49895606  0.62225150  1
  V  V11  1  0.11009590  0.86093216  0.73708463  1
  V  V12  1  0.35473657  0.74488317  0.11390387  1
  V  V13  1  0.50796402  -0.00535286  0.48075608  1
  V  V14  1  0.61213193  0.75381893  0.37000993  1
  V  V15  1  0.74839853  -0.01403988  0.23768636  1
  V  V16  1  0.62029595  0.64050781  0.51357208  1
  V  V17  1  0.45903509  0.38813696  0.90154831  1
  V  V18  1  0.38747303  0.87392451  0.48004746  1
  V  V19  1  0.74074710  0.62560641  0.87984242  1
  V  V20  1  0.11143541  0.37697249  0.74637953  1
  V  V21  1  -0.00659637  0.53115550  0.01659647  1
  V  V22  1  0.49524516  0.49416321  0.50482995  1
  V  V23  1  0.89333833  0.49932183  0.86783107  1
  V  V24  1  0.63780647  0.40068044  0.25579312  1
  V  V25  1  0.48402638  0.62603502  0.16000370  1
  V  V26  1  0.59888479  0.86349271  0.24403841  1
  V  V27  1  0.87588748  0.11702264  0.24055072  1
  V  V28  1  0.07957036  0.08265518  -0.00155713  1
  V  V29  1  0.76213316  0.36157890  0.61918192  1
  V  V30  1  0.87969163  0.37245284  -0.00347400  1
  V  V31  1  -0.01624970  0.74670299  0.24587205  1
  V  V32  1  0.38586472  0.64660706  0.74711762  1
  V  V33  1  0.75557992  0.49881651  0.75207983  1
  V  V34  1  0.61284512  0.50667435  0.10571265  1
  V  V35  1  0.38309948  0.24308553  0.59656714  1
  V  V36  1  0.10313828  0.00328846  0.63264320  1
  V  V37  1  0.27573401  0.88531186  0.64026942  1
  V  V38  1  0.84633313  0.86425274  0.00839024  1
  V  V39  1  0.11206619  0.73178600  0.88523533  1
  V  V40  1  0.00728196  0.35886013  0.37784961  1
  V  V41  1  0.24023726  0.24209499  0.00861381  1
  V  V42  1  0.34503247  0.27739721  0.15964322  1
  V  V43  1  0.34072790  0.40941296  0.02185399  1
  V  V44  1  0.52519424  0.24737288  0.25142625  1
  V  V45  1  0.63348107  0.85540028  0.75629361  1
  V  V46  1  0.24979241  0.62129049  0.87782807  1
  V  V47  1  -0.00630450  0.87528561  0.88356852  1
  V  V48  1  0.75387254  0.62201264  0.36658710  1
  V  V49  1  0.26527974  0.49241270  0.73761171  1
  V  V50  1  0.74546224  0.13852036  0.36040898  1
  V  V51  1  0.22521339  -0.01136674  0.25887169  1
  V  V52  1  0.00326348  0.24884004  0.24004672  1
  V  V53  1  0.34559312  0.11858787  0.25748799  1
  V  V54  1  0.00096536  0.51627484  0.49455072  1
  V  V55  1  0.51421974  0.12448305  0.63313707  1
  V  V56  1  0.89485571  0.87668255  0.48970285  1
  V  V57  1  0.87304104  0.36357088  0.50085061  1
  V  V58  1  -0.04088318  0.21216302  0.74741576  1
  V  V59  1  0.75234744  -0.00084901  0.77211212  1
  V  V60  1  0.59711905  -0.00389630  0.11489841  1
  V  V61  1  0.14471511  0.12255710  0.51001097  1
  V  V62  1  0.75959930  0.75915982  0.50115723  1
  V  V63  1  0.85856443  0.25820027  0.12254653  1
  Zn  Zn64  1  0.17437294  0.17756666  0.17005413  1
  Zn  Zn65  1  0.17882675  0.21525660  0.65149573  1
  Zn  Zn66  1  0.14633308  0.70939506  0.15837050  1
  Zn  Zn67  1  0.19996726  0.68861278  0.67569242  1
  Zn  Zn68  1  0.68346315  0.17653335  0.16504067  1
  Zn  Zn69  1  0.75268708  0.18718786  0.69990721  1
  Zn  Zn70  1  0.66877120  0.66480751  0.19057648  1
  Zn  Zn71  1  0.70785498  0.68437620  0.68669378  1
  Zn  Zn72  1  0.33392949  0.27383586  0.37654226  1
  Zn  Zn73  1  0.24681881  0.33735857  0.84559316  1
  Zn  Zn74  1  0.30006033  0.82314447  0.31246987  1
  Zn  Zn75  1  0.29310848  0.80902725  0.81342107  1
  Zn  Zn76  1  0.81340791  0.31737232  0.30583518  1
  Zn  Zn77  1  0.81848450  0.31030102  0.81545009  1
  Zn  Zn78  1  0.81612817  0.80810377  0.31228297  1
  Zn  Zn79  1  0.81391279  0.81068097  0.80633185  1
  Zn  Zn80  1  0.17001537  0.46631425  0.39687633  1
  Zn  Zn81  1  0.16727122  0.46461437  0.93326132  1
  Zn  Zn82  1  0.19386174  0.94084113  0.44911806  1
  Zn  Zn83  1  0.16933008  0.92081487  0.92477279  1
  Zn  Zn84  1  0.68871967  0.43626362  0.43660002  1
  Zn  Zn85  1  0.68955127  0.42708796  0.93744445  1
  Zn  Zn86  1  0.69545318  0.93999181  0.42241537  1
  Zn  Zn87  1  0.67523550  0.92296711  0.93567822  1
  Zn  Zn88  1  0.23357111  0.03766632  0.06218537  1
  Zn  Zn89  1  0.32268473  0.05974552  0.56231373  1
  Zn  Zn90  1  0.28144342  0.58765033  0.08501989  1
  Zn  Zn91  1  0.32209654  0.56701784  0.57522238  1
  Zn  Zn92  1  0.82347033  0.05352191  0.05887373  1
  Zn  Zn93  1  0.83264966  0.07227124  0.54124057  1
  Zn  Zn94  1  0.78561320  0.51996218  0.04431821  1
  Zn  Zn95  1  0.81296404  0.56208589  0.55593048  1
  Zn  Zn96  1  0.43957472  0.43963495  0.19798328  1
  Zn  Zn97  1  0.44420980  0.42324792  0.68729234  1
  Zn  Zn98  1  0.38950780  0.95463433  0.16310109  1
  Zn  Zn99  1  0.47322247  0.93670478  0.67767298  1
  Zn  Zn100  1  0.95927359  0.43481543  0.18243236  1
  Zn  Zn101  1  0.94641863  0.45990381  0.68330431  1
  Zn  Zn102  1  0.91389584  0.90862454  0.19127768  1
  Zn  Zn103  1  0.92099517  0.92845724  0.68031907  1
  Zn  Zn104  1  0.09809879  0.11005491  0.30875163  1
  Zn  Zn105  1  0.06425649  0.05757615  0.81407706  1
  Zn  Zn106  1  0.07640784  0.59451135  0.31520977  1
  Zn  Zn107  1  0.06466571  0.56357584  0.78762160  1
  Zn  Zn108  1  0.56759654  0.05683141  0.30107782  1
  Zn  Zn109  1  0.61822653  0.15298368  0.80050278  1
  Zn  Zn110  1  0.55632325  0.56659034  0.32987289  1
  Zn  Zn111  1  0.56304412  0.55182049  0.81244042  1
  Zn  Zn112  1  0.45795945  0.18015816  0.42601400  1
  Zn  Zn113  1  0.38527775  0.24012152  0.92418711  1
  Zn  Zn114  1  0.44904212  0.69122760  0.55658679  1
  Zn  Zn115  1  0.41334471  0.71488900  0.91429598  1
  Zn  Zn116  1  0.93471832  0.17642708  0.43341374  1
  Zn  Zn117  1  0.96165963  0.19927240  0.93775365  1
  Zn  Zn118  1  0.94037268  0.69706903  0.42252223  1
  Zn  Zn119  1  0.91216985  0.69410280  0.90717712  1
  Zn  Zn120  1  0.07251241  0.34353307  0.06632510  1
  Zn  Zn121  1  0.05146730  0.30922079  0.57771618  1
  Zn  Zn122  1  -0.00140563  0.74727767  0.04088979  1
  Zn  Zn123  1  0.06601970  0.80797432  0.55919029  1
  Zn  Zn124  1  0.53735462  0.32872039  0.08173955  1
  Zn  Zn125  1  0.57170683  0.30964146  0.56705472  1
  Zn  Zn126  1  0.53901519  0.80893242  0.07596293  1
  Zn  Zn127  1  0.57454454  0.82269482  0.57594864  1
  O  O128  1  0.11451639  0.12228277  0.08710299  1
  O  O129  1  0.13228810  0.10514690  0.63048941  1
  O  O130  1  0.11407519  0.59471171  0.15739553  1
  O  O131  1  0.13318975  0.60452303  0.62471272  1
  O  O132  1  0.61145911  0.09649136  0.12916172  1
  O  O133  1  0.62476336  0.11789081  0.59792710  1
  O  O134  1  0.59074076  0.62279926  0.12055329  1
  O  O135  1  0.64264147  0.60247363  0.62779563  1
  O  O136  1  0.40097786  0.36751685  0.38729167  1
  O  O137  1  0.35467669  0.39859978  0.90480864  1
  O  O138  1  0.38109027  0.87322871  0.38210336  1
  O  O139  1  0.34124130  0.93724031  0.94315621  1
  O  O140  1  0.87153466  0.38475103  0.38593391  1
  O  O141  1  0.87348340  0.38002387  0.88882572  1
  O  O142  1  0.88319222  0.85780258  0.38792845  1
  O  O143  1  0.89018085  0.86629612  0.87842613  1
  O  O144  1  0.24345371  -0.00229281  0.35991326  1
  O  O145  1  0.31590243  0.00719792  0.96045421  1
  O  O146  1  0.28632132  0.48120318  0.37928913  1
  O  O147  1  0.23982959  0.51556472  0.84519921  1
  O  O148  1  0.74105440  0.01197588  0.34401459  1
  O  O149  1  0.74315918  -0.00682892  0.87111766  1
  O  O150  1  0.76427217  0.50988920  0.38458497  1
  O  O151  1  0.74989460  0.49747604  0.86022855  1
  O  O152  1  0.23973076  0.50036093  0.15052855  1
  O  O153  1  0.24480828  0.49706972  0.62328833  1
  O  O154  1  0.28088699  1.00366380  0.15591659  1
  O  O155  1  0.25663105  0.98594902  0.62564379  1
  O  O156  1  0.71100638  0.52788048  0.12881333  1
  O  O157  1  0.75091293  0.48851102  0.63338976  1
  O  O158  1  0.73948283  1.00673596  0.13562172  1
  O  O159  1  0.75112109  1.03018616  0.61216955  1
  O  O160  1  -0.00910820  0.35658926  0.26653804  1
  O  O161  1  0.01249217  0.38792786  0.74976423  1
  O  O162  1  -0.00736135  0.85774477  0.24935607  1
  O  O163  1  0.00836450  0.87368501  0.75205119  1
  O  O164  1  0.51272340  0.37939288  0.26939754  1
  O  O165  1  0.53337526  0.36311236  0.73206942  1
  O  O166  1  0.50405346  0.86763795  0.25311929  1
  O  O167  1  0.54678406  0.85315671  0.69289415  1
  O  O168  1  0.51321985  0.14740248  0.25514043  1
  O  O169  1  0.52809324  0.12238942  0.73221958  1
  O  O170  1  0.48980871  0.62701263  0.25988316  1
  O  O171  1  0.47910350  0.61642770  0.76906952  1
  O  O172  1  0.97842183  0.13360933  0.25496795  1
  O  O173  1  0.98911362  0.11598930  0.75240977  1
  O  O174  1  0.99414741  0.64289631  0.26202484  1
  O  O175  1  0.97253318  0.56677921  0.72810370  1
  O  O176  1  0.34762811  0.27932762  0.02982525  1
  O  O177  1  0.38140930  0.24108135  0.49314066  1
  O  O178  1  0.36434549  0.74176084  0.01328466  1
  O  O179  1  0.38424056  0.77253345  0.50876422  1
  O  O180  1  0.88820822  0.26322275  0.01056750  1
  O  O181  1  0.86754111  0.26705843  0.48993371  1
  O  O182  1  0.89254371  0.76309819  -0.00373758  1
  O  O183  1  0.86939008  0.74853585  0.50082641  1
  O  O184  1  0.12452056  0.22352813  0.54405051  1
  O  O185  1  0.14216059  0.27268507  1.01089474  1
  O  O186  1  0.15108103  0.74785329  0.51317435  1
  O  O187  1  0.11269760  0.73320691  0.98343229  1
  O  O188  1  0.62475570  0.23364533  0.49363602  1
  O  O189  1  0.59270886  0.23393886  1.02871775  1
  O  O190  1  0.64584031  0.75468566  0.47634780  1
  O  O191  1  0.58108769  0.73437869  0.97974245  1
  O  O192  1  0.46944943  0.27638141  0.16353389  1
  O  O193  1  0.50301166  0.22939985  0.61115406  1
  O  O194  1  0.47649528  0.73132271  0.12744628  1
  O  O195  1  0.55958898  0.71081315  0.57866461  1
  O  O196  1  0.99974293  0.25970720  0.13997152  1
  O  O197  1  0.99177098  0.25509416  0.66124296  1
  O  O198  1  1.03492024  0.74672339  0.14751068  1
  O  O199  1  0.99704644  0.73585709  0.61603507  1
  O  O200  1  -0.01265667  0.25454855  0.36840674  1
  O  O201  1  -0.01798726  0.25045085  0.84232228  1
  O  O202  1  0.01647937  0.75435331  0.35909464  1
  O  O203  1  0.00959411  0.74837577  0.86149529  1
  O  O204  1  0.51260245  0.26291582  0.36092032  1
  O  O205  1  0.46866888  0.29163163  0.86628451  1
  O  O206  1  0.51805333  0.74785961  0.38231279  1
  O  O207  1  0.46174148  0.83171140  0.91193726  1
  O  O208  1  0.24436480  0.11873634  0.49794541  1
  O  O209  1  0.25386457  0.14381871  1.01866858  1
  O  O210  1  0.27912569  0.64947970  0.51016122  1
  O  O211  1  0.23906551  0.60509097  0.97512814  1
  O  O212  1  0.74334656  0.12055720  0.47239348  1
  O  O213  1  0.75798632  0.13162232  0.98442757  1
  O  O214  1  0.73577729  0.63346127  0.49495737  1
  O  O215  1  0.74770008  0.60709783  0.97839339  1
  O  O216  1  0.24045654  0.40088249  0.00589452  1
  O  O217  1  0.23507359  0.35408726  0.48184232  1
  O  O218  1  0.28083148  0.88691623  -0.09223075  1
  O  O219  1  0.27992425  0.87954627  0.51417384  1
  O  O220  1  0.77601329  0.40114737  0.01183602  1
  O  O221  1  0.76265821  0.38481502  0.50998792  1
  O  O222  1  0.74905616  0.85065222  -0.01554155  1
  O  O223  1  0.75899927  0.85868844  0.47933064  1
  O  O224  1  0.14082590  0.50399980  0.28961352  1
  O  O225  1  0.13976085  0.49267140  0.72856150  1
  O  O226  1  0.12657553  1.01719471  0.24826569  1
  O  O227  1  0.12323746  0.98539820  0.73990552  1
  O  O228  1  0.62512953  0.50177204  0.25950014  1
  O  O229  1  0.64058488  0.48317442  0.73772010  1
  O  O230  1  0.62680804  0.97782885  0.23703838  1
  O  O231  1  0.64417450  0.98127904  0.72001519  1
  O  O232  1  0.38435807  0.02572981  0.26235661  1
  O  O233  1  0.43428544  -0.03699423  0.80022859  1
  O  O234  1  0.37352599  0.49896086  0.28212005  1
  O  O235  1  0.36854113  0.50294077  0.72829654  1
  O  O236  1  0.86548092  0.01034274  0.23158768  1
  O  O237  1  0.84962880  -0.00503403  0.74375830  1
  O  O238  1  0.88529494  0.48822240  0.26720900  1
  O  O239  1  0.86048151  0.47156141  0.76271919  1
  O  O240  1  0.10506804  0.36703596  0.38024911  1
  O  O241  1  0.14122122  0.38780156  0.85070262  1
  O  O242  1  0.13156404  0.85772610  0.40210769  1
  O  O243  1  0.11922723  0.84881729  0.85585987  1
  O  O244  1  0.62427637  0.37978233  0.36257433  1
  O  O245  1  0.64043877  0.36401528  0.85675837  1
  O  O246  1  0.63246385  0.86153370  0.35611823  1
  O  O247  1  0.60721252  0.87823435  0.85094615  1
  O  O248  1  0.36872938  0.16798173  0.16835327  1
  O  O249  1  0.40716264  0.12208963  0.61742729  1
  O  O250  1  0.38216330  0.62492395  0.13471374  1
  O  O251  1  0.38665712  0.64409998  0.64083312  1
  O  O252  1  0.86929976  0.13823057  0.13239701  1
  O  O253  1  0.92813201  0.12639832  0.53030772  1
  O  O254  1  0.82558880  0.67164972  0.11171590  1
  O  O255  1  0.86388464  0.64134536  0.61661247  1
  O  O256  1  0.24308191  0.26141951  0.12837066  1
  O  O257  1  0.29134370  0.22062702  0.63347698  1
  O  O258  1  0.25464764  0.70635252  0.12161247  1
  O  O259  1  0.25907115  0.77390881  0.61719341  1
  O  O260  1  0.75979349  0.25120980  0.11827004  1
  O  O261  1  0.75822276  0.26219317  0.61503241  1
  O  O262  1  0.76420877  0.71104146  0.11604407  1
  O  O263  1  0.74537398  0.75165137  0.60136051  1
  O  O264  1  0.23110189  0.29571453  0.43498751  1
  O  O265  1  0.27043799  0.24589042  0.90226661  1
  O  O266  1  0.24977047  0.76591958  0.39940284  1
  O  O267  1  0.22777542  0.73074616  0.86741054  1
  O  O268  1  0.74687851  0.23789140  0.35788638  1
  O  O269  1  0.75560420  0.23316843  0.89905424  1
  O  O270  1  0.75977768  0.73068424  0.38051114  1
  O  O271  1  0.77309707  0.72182826  0.86814384  1
  O  O272  1  -0.02197912  0.10409905  -0.00473765  1
  O  O273  1  -0.01775552  -0.00317036  0.37919290  1
  O  O274  1  -0.01708871  0.63015753  -0.00638714  1
  O  O275  1  -0.00112623  0.61338780  0.48166317  1
  O  O276  1  0.59172384  0.22968204  -0.05131528  1
  O  O277  1  0.51825627  0.10966764  0.48920576  1
  O  O278  1  0.53119979  0.68662138  -0.05071539  1
  O  O279  1  0.51220073  0.60091802  0.49682867  1
  O  O280  1  0.52297367  0.38303970  0.49131220  1
  O  O281  1  0.47171777  0.38493286  1.00505166  1
  O  O282  1  0.49956247  0.88516481  0.50485400  1
  O  O283  1  0.48373732  0.86640057  0.97536435  1
  O  O284  1  0.98793114  0.36812511  0.49162276  1
  O  O285  1  0.98154489  0.39480033  1.01186946  1
  O  O286  1  0.99592995  0.87209531  0.49867684  1
  O  O287  1  1.01277864  0.85877518  0.98089445  1
  O  O288  1  0.50368042  0.48797534  0.39424280  1
  O  O289  1  0.50276568  0.46640874  0.85655394  1
  O  O290  1  0.51133810  0.99459442  0.38172180  1
  O  O291  1  0.47048617  1.00335417  0.85035431  1
  O  O292  1  0.98969192  0.48157897  0.38431833  1
  O  O293  1  0.99223772  0.50431220  0.87747684  1
  O  O294  1  1.02512315  0.94526767  0.35314752  1
  O  O295  1  1.01765311  0.97415791  0.87895964  1
  O  O296  1  0.02436443  -0.04362499  0.11729659  1
  O  O297  1  0.00445624  -0.00222239  0.63036938  1
  O  O298  1  -0.03577440  0.52566884  0.11301569  1
  O  O299  1  0.01413736  0.49865553  0.59794584  1
  O  O300  1  0.49649971  -0.01790615  0.12411686  1
  O  O301  1  0.52613980  0.01125258  0.61012522  1
  O  O302  1  0.49898045  0.51710663  0.13742423  1
  O  O303  1  0.52502582  0.48515615  0.61799104  1
  O  O304  1  0.30550367  0.46683274  0.30273662  1
  O  O305  1  0.26199251  0.39159108  0.74540577  1
  O  O306  1  0.23455291  0.88794637  0.24735512  1
  O  O307  1  0.23565517  0.87385817  0.73942787  1
  O  O308  1  0.73647723  0.38233399  0.25099433  1
  O  O309  1  0.74964562  0.37294958  0.73558306  1
  O  O310  1  0.75975558  0.88582344  0.24673149  1
  O  O311  1  0.74100471  0.88387242  0.75430221  1
  O  O312  1  0.24114243  0.12132534  0.25432681  1
  O  O313  1  0.30295373  0.06373443  0.78496492  1
  O  O314  1  0.31368719  0.66215538  0.27364374  1
  O  O315  1  0.27020510  0.62161862  0.74370942  1
  O  O316  1  0.75324867  0.12163183  0.24680688  1
  O  O317  1  0.71904343  0.10418837  0.76536450  1
  O  O318  1  0.74061899  0.62187437  0.26871020  1
  O  O319  1  0.75757964  0.60036273  0.74936465  1
  O  O320  1  0.37137117  0.16688939  0.34768387  1
  O  O321  1  0.43612812  0.12468106  0.93599336  1
  O  O322  1  0.32897579  0.64110433  0.34258226  1
  O  O323  1  0.35578943  0.62649051  0.86794986  1
  O  O324  1  0.85810839  0.12726643  0.35159936  1
  O  O325  1  0.79429764  0.16880470  0.92549488  1
  O  O326  1  0.86564247  0.61173300  0.37748158  1
  O  O327  1  0.86423838  0.59882023  0.86448456  1
  O  O328  1  0.08543066  0.42006299  0.15135468  1
  O  O329  1  0.12066017  0.39064124  0.62988525  1
  O  O330  1  0.08307262  0.91823993  0.13685323  1
  O  O331  1  0.12363204  0.88601399  0.63046518  1
  O  O332  1  0.60685203  0.40139427  0.14207825  1
  O  O333  1  0.64807004  0.37912034  0.62248010  1
  O  O334  1  0.61409919  0.86860677  0.13658883  1
  O  O335  1  0.65903704  0.89897016  0.58963999  1
  O  O336  1  0.10228518  0.21867640  0.25408379  1
  O  O337  1  0.14017944  0.27765286  0.73758927  1
  O  O338  1  0.14707896  0.75436509  0.26826313  1
  O  O339  1  0.12338480  0.76028695  0.72851233  1
  O  O340  1  0.62193480  0.26326898  0.22535885  1
  O  O341  1  0.65021600  0.25069846  0.74429396  1
  O  O342  1  0.62715508  0.75375689  0.25669285  1
  O  O343  1  0.65248717  0.75636837  0.75309025  1
  O  O344  1  0.32742176  0.29502946  0.25617763  1
  O  O345  1  0.34788161  0.11937845  0.79713201  1
  O  O346  1  0.35206273  0.73706806  0.24955257  1
  O  O347  1  0.38457563  0.74670891  0.77966282  1
  O  O348  1  0.87743038  0.24460659  0.23492691  1
  O  O349  1  0.85230991  0.22221446  0.74940435  1
  O  O350  1  0.88273301  0.74702610  0.24022755  1
  O  O351  1  0.87777213  0.75536044  0.72903527  1
  O  O352  1  0.39839149  0.49545706  0.52438091  1
  O  O353  1  0.35703948  0.50573651  1.02708601  1
  O  O354  1  0.39934726  0.99024308  0.50122975  1
  O  O355  1  0.46523702  1.09749576  0.99773544  1
  O  O356  1  0.88915914  0.49475532  0.49378290  1
  O  O357  1  0.88421872  0.49829031  0.98239373  1
  O  O358  1  0.86747445  0.97297179  0.49773351  1
  O  O359  1  0.86591906  0.96726740  1.00057148  1
  O  O360  1  0.14268699  -0.00898180  0.00442718  1
  O  O361  1  0.12946639  0.00799591  0.52221843  1
  O  O362  1  0.09290135  0.50845148  0.00513556  1
  O  O363  1  0.11818286  0.49719125  0.49645622  1
  O  O364  1  0.61776354  -0.02326830  0.01780198  1
  O  O365  1  0.62492054  0.00595202  0.49242040  1
  O  O366  1  0.61513953  0.48712020  0.00726644  1
  O  O367  1  0.63096707  0.50875671  0.51253671  1
  O  O368  1  0.36141933  0.38442884  0.13113533  1
  O  O369  1  0.39619149  0.33874847  0.62679733  1
  O  O370  1  0.36210698  0.84375562  0.13659986  1
  O  O371  1  0.37504348  0.88598595  0.65464171  1
  O  O372  1  0.87694428  0.36200610  0.12436258  1
  O  O373  1  0.87116962  0.38297485  0.61239383  1
  O  O374  1  0.85514572  0.86053879  0.11058489  1
  O  O375  1  0.87996825  0.85111465  0.60459720  1
  O  O376  1  0.09581910  0.12450525  0.41959281  1
  O  O377  1  0.11067060  0.11870888  0.90932596  1
  O  O378  1  0.13645440  0.65367539  0.39032424  1
  O  O379  1  0.12654290  0.62917515  0.85496752  1
  O  O380  1  0.63418989  0.12393316  0.37366599  1
  O  O381  1  0.60222432  0.15588613  0.92017558  1
  O  O382  1  0.63369051  0.63540331  0.38647744  1
  O  O383  1  0.64197225  0.61848235  0.85685858  1
