# generated using pymatgen
data_VZnO4
_symmetry_space_group_name_H-M   'P 1'
_cell_length_a   16.87815090
_cell_length_b   16.98201224
_cell_length_c   16.91952896
_cell_angle_alpha   89.56031882
_cell_angle_beta   89.99114645
_cell_angle_gamma   90.35766765
_symmetry_Int_Tables_number   1
_chemical_formula_structural   VZnO4
_chemical_formula_sum   'V64 Zn64 O256'
_cell_volume   4849.32202273
_cell_formula_units_Z   64
loop_
 _symmetry_equiv_pos_site_id
 _symmetry_equiv_pos_as_xyz
  1  'x, y, z'
loop_
 _atom_site_type_symbol
 _atom_site_label
 _atom_site_symmetry_multiplicity
 _atom_site_fract_x
 _atom_site_fract_y
 _atom_site_fract_z
 _atom_site_occupancy
  V  V0  1  0.87957625  0.02695958  0.36893738  1
  V  V1  1  0.72832548  0.75139096  0.00476498  1
  V  V2  1  0.38615146  0.74911918  0.63651173  1
  V  V3  1  -0.01758668  0.51291567  0.02433176  1
  V  V4  1  0.87850038  0.13980343  0.76070529  1
  V  V5  1  0.45820071  0.45026354  0.49286892  1
  V  V6  1  0.49960872  0.36930470  0.85299918  1
  V  V7  1  0.38370157  0.49731506  0.90904055  1
  V  V8  1  0.28211309  0.52356830  0.71273049  1
  V  V9  1  0.74973867  0.24427797  -0.00626092  1
  V  V10  1  0.87783819  0.36701624  0.51102621  1
  V  V11  1  0.02899139  0.25989046  0.23459365  1
  V  V12  1  0.23360333  0.88379513  0.12119333  1
  V  V13  1  0.87461135  0.61313454  0.24446334  1
  V  V14  1  0.72986510  0.62228721  0.88276965  1
  V  V15  1  0.50914285  0.87789755  0.36604815  1
  V  V16  1  0.37374338  -0.00650405  0.37060013  1
  V  V17  1  0.11675963  0.76755017  0.38601768  1
  V  V18  1  0.26357092  0.63338782  0.89380043  1
  V  V19  1  0.49359184  0.73214501  0.25807420  1
  V  V20  1  0.00137482  0.76105391  0.24873344  1
  V  V21  1  0.75299460  0.38206676  0.12661086  1
  V  V22  1  0.38636034  0.00776898  0.85454716  1
  V  V23  1  0.25393787  0.62683108  0.37003235  1
  V  V24  1  0.73682404  0.36355621  0.62675432  1
  V  V25  1  0.88347421  0.74221099  0.64540414  1
  V  V26  1  0.74848070  0.60971791  0.37710890  1
  V  V27  1  0.11402102  0.01642575  0.13174486  1
  V  V28  1  0.51323253  0.87651979  0.85841182  1
  V  V29  1  0.62002681  0.61658369  0.51195827  1
  V  V30  1  0.75418120  0.87529431  0.63379561  1
  V  V31  1  0.35137110  0.74850707  0.07665793  1
  V  V32  1  0.14597275  0.49377702  0.12430866  1
  V  V33  1  0.52041159  0.62076172  0.11174876  1
  V  V34  1  0.00034630  0.37669155  0.87886133  1
  V  V35  1  0.00285010  -0.01625092  0.49914723  1
  V  V36  1  -0.00217462  0.01020873  -0.01134705  1
  V  V37  1  0.62330328  0.11519468  0.00368163  1
  V  V38  1  0.89480488  0.49973889  0.38884321  1
  V  V39  1  0.50574626  -0.00043906  0.49712401  1
  V  V40  1  0.37822074  0.26399261  0.11258924  1
  V  V41  1  0.87180309  0.23372044  0.13790984  1
  V  V42  1  0.12719032  0.86346924  0.77130214  1
  V  V43  1  0.62967402  -0.00241315  0.63011769  1
  V  V44  1  0.13835987  0.27722511  0.41760333  1
  V  V45  1  0.87936714  0.51117093  0.87369946  1
  V  V46  1  0.73619904  0.49977636  0.74469578  1
  V  V47  1  0.87297672  0.87780698  -0.02678622  1
  V  V48  1  0.65078368  0.11941109  0.49095571  1
  V  V49  1  0.27083191  0.76546509  0.49324240  1
  V  V50  1  0.86420921  0.77034275  0.13162616  1
  V  V51  1  0.00564905  0.12873033  0.62078668  1
  V  V52  1  0.37870074  0.11650577  0.24142957  1
  V  V53  1  0.64946836  0.24385841  0.37693989  1
  V  V54  1  0.76067507  0.75771189  0.50192578  1
  V  V55  1  0.49193011  -0.00568516  0.01696384  1
  V  V56  1  0.76365135  -0.00232543  0.76720296  1
  V  V57  1  0.25360707  0.01750567  0.74398646  1
  V  V58  1  0.52469142  0.74381170  0.74664102  1
  V  V59  1  0.23873632  0.11777800  0.37463806  1
  V  V60  1  0.24859357  0.86951292  0.63254554  1
  V  V61  1  0.63224595  0.38251802  0.25713876  1
  V  V62  1  0.49466264  0.25103560  0.26276540  1
  V  V63  1  0.63314633  0.75699727  0.37114554  1
  Zn  Zn64  1  0.19505578  0.18131226  0.17282726  1
  Zn  Zn65  1  0.18679497  0.16380005  0.56665984  1
  Zn  Zn66  1  0.19461135  0.69296046  0.19115154  1
  Zn  Zn67  1  0.14534782  0.65489641  0.76985826  1
  Zn  Zn68  1  0.67114750  0.20335487  0.17345574  1
  Zn  Zn69  1  0.74908209  0.15495891  0.64589064  1
  Zn  Zn70  1  0.68780770  0.67459686  0.18904747  1
  Zn  Zn71  1  0.69564080  0.68125391  0.69015271  1
  Zn  Zn72  1  0.26979124  0.28906198  0.26974586  1
  Zn  Zn73  1  0.26822750  0.38897838  0.84238299  1
  Zn  Zn74  1  0.31004666  0.81700851  0.30233198  1
  Zn  Zn75  1  0.32632076  0.81594702  0.81959093  1
  Zn  Zn76  1  0.82323309  0.32090804  0.31467535  1
  Zn  Zn77  1  0.81666754  0.32224575  0.81285071  1
  Zn  Zn78  1  0.81401788  0.81015977  0.31172880  1
  Zn  Zn79  1  0.79256075  0.80202500  0.81443177  1
  Zn  Zn80  1  0.25199374  0.43409250  0.43892222  1
  Zn  Zn81  1  0.15077107  0.50533632  0.92307056  1
  Zn  Zn82  1  0.17563262  0.93230428  0.43458918  1
  Zn  Zn83  1  0.19649844  0.96331977  0.94114148  1
  Zn  Zn84  1  0.68465912  0.42948793  0.44667279  1
  Zn  Zn85  1  0.68934941  0.42145546  0.93293629  1
  Zn  Zn86  1  0.69782989  0.93661834  0.43650231  1
  Zn  Zn87  1  0.67986083  0.93327694  0.94743337  1
  Zn  Zn88  1  0.30800402  0.05809272  0.05219605  1
  Zn  Zn89  1  0.29511267  0.01946328  0.53534459  1
  Zn  Zn90  1  0.32600133  0.56486183  0.07425243  1
  Zn  Zn91  1  0.32888000  0.57913478  0.52841203  1
  Zn  Zn92  1  0.81626505  0.06376250  0.05883841  1
  Zn  Zn93  1  0.84804302  0.04567831  0.56593158  1
  Zn  Zn94  1  0.79976800  0.56061760  0.06183068  1
  Zn  Zn95  1  0.81168930  0.56553325  0.56447607  1
  Zn  Zn96  1  0.45223885  0.42863501  0.17343571  1
  Zn  Zn97  1  0.47228356  0.45058563  0.68090171  1
  Zn  Zn98  1  0.41572665  0.91197212  0.18909445  1
  Zn  Zn99  1  0.43988034  0.93120014  0.68280380  1
  Zn  Zn100  1  0.93615575  0.42347386  0.20353062  1
  Zn  Zn101  1  0.91837272  0.42869351  0.70205391  1
  Zn  Zn102  1  0.93385311  0.94942928  0.19557074  1
  Zn  Zn103  1  0.94023659  0.92635691  0.68425243  1
  Zn  Zn104  1  0.04047917  0.06814760  0.30362077  1
  Zn  Zn105  1  0.04221131  0.01978077  0.78131887  1
  Zn  Zn106  1  0.06496421  0.58456619  0.32097447  1
  Zn  Zn107  1  0.10677416  0.44522135  0.75628333  1
  Zn  Zn108  1  0.56835327  0.06822772  0.30507766  1
  Zn  Zn109  1  0.57746156  0.07128635  0.81696144  1
  Zn  Zn110  1  0.55669790  0.55223774  0.33671926  1
  Zn  Zn111  1  0.55770264  0.55770683  0.81585286  1
  Zn  Zn112  1  0.44318707  0.17347127  0.43655405  1
  Zn  Zn113  1  0.44178682  0.18245634  0.93999848  1
  Zn  Zn114  1  0.44026209  0.68806876  0.43657323  1
  Zn  Zn115  1  0.45080845  0.68279773  0.92414605  1
  Zn  Zn116  1  0.94653434  0.19113643  0.43351290  1
  Zn  Zn117  1  0.93440574  0.19414789  0.94360668  1
  Zn  Zn118  1  0.93615002  0.69130256  0.43304575  1
  Zn  Zn119  1  0.90814203  0.67336588  0.96390430  1
  Zn  Zn120  1  0.05285222  0.33515877  0.06519612  1
  Zn  Zn121  1  0.03649801  0.30141434  0.55631867  1
  Zn  Zn122  1  0.03235071  0.85310093  0.08489073  1
  Zn  Zn123  1  0.06062295  0.81866384  0.57567919  1
  Zn  Zn124  1  0.56933327  0.29411248  0.07557719  1
  Zn  Zn125  1  0.56958363  0.30256168  0.56177047  1
  Zn  Zn126  1  0.52867401  0.81060346  0.06450907  1
  Zn  Zn127  1  0.56880967  0.81263728  0.55670949  1
  O  O128  1  0.11871751  0.11682198  0.12245432  1
  O  O129  1  0.10647496  0.11443716  0.62811990  1
  O  O130  1  0.12095876  0.60040829  0.16314544  1
  O  O131  1  0.06958499  0.63704950  0.54444446  1
  O  O132  1  0.62182987  0.12778208  0.11020619  1
  O  O133  1  0.64548244  0.10444952  0.60634374  1
  O  O134  1  0.62010172  0.60719434  0.12951889  1
  O  O135  1  0.63409253  0.63052393  0.61042451  1
  O  O136  1  0.30888151  0.36728926  0.34968011  1
  O  O137  1  0.38177934  0.39307042  0.87683682  1
  O  O138  1  0.38862035  0.89009348  0.36727397  1
  O  O139  1  0.39689845  0.89151865  0.86759597  1
  O  O140  1  0.86857557  0.39466540  0.39121853  1
  O  O141  1  0.88858811  0.39403475  0.87273552  1
  O  O142  1  0.83118050  0.91394269  0.34719147  1
  O  O143  1  0.86794995  0.86714040  0.87553491  1
  O  O144  1  0.26908574  -0.00396142  0.38129780  1
  O  O145  1  0.27671616  -0.00506914  0.85274272  1
  O  O146  1  0.22523034  0.53122761  0.37983530  1
  O  O147  1  0.27163316  0.49670325  0.89832074  1
  O  O148  1  0.77205455  -0.02347273  0.35370965  1
  O  O149  1  0.74426290  -0.01347992  0.86359323  1
  O  O150  1  0.75277708  0.51064802  0.38035498  1
  O  O151  1  0.75069133  0.50525448  0.88025142  1
  O  O152  1  0.24617946  0.49447358  0.11511417  1
  O  O153  1  0.26281464  0.54058718  0.61656801  1
  O  O154  1  0.22246912  0.99519730  0.12944487  1
  O  O155  1  0.26431631  0.98111022  0.63517850  1
  O  O156  1  0.74454740  0.48121194  0.12087248  1
  O  O157  1  0.75117106  0.50722694  0.64383234  1
  O  O158  1  0.75224044  1.00561312  0.15902941  1
  O  O159  1  0.75070112  0.98497317  0.62659433  1
  O  O160  1  -0.01088826  0.34757568  0.27001848  1
  O  O161  1  0.00498851  0.39051854  0.76454589  1
  O  O162  1  -0.01931507  0.85831508  0.25505616  1
  O  O163  1  0.02903895  0.90128536  0.75152882  1
  O  O164  1  0.51438389  0.35739621  0.24775108  1
  O  O165  1  0.49821237  0.36771084  0.75045464  1
  O  O166  1  0.50233333  0.86112495  0.26167038  1
  O  O167  1  0.50811596  0.86812533  0.75236806  1
  O  O168  1  0.48954092  0.13387665  0.25297885  1
  O  O169  1  0.51477934  0.14031048  0.73828236  1
  O  O170  1  0.50393385  0.63395440  0.27726604  1
  O  O171  1  0.51404619  0.64396476  0.75419062  1
  O  O172  1  1.00070184  0.17044662  0.27188151  1
  O  O173  1  0.98177637  0.10498723  0.73299953  1
  O  O174  1  0.97642616  0.64294500  0.25887713  1
  O  O175  1  1.01243675  0.57508747  0.68348555  1
  O  O176  1  0.36921244  0.22180228  0.02238516  1
  O  O177  1  0.38742416  0.23498659  0.51956135  1
  O  O178  1  0.37330344  0.75083479  -0.02094217  1
  O  O179  1  0.37191052  0.76983255  0.48883943  1
  O  O180  1  0.85987565  0.24507376  0.01730214  1
  O  O181  1  0.88017653  0.26990887  0.49006114  1
  O  O182  1  0.86576959  0.76487377  0.01559368  1
  O  O183  1  0.86295118  0.74949427  0.49860710  1
  O  O184  1  0.13958808  0.26113391  0.52177205  1
  O  O185  1  0.14191954  0.26975894  1.00704046  1
  O  O186  1  0.12053634  0.77128960  0.48718734  1
  O  O187  1  0.11806546  0.75228009  0.98769373  1
  O  O188  1  0.62890163  0.23057234  0.48727213  1
  O  O189  1  0.63793903  0.23885475  1.00576539  1
  O  O190  1  0.63897713  0.74343536  0.48946070  1
  O  O191  1  0.63151520  0.76327834  1.01876605  1
  O  O192  1  0.48650161  0.24619678  0.13994845  1
  O  O193  1  0.51393244  0.22518504  0.63805124  1
  O  O194  1  0.52399246  0.72793292  0.15353661  1
  O  O195  1  0.49737572  0.76634878  0.63556521  1
  O  O196  1  0.98754398  0.26099454  0.13152044  1
  O  O197  1  0.99797175  0.22958061  0.63176979  1
  O  O198  1  0.97416658  0.75856096  0.13493129  1
  O  O199  1  0.98333878  0.75824478  0.63303037  1
  O  O200  1  0.04237595  0.25114173  0.39649951  1
  O  O201  1  0.00056251  0.27794102  0.89340826  1
  O  O202  1  0.00795402  0.75081839  0.36661215  1
  O  O203  1  0.07641867  0.73539093  0.93103158  1
  O  O204  1  0.50162030  0.24528855  0.36535438  1
  O  O205  1  0.48154342  0.27517547  0.88773752  1
  O  O206  1  0.51745058  0.75730393  0.37364107  1
  O  O207  1  0.50003524  0.76333062  0.85597703  1
  O  O208  1  0.24810146  0.10964761  0.48438698  1
  O  O209  1  0.22818354  0.06941389  0.97666941  1
  O  O210  1  0.24340740  0.66507757  0.49149927  1
  O  O211  1  0.26237428  0.62847202  0.99490902  1
  O  O212  1  0.74829218  0.11410452  0.49332424  1
  O  O213  1  0.74297793  0.13315334  1.00318883  1
  O  O214  1  0.74703966  0.63677237  0.48961599  1
  O  O215  1  0.74777371  0.63959759  0.99703598  1
  O  O216  1  0.19626966  0.31810604  -0.02418532  1
  O  O217  1  0.21321137  0.40459437  0.55568082  1
  O  O218  1  0.26123567  0.89207845  0.02505244  1
  O  O219  1  0.24456923  0.87649904  0.51456590  1
  O  O220  1  0.73635684  0.36022403  0.01989316  1
  O  O221  1  0.76056343  0.38288210  0.51778361  1
  O  O222  1  0.75723908  0.85880122  -0.00560060  1
  O  O223  1  0.74994719  0.86130339  0.50806189  1
  O  O224  1  0.12669176  0.54135391  0.22723685  1
  O  O225  1  0.08983673  0.56011149  0.72033378  1
  O  O226  1  0.09432261  1.00129004  0.22979164  1
  O  O227  1  0.15249240  0.99335905  0.75487241  1
  O  O228  1  0.61598871  0.47927893  0.26668451  1
  O  O229  1  0.63575171  0.49894883  0.75444173  1
  O  O230  1  0.65225320  1.00867811  0.24582221  1
  O  O231  1  0.63836114  1.00817178  0.73190971  1
  O  O232  1  0.39001417  0.00882973  0.26312440  1
  O  O233  1  0.37693837  0.00352096  0.74649901  1
  O  O234  1  0.35806718  0.42458462  0.31238013  1
  O  O235  1  0.37909357  0.50003922  0.72840577  1
  O  O236  1  0.90425777  0.02653105  0.26708232  1
  O  O237  1  0.86340097  -0.01431124  0.75417155  1
  O  O238  1  0.88059330  0.51000201  0.26808966  1
  O  O239  1  0.85717654  0.50587046  0.76837391  1
  O  O240  1  0.15301521  0.37424010  0.40370121  1
  O  O241  1  0.10631850  0.41369203  0.87183789  1
  O  O242  1  0.13101148  0.86352336  0.35551140  1
  O  O243  1  0.14695381  0.88314383  0.86816133  1
  O  O244  1  0.63542020  0.35477866  0.36984270  1
  O  O245  1  0.59781580  0.38182886  0.88079134  1
  O  O246  1  0.62968327  0.86275669  0.37282810  1
  O  O247  1  0.61356269  0.87750779  0.87194388  1
  O  O248  1  0.36266648  0.10957648  0.14227176  1
  O  O249  1  0.35276960  0.19107514  0.57765538  1
  O  O250  1  0.38401966  0.65810209  0.11380881  1
  O  O251  1  0.38427407  0.65618178  0.59897664  1
  O  O252  1  0.87265983  0.13424570  0.13102534  1
  O  O253  1  0.86291312  0.12703762  0.63939384  1
  O  O254  1  0.86089463  0.62113825  0.14425623  1
  O  O255  1  0.86715097  0.64559831  0.62184789  1
  O  O256  1  0.27655357  0.26089665  0.15593739  1
  O  O257  1  0.28647525  0.22429178  0.60421873  1
  O  O258  1  0.25068732  0.76198692  0.11544354  1
  O  O259  1  0.26784044  0.76258788  0.60980406  1
  O  O260  1  0.75921385  0.25261010  0.12167077  1
  O  O261  1  0.73621467  0.26490341  0.63518395  1
  O  O262  1  0.75700487  0.74059465  0.11716206  1
  O  O263  1  0.75248646  0.75851694  0.61594961  1
  O  O264  1  0.22704767  0.22943344  0.37438535  1
  O  O265  1  0.22646243  0.29340068  0.90665063  1
  O  O266  1  0.24486284  0.76832282  0.38342482  1
  O  O267  1  0.26654438  0.73003445  0.86725543  1
  O  O268  1  0.74707656  0.24562223  0.37006906  1
  O  O269  1  0.75820521  0.26639622  0.89619123  1
  O  O270  1  0.74742838  0.75033653  0.38473682  1
  O  O271  1  0.73895861  0.73492377  0.89112561  1
  O  O272  1  -0.01679626  0.10779171  0.00393551  1
  O  O273  1  -0.01073788  0.12132193  0.51584095  1
  O  O274  1  -0.01184566  0.61471313  0.01507333  1
  O  O275  1  0.00860153  0.61583851  0.50862191  1
  O  O276  1  0.51019057  0.10601994  0.00044254  1
  O  O277  1  0.51897794  0.10354681  0.49280662  1
  O  O278  1  0.51121964  0.63705002  0.01235410  1
  O  O279  1  0.52219057  0.63509000  0.49241518  1
  O  O280  1  0.48688674  0.35300057  0.50254338  1
  O  O281  1  0.53903077  0.41451916  1.03545545  1
  O  O282  1  0.51635157  0.88762539  0.48082925  1
  O  O283  1  0.50948083  0.89264439  0.98385906  1
  O  O284  1  0.97904615  0.38927488  0.52208923  1
  O  O285  1  1.00090321  0.40305125  0.98743048  1
  O  O286  1  0.99558746  0.88400934  0.50480204  1
  O  O287  1  0.97672218  0.87232840  0.98787791  1
  O  O288  1  0.49695867  0.48869658  0.40648071  1
  O  O289  1  0.48748699  0.48822491  0.87224424  1
  O  O290  1  0.50471840  0.99467928  0.37646985  1
  O  O291  1  0.50171069  0.99149530  0.85717649  1
  O  O292  1  0.99406840  0.51242771  0.37918021  1
  O  O293  1  0.98022957  0.51503740  0.88459019  1
  O  O294  1  0.98955160  1.01172481  0.39040387  1
  O  O295  1  1.00910349  1.00403152  0.88969154  1
  O  O296  1  0.00446296  -0.02552847  0.10871281  1
  O  O297  1  -0.02547841  0.00576274  0.60532610  1
  O  O298  1  -0.02279980  0.49447854  0.12297474  1
  O  O299  1  -0.01202718  0.51653098  0.64161218  1
  O  O300  1  0.47885740  -0.02016514  0.11464160  1
  O  O301  1  0.51973557  -0.01170681  0.60832712  1
  O  O302  1  0.47759510  0.53337787  0.14468735  1
  O  O303  1  0.48710933  0.49446538  0.58075112  1
  O  O304  1  0.34547207  0.42506865  0.23504666  1
  O  O305  1  0.22175634  0.43781861  0.74506384  1
  O  O306  1  0.30032715  0.88168002  0.20787916  1
  O  O307  1  0.24773278  0.86574536  0.74257995  1
  O  O308  1  0.74020227  0.37422593  0.24763641  1
  O  O309  1  0.75179861  0.38857048  0.73980763  1
  O  O310  1  0.67177060  0.86247961  0.17344060  1
  O  O311  1  0.74389163  0.87980690  0.73845290  1
  O  O312  1  0.26914354  0.12745464  0.26524401  1
  O  O313  1  0.25406445  0.11247151  0.73492948  1
  O  O314  1  0.26401805  0.64812937  0.27071606  1
  O  O315  1  0.25568551  0.60955726  0.76314471  1
  O  O316  1  0.71179661  0.04983244  0.20834941  1
  O  O317  1  0.76553810  0.10536283  0.75498908  1
  O  O318  1  0.76157013  0.62901476  0.26977018  1
  O  O319  1  0.74025392  0.61513308  0.77261931  1
  O  O320  1  0.37046927  0.11004357  0.36995916  1
  O  O321  1  0.39566587  0.10765794  0.86585226  1
  O  O322  1  0.35484586  0.62019513  0.40574156  1
  O  O323  1  0.37572066  0.60432212  0.87970175  1
  O  O324  1  0.86738758  0.12497237  0.38222912  1
  O  O325  1  0.88859148  0.12700533  0.86010110  1
  O  O326  1  0.86605847  0.61627629  0.37520526  1
  O  O327  1  0.85587421  0.61701241  0.88162816  1
  O  O328  1  0.11492663  0.39884695  0.14097247  1
  O  O329  1  0.14208009  0.43475266  0.57454183  1
  O  O330  1  0.13320293  0.86912256  0.13138140  1
  O  O331  1  0.14348042  0.86470651  0.64085957  1
  O  O332  1  0.63752762  0.35714825  0.14981866  1
  O  O333  1  0.63712208  0.38085823  0.61320047  1
  O  O334  1  0.61594569  0.89205017  0.13662319  1
  O  O335  1  0.64059970  0.88875649  0.61426857  1
  O  O336  1  0.13280002  0.26115094  0.23635257  1
  O  O337  1  0.15281301  0.27835651  0.72401491  1
  O  O338  1  0.10149904  0.75023958  0.23880179  1
  O  O339  1  0.11648811  0.76267576  0.76514440  1
  O  O340  1  0.61746565  0.24304867  0.26639970  1
  O  O341  1  0.55135858  0.20137981  0.70363784  1
  O  O342  1  0.63133397  0.74130049  0.26978510  1
  O  O343  1  0.62421664  0.75559325  0.74196995  1
  O  O344  1  0.38743327  0.23734624  0.25098035  1
  O  O345  1  0.32381995  0.26876413  0.74876146  1
  O  O346  1  0.39554560  0.74567757  0.26631328  1
  O  O347  1  0.38427196  0.74415458  0.73773647  1
  O  O348  1  0.86333825  0.24723317  0.23838968  1
  O  O349  1  0.87015327  0.23925291  0.75421887  1
  O  O350  1  0.86846968  0.74267674  0.24191053  1
  O  O351  1  0.86274308  0.74711056  0.74371013  1
  O  O352  1  0.35265829  0.46754775  0.49010598  1
  O  O353  1  0.39491212  0.49958315  1.00734877  1
  O  O354  1  0.39786250  1.00069829  0.48602958  1
  O  O355  1  0.39273734  1.00459989  0.98304259  1
  O  O356  1  0.87652717  0.50646196  0.49064837  1
  O  O357  1  0.87565276  0.50457761  0.99408340  1
  O  O358  1  0.87883686  0.99076732  0.47600162  1
  O  O359  1  0.87475869  0.98196557  1.00166135  1
  O  O360  1  0.10392322  -0.00699749  0.01286622  1
  O  O361  1  0.10543340  -0.00395579  0.49647595  1
  O  O362  1  0.10413822  0.51273080  0.02746739  1
  O  O363  1  0.11942055  0.49532908  0.53490822  1
  O  O364  1  0.61825555  0.00614266  0.00902739  1
  O  O365  1  0.62772055  0.00559034  0.49632754  1
  O  O366  1  0.59185561  0.46569158  0.02177131  1
  O  O367  1  0.63516093  0.51796829  0.49611094  1
  O  O368  1  0.39210364  0.36194990  0.09795766  1
  O  O369  1  0.38775717  0.23672228  0.73907659  1
  O  O370  1  0.41519462  0.82294470  0.10949486  1
  O  O371  1  0.36687518  0.86264878  0.62798520  1
  O  O372  1  0.85628514  0.36752795  0.13705196  1
  O  O373  1  0.85871732  0.37834429  0.61973027  1
  O  O374  1  0.85702656  0.86856996  0.13885750  1
  O  O375  1  0.85963250  0.86143865  0.62808264  1
  O  O376  1  0.14460485  0.09529580  0.35983872  1
  O  O377  1  0.12421285  0.23302749  0.77329638  1
  O  O378  1  0.13876693  0.65989132  0.36797212  1
  O  O379  1  0.15744475  0.61091334  0.87863285  1
  O  O380  1  0.63407775  0.13029388  0.38049709  1
  O  O381  1  0.62673055  0.12699912  0.89887691  1
  O  O382  1  0.64113384  0.63217488  0.38146408  1
  O  O383  1  0.63121115  0.61106776  0.89063136  1
