# generated using pymatgen
data_VZnO4
_symmetry_space_group_name_H-M   'P 1'
_cell_length_a   17.02057427
_cell_length_b   16.89611971
_cell_length_c   17.02709663
_cell_angle_alpha   89.98362778
_cell_angle_beta   90.42870960
_cell_angle_gamma   89.83301675
_symmetry_Int_Tables_number   1
_chemical_formula_structural   VZnO4
_chemical_formula_sum   'V64 Zn64 O256'
_cell_volume   4896.52262181
_cell_formula_units_Z   64
loop_
 _symmetry_equiv_pos_site_id
 _symmetry_equiv_pos_as_xyz
  1  'x, y, z'
loop_
 _atom_site_type_symbol
 _atom_site_label
 _atom_site_symmetry_multiplicity
 _atom_site_fract_x
 _atom_site_fract_y
 _atom_site_fract_z
 _atom_site_occupancy
  V  V0  1  0.13266093  0.87642640  0.24546156  1
  V  V1  1  0.51885484  0.75403182  0.25934721  1
  V  V2  1  0.38873760  0.14674291  0.24851902  1
  V  V3  1  0.63205285  0.37972507  0.73960584  1
  V  V4  1  -0.00138207  0.74943829  0.24747470  1
  V  V5  1  0.60747663  0.74756675  0.86099998  1
  V  V6  1  0.74135084  -0.02324724  0.23849449  1
  V  V7  1  -0.00161362  0.62243489  0.12494963  1
  V  V8  1  0.38764849  0.37481498  0.50219887  1
  V  V9  1  0.48402653  0.89222197  0.87370117  1
  V  V10  1  0.87175798  0.60170388  0.25919041  1
  V  V11  1  0.62777539  0.35541444  0.24911182  1
  V  V12  1  0.86618651  -0.01179517  0.88861802  1
  V  V13  1  0.37455235  0.49644225  0.87399372  1
  V  V14  1  0.74273502  0.11934016  0.85181994  1
  V  V15  1  0.61605991  0.61263346  -0.00756103  1
  V  V16  1  0.75953580  0.62298201  0.86990702  1
  V  V17  1  0.88864738  -0.01807967  0.35667032  1
  V  V18  1  0.49794648  0.12575897  0.10811860  1
  V  V19  1  0.74838011  0.75364289  0.00264499  1
  V  V20  1  0.76255231  0.12422879  0.35769907  1
  V  V21  1  -0.00534978  0.63774315  0.62836712  1
  V  V22  1  0.36119415  0.12110724  0.75764685  1
  V  V23  1  0.64943563  0.49182408  0.12808158  1
  V  V24  1  0.25729529  0.75285025  0.50666209  1
  V  V25  1  0.61789931  0.26058068  0.88110905  1
  V  V26  1  0.87899087  0.32606161  0.49597429  1
  V  V27  1  0.12421220  0.75045184  0.37598275  1
  V  V28  1  0.38358348  0.73804257  0.13783470  1
  V  V29  1  0.22211396  0.39533882  0.61701730  1
  V  V30  1  0.35874035  0.25575538  0.62330071  1
  V  V31  1  0.38875206  0.36604099  -0.00131421  1
  V  V32  1  0.49837033  0.60514813  0.12945538  1
  V  V33  1  0.12380722  0.50010205  0.12614830  1
  V  V34  1  0.75843683  0.25388946  0.00476507  1
  V  V35  1  0.75826386  0.49984730  0.75028533  1
  V  V36  1  0.87447380  0.22211359  0.66305472  1
  V  V37  1  0.50098506  0.25885545  0.74025057  1
  V  V38  1  0.62522063  0.10493486  -0.00296959  1
  V  V39  1  0.50884975  0.11498975  0.62404522  1
  V  V40  1  0.11010270  0.86766425  0.75687613  1
  V  V41  1  0.72796874  0.86974289  0.65401329  1
  V  V42  1  0.01166955  0.12326508  0.11817199  1
  V  V43  1  0.91387066  0.41683353  -0.01209309  1
  V  V44  1  0.26247209  0.50441176  0.24894159  1
  V  V45  1  0.35846466  0.01189244  0.89672443  1
  V  V46  1  0.62186006  0.24423161  0.39616049  1
  V  V47  1  0.51044095  0.60411935  0.63650381  1
  V  V48  1  0.24878523  0.61951049  0.38503826  1
  V  V49  1  0.13058877  0.63300209  -0.00537121  1
  V  V50  1  0.37830873  0.88030247  0.47822375  1
  V  V51  1  0.38972103  0.49941205  0.38423335  1
  V  V52  1  0.11985370  0.24348814  0.37533833  1
  V  V53  1  -0.00516187  -0.00606504  0.50844826  1
  V  V54  1  0.26291718  0.74217532  -0.00474076  1
  V  V55  1  0.25942771  0.35800578  0.12060262  1
  V  V56  1  0.28264082  -0.00639431  0.25700911  1
  V  V57  1  0.26146208  0.12807784  0.37943856  1
  V  V58  1  0.74839537  0.76601837  0.49516310  1
  V  V59  1  0.72687454  0.62431112  0.38358237  1
  V  V60  1  0.27111254  0.87240580  0.12535323  1
  V  V61  1  0.36266739  0.64242583  0.74797837  1
  V  V62  1  0.12852514  0.11484248  0.50895731  1
  V  V63  1  0.12855365  0.36632129  0.25324560  1
  Zn  Zn64  1  0.20091357  0.18294564  0.19295712  1
  Zn  Zn65  1  0.15415833  0.14991886  0.76870410  1
  Zn  Zn66  1  0.19349195  0.68642959  0.19147564  1
  Zn  Zn67  1  0.18720936  0.68186755  0.68650038  1
  Zn  Zn68  1  0.69030361  0.17684976  0.18071197  1
  Zn  Zn69  1  0.68667157  0.20088449  0.67061095  1
  Zn  Zn70  1  0.69040771  0.68266321  0.18528267  1
  Zn  Zn71  1  0.68871432  0.68976752  0.68364581  1
  Zn  Zn72  1  0.31201900  0.31567671  0.31849056  1
  Zn  Zn73  1  0.32610901  0.35966678  0.78539478  1
  Zn  Zn74  1  0.32266926  0.80274971  0.31346149  1
  Zn  Zn75  1  0.31189522  0.82323466  0.81525070  1
  Zn  Zn76  1  0.80983175  0.31457845  0.31579379  1
  Zn  Zn77  1  0.81645412  0.31740171  0.82723381  1
  Zn  Zn78  1  0.80815013  0.80593278  0.31491496  1
  Zn  Zn79  1  0.68044962  0.92769816  0.83350032  1
  Zn  Zn80  1  0.20111349  0.42174370  0.43752264  1
  Zn  Zn81  1  0.20054065  0.44560413  0.94479065  1
  Zn  Zn82  1  0.19422175  0.93802432  0.43408578  1
  Zn  Zn83  1  0.16437276  1.04088035  0.94992856  1
  Zn  Zn84  1  0.71880534  0.42794367  0.41024842  1
  Zn  Zn85  1  0.69276432  0.43826981  0.93680094  1
  Zn  Zn86  1  0.72668812  0.97287674  0.45761933  1
  Zn  Zn87  1  0.69046684  0.92511518  1.05985201  1
  Zn  Zn88  1  0.31039226  0.07023780  0.07374703  1
  Zn  Zn89  1  0.35696741  0.07435218  0.54724088  1
  Zn  Zn90  1  0.31767475  0.55675937  0.05765960  1
  Zn  Zn91  1  0.31668938  0.55983011  0.56969378  1
  Zn  Zn92  1  0.80150045  0.07092541  0.06464432  1
  Zn  Zn93  1  0.83024032  0.11318232  0.53145793  1
  Zn  Zn94  1  0.81907324  0.57431336  0.05457345  1
  Zn  Zn95  1  0.67871077  0.54897122  0.55742400  1
  Zn  Zn96  1  0.44115210  0.42069933  0.19336451  1
  Zn  Zn97  1  0.44318057  0.44021566  0.68401191  1
  Zn  Zn98  1  0.55141175  0.93288816  0.18452098  1
  Zn  Zn99  1  0.54900265  0.92954676  0.70088126  1
  Zn  Zn100  1  0.81592654  0.41099736  0.17401851  1
  Zn  Zn101  1  0.86595452  0.47812971  0.63102474  1
  Zn  Zn102  1  0.94867974  0.93466938  0.18768222  1
  Zn  Zn103  1  0.87871818  1.00756671  0.67505067  1
  Zn  Zn104  1  0.07647605  0.05623626  0.31352692  1
  Zn  Zn105  1  0.02050577  0.04838942  0.80358267  1
  Zn  Zn106  1  0.07417400  0.56656954  0.30368389  1
  Zn  Zn107  1  -0.02842178  0.62719801  0.84731479  1
  Zn  Zn108  1  0.57634901  0.07152484  0.30444271  1
  Zn  Zn109  1  0.54895073  0.07075738  0.81520779  1
  Zn  Zn110  1  0.56440358  0.55559221  0.30354919  1
  Zn  Zn111  1  0.54920839  0.54904140  0.81484581  1
  Zn  Zn112  1  0.44426490  0.19089690  0.44337051  1
  Zn  Zn113  1  0.43782458  0.19499097  0.93475477  1
  Zn  Zn114  1  0.43352512  0.68996866  0.43114551  1
  Zn  Zn115  1  0.43325553  0.67355921  0.93748021  1
  Zn  Zn116  1  0.94866367  0.17088595  0.42125820  1
  Zn  Zn117  1  0.92400014  0.15554176  0.93581188  1
  Zn  Zn118  1  0.92942912  0.69156531  0.43720339  1
  Zn  Zn119  1  0.92326310  0.79309822  0.93204320  1
  Zn  Zn120  1  -0.04307676  0.32794402  0.16332274  1
  Zn  Zn121  1  0.04693569  0.30112605  0.55919391  1
  Zn  Zn122  1  0.11605424  0.85280988  0.02689187  1
  Zn  Zn123  1  0.07529195  0.82399308  0.55564384  1
  Zn  Zn124  1  0.56383311  0.30851854  0.07041894  1
  Zn  Zn125  1  0.59958114  0.36940038  0.53131928  1
  Zn  Zn126  1  0.54923448  0.80304624  0.04327077  1
  Zn  Zn127  1  0.57430842  0.83243435  0.53294612  1
  O  O128  1  0.11620488  0.12417398  0.12559546  1
  O  O129  1  0.14244817  0.12241142  0.60252678  1
  O  O130  1  0.12326778  0.61179137  0.14004441  1
  O  O131  1  0.10080537  0.62206168  0.64099905  1
  O  O132  1  0.62038805  0.12357371  0.10100225  1
  O  O133  1  0.60663164  0.13411276  0.62169238  1
  O  O134  1  0.61942348  0.60771507  0.11429011  1
  O  O135  1  0.61593320  0.61489249  0.63065823  1
  O  O136  1  0.36855903  0.38439710  0.39236424  1
  O  O137  1  0.36710264  0.37629270  0.89174807  1
  O  O138  1  0.38521153  0.86988180  0.37929207  1
  O  O139  1  0.37100595  0.90415344  0.86871252  1
  O  O140  1  0.81926853  0.36599215  0.41805475  1
  O  O141  1  0.88250207  0.36708279  0.90241952  1
  O  O142  1  0.87929062  0.88331907  0.37013893  1
  O  O143  1  0.88274362  0.88975541  0.89104329  1
  O  O144  1  0.24859940  0.01144339  0.35783378  1
  O  O145  1  0.25956729  0.01419502  0.88971468  1
  O  O146  1  0.25069128  0.50713905  0.37152023  1
  O  O147  1  0.26778013  0.50258691  0.87868274  1
  O  O148  1  0.76842331  -0.00279566  0.34866003  1
  O  O149  1  0.75937353  0.00700994  0.86223847  1
  O  O150  1  0.75474913  0.52772927  0.36761089  1
  O  O151  1  0.74428956  0.51195572  0.86565617  1
  O  O152  1  0.25402361  0.50482851  0.14431828  1
  O  O153  1  0.23080024  0.49707699  0.60845997  1
  O  O154  1  0.27128949  0.97965497  0.14269022  1
  O  O155  1  0.29406765  0.95737940  0.63616643  1
  O  O156  1  0.75121513  0.49760536  0.11869178  1
  O  O157  1  0.74966964  0.51117544  0.64587787  1
  O  O158  1  0.75271333  0.99425821  0.13255898  1
  O  O159  1  0.79075533  0.94728080  0.63075792  1
  O  O160  1  0.03130805  0.37428802  0.23763469  1
  O  O161  1  0.02471534  0.47235763  0.79573329  1
  O  O162  1  0.02352671  0.86033769  0.23706443  1
  O  O163  1  0.01416738  0.84302798  0.74106168  1
  O  O164  1  0.52871588  0.38458081  0.25202225  1
  O  O165  1  0.51366910  0.36468149  0.74459752  1
  O  O166  1  0.50200290  0.85356642  0.24842169  1
  O  O167  1  0.48868905  0.86572695  0.77452874  1
  O  O168  1  0.48650703  0.12881770  0.26285585  1
  O  O169  1  0.48701042  0.13958090  0.74268533  1
  O  O170  1  0.50931170  0.62968485  0.22993744  1
  O  O171  1  0.49285066  0.61601530  0.73857135  1
  O  O172  1  1.01189720  0.12037131  0.22291164  1
  O  O173  1  1.05191071  0.12637305  0.73041290  1
  O  O174  1  0.99489255  0.62772998  0.24748754  1
  O  O175  1  0.99734260  0.63840370  0.73362116  1
  O  O176  1  0.37555229  0.26403552  -0.00204029  1
  O  O177  1  0.37930429  0.26063375  0.51462558  1
  O  O178  1  0.36665459  0.73052290  0.01658511  1
  O  O179  1  0.36089628  0.75632219  0.49358192  1
  O  O180  1  0.85663366  0.22840030  -0.00821121  1
  O  O181  1  0.87014524  0.21959449  0.49024105  1
  O  O182  1  0.84758603  0.73583296  -0.00868549  1
  O  O183  1  0.85356824  0.74259062  0.49877559  1
  O  O184  1  0.11994497  0.23090081  0.48088010  1
  O  O185  1  0.04001546  0.26930928  0.94987091  1
  O  O186  1  0.13997678  0.76104389  0.48087312  1
  O  O187  1  0.14361269  0.74177081  1.00811288  1
  O  O188  1  0.63736123  0.26184389  0.49287686  1
  O  O189  1  0.62443414  0.25032277  0.98594986  1
  O  O190  1  0.64585640  0.75178287  0.50457972  1
  O  O191  1  0.62470509  0.72623559  0.99003928  1
  O  O192  1  0.51087223  0.22576881  0.12876777  1
  O  O193  1  0.49736843  0.24361370  0.63950933  1
  O  O194  1  0.49063500  0.73770623  0.12793767  1
  O  O195  1  0.49682698  0.70675833  0.58221163  1
  O  O196  1  1.00820243  0.22798715  0.12247776  1
  O  O197  1  0.95942472  0.26081381  0.62026707  1
  O  O198  1  1.01226715  0.72996894  0.14522684  1
  O  O199  1  1.02379719  0.74082135  0.61477397  1
  O  O200  1  0.02267089  0.23188610  0.35674370  1
  O  O201  1  0.01234589  0.22906222  0.89564769  1
  O  O202  1  0.01952542  0.74002711  0.36768071  1
  O  O203  1  -0.00245575  0.72433515  0.89060259  1
  O  O204  1  0.52164861  0.24482131  0.38555156  1
  O  O205  1  0.51316981  0.24421995  0.86015430  1
  O  O206  1  0.50148195  0.73537673  0.35740718  1
  O  O207  1  0.50997977  0.72513139  0.87192998  1
  O  O208  1  0.24808418  0.11437089  0.48108867  1
  O  O209  1  0.21364661  0.10403339  1.02841373  1
  O  O210  1  0.25430677  0.63166809  0.48890222  1
  O  O211  1  0.24213202  0.63424894  1.01261333  1
  O  O212  1  0.74446299  0.08630679  0.46455052  1
  O  O213  1  0.73197158  0.13137253  0.98999905  1
  O  O214  1  0.73426305  0.62823608  0.48831524  1
  O  O215  1  0.73565708  0.62152278  0.98707336  1
  O  O216  1  0.25329770  0.37442718  0.02018904  1
  O  O217  1  0.26656185  0.37505616  0.51509267  1
  O  O218  1  0.24937904  0.85505264  0.02407869  1
  O  O219  1  0.25944991  0.86040417  0.49148291  1
  O  O220  1  0.74878274  0.35508488  -0.00836086  1
  O  O221  1  0.90716739  0.50214534  0.46282678  1
  O  O222  1  0.73840751  0.85414578  -0.01421385  1
  O  O223  1  0.75087335  0.86824714  0.49225517  1
  O  O224  1  0.14355394  0.48998589  0.24939018  1
  O  O225  1  0.09672501  0.48013129  0.77787390  1
  O  O226  1  0.13374384  0.97844321  0.25021753  1
  O  O227  1  0.10697268  0.97097008  0.74794250  1
  O  O228  1  0.63303940  0.50460137  0.22745935  1
  O  O229  1  0.62213678  0.48166675  0.75412452  1
  O  O230  1  0.63652853  0.98841858  0.25156025  1
  O  O231  1  0.61461992  0.99374008  0.76836683  1
  O  O232  1  0.37777871  0.00200919  0.26386899  1
  O  O233  1  0.36460011  0.02346955  0.75631230  1
  O  O234  1  0.36572347  0.48560847  0.26921172  1
  O  O235  1  0.37468394  0.46983290  0.76812834  1
  O  O236  1  0.86949789  -0.01490354  0.24688669  1
  O  O237  1  0.91781462  -0.00016306  0.78120595  1
  O  O238  1  0.87008108  0.50418889  0.24761281  1
  O  O239  1  0.85753370  0.48884885  0.74911909  1
  O  O240  1  0.13876733  0.35557366  0.36461385  1
  O  O241  1  0.13294617  0.36708794  0.88533667  1
  O  O242  1  0.14337558  0.85805197  0.35705027  1
  O  O243  1  0.08161285  0.86963634  0.85543045  1
  O  O244  1  0.64132296  0.34871677  0.36036363  1
  O  O245  1  0.62538638  0.36238833  0.86943757  1
  O  O246  1  0.61566506  0.91634796  0.44364307  1
  O  O247  1  0.60476813  0.85299524  0.87872961  1
  O  O248  1  0.38726037  0.12804743  0.13938255  1
  O  O249  1  0.37468012  0.14249113  0.64008345  1
  O  O250  1  0.38995881  0.62416271  0.12264265  1
  O  O251  1  0.38496032  0.61196335  0.64374705  1
  O  O252  1  0.90798561  0.12119463  0.11609896  1
  O  O253  1  0.86772798  0.11709163  0.63901097  1
  O  O254  1  0.89410627  0.61692681  0.13722347  1
  O  O255  1  0.90033198  0.67152114  0.63884925  1
  O  O256  1  0.25161326  0.25948209  0.12814477  1
  O  O257  1  0.26313094  0.25620868  0.62281449  1
  O  O258  1  0.26937944  0.74808358  0.13374610  1
  O  O259  1  0.24121106  0.73849650  0.60345985  1
  O  O260  1  0.74531321  0.23938978  0.10376414  1
  O  O261  1  0.77997218  0.25000003  0.63093742  1
  O  O262  1  0.73827789  0.74025498  0.10207329  1
  O  O263  1  0.74934700  0.76858039  0.62105124  1
  O  O264  1  0.24521105  0.23313801  0.36880055  1
  O  O265  1  0.17094633  0.30487030  0.85384460  1
  O  O266  1  0.24951378  0.73292373  0.37550458  1
  O  O267  1  0.26830146  0.75270892  0.89845703  1
  O  O268  1  0.75122240  0.22679372  0.36265029  1
  O  O269  1  0.73071585  0.23795671  0.87736848  1
  O  O270  1  0.75288399  0.73798943  0.38523566  1
  O  O271  1  0.72358115  0.72568620  0.88049080  1
  O  O272  1  0.01817492  0.12827535  0.01483184  1
  O  O273  1  0.02037533  0.10975235  0.49130512  1
  O  O274  1  0.02206263  0.62834079  0.02597681  1
  O  O275  1  -0.00452607  0.63698952  0.52389641  1
  O  O276  1  0.50907277  0.12507151  0.00184876  1
  O  O277  1  0.46972886  0.11665259  0.52499661  1
  O  O278  1  0.51079004  0.62142937  0.01408838  1
  O  O279  1  0.49369929  0.64751521  0.52536342  1
  O  O280  1  0.48616438  0.37451918  0.50496636  1
  O  O281  1  0.48759811  0.37267310  1.01133178  1
  O  O282  1  0.46920923  0.86747180  0.52151896  1
  O  O283  1  0.47837241  0.84511986  0.96510728  1
  O  O284  1  0.97513172  0.34453848  0.47503398  1
  O  O285  1  1.01195419  0.41208408  0.98611430  1
  O  O286  1  1.01499439  0.89367237  0.49366214  1
  O  O287  1  0.98202380  0.84911004  1.03817327  1
  O  O288  1  0.48663451  0.50602264  0.37231431  1
  O  O289  1  0.47880592  0.49695793  0.88386769  1
  O  O290  1  0.55689656  0.92940081  0.38903317  1
  O  O291  1  0.48895391  0.99541732  0.88319552  1
  O  O292  1  1.04742233  0.49470246  0.40051600  1
  O  O293  1  0.99663091  0.51384770  0.85825225  1
  O  O294  1  0.99002503  1.00082439  0.35356038  1
  O  O295  1  0.96502713  1.04814220  0.90311457  1
  O  O296  1  0.01026302  0.01779136  0.11690368  1
  O  O297  1  -0.02296698  -0.00339285  0.60527308  1
  O  O298  1  0.02301175  0.50807742  0.13523247  1
  O  O299  1  -0.02830679  0.53769745  0.62131986  1
  O  O300  1  0.50915120  0.02982368  0.14209482  1
  O  O301  1  0.49763356  0.01666786  0.64193510  1
  O  O302  1  0.49859631  0.50500852  0.13118385  1
  O  O303  1  0.50299467  0.50477932  0.61433686  1
  O  O304  1  0.25087219  0.38381990  0.24390757  1
  O  O305  1  0.23957489  0.37505949  0.71600427  1
  O  O306  1  0.25798074  0.87973532  0.24922185  1
  O  O307  1  0.21456096  0.87067488  0.78063866  1
  O  O308  1  0.73180899  0.38316674  0.24981005  1
  O  O309  1  0.73899131  0.38600703  0.76400514  1
  O  O310  1  0.75029080  0.87673608  0.24479868  1
  O  O311  1  0.73265657  0.86258478  0.75220836  1
  O  O312  1  0.27104179  0.11056307  0.24885329  1
  O  O313  1  0.26399545  0.14613494  0.75887273  1
  O  O314  1  0.25362894  0.60959685  0.26394627  1
  O  O315  1  0.26383293  0.62336421  0.74185187  1
  O  O316  1  0.74322654  0.10481483  0.25259596  1
  O  O317  1  0.72472542  0.12816071  0.75582170  1
  O  O318  1  0.77290067  0.63988747  0.25576024  1
  O  O319  1  0.73743423  0.61252657  0.76228539  1
  O  O320  1  0.36633662  0.13418416  0.36773085  1
  O  O321  1  0.38251095  0.12098432  0.86687483  1
  O  O322  1  0.36359831  0.60682203  0.38242784  1
  O  O323  1  0.37907407  0.61102971  0.85424832  1
  O  O324  1  0.86660764  0.11508970  0.35800721  1
  O  O325  1  0.84178656  0.12977510  0.86087712  1
  O  O326  1  0.89067864  0.62082043  0.35846867  1
  O  O327  1  0.85694453  0.63154366  0.86378838  1
  O  O328  1  0.14814239  0.39004344  0.13790694  1
  O  O329  1  0.12572836  0.37123881  0.59667560  1
  O  O330  1  0.15453861  0.85980868  0.14308181  1
  O  O331  1  0.12066348  0.86846897  0.64933766  1
  O  O332  1  0.62714720  0.38695937  0.12891154  1
  O  O333  1  0.63395331  0.36438986  0.64235433  1
  O  O334  1  0.60558843  0.87345160  0.10764045  1
  O  O335  1  0.62653212  0.88530088  0.62607006  1
  O  O336  1  0.14019075  0.26024187  0.25289190  1
  O  O337  1  0.13169279  0.27065923  0.79676821  1
  O  O338  1  0.12416794  0.75047434  0.26044210  1
  O  O339  1  0.14406520  0.76171729  0.75500848  1
  O  O340  1  0.62763128  0.25527485  0.23679155  1
  O  O341  1  0.61693981  0.25809253  0.75668344  1
  O  O342  1  0.61742638  0.74409666  0.24504110  1
  O  O343  1  0.62089427  0.73701080  0.76325259  1
  O  O344  1  0.37607718  0.24552874  0.25353653  1
  O  O345  1  0.38654813  0.26402977  0.73957071  1
  O  O346  1  0.38657611  0.73789155  0.24044662  1
  O  O347  1  0.36438337  0.74294508  0.75361850  1
  O  O348  1  0.86567107  0.31233820  0.22326180  1
  O  O349  1  0.87761178  0.24715636  0.76028270  1
  O  O350  1  0.90015227  0.75842505  0.25627265  1
  O  O351  1  0.89510059  0.80780518  0.75803740  1
  O  O352  1  0.37611557  0.49099454  0.49214517  1
  O  O353  1  0.37011827  0.48518354  0.99060013  1
  O  O354  1  0.35622506  0.97877072  0.49373057  1
  O  O355  1  0.37407814  1.01916477  0.99481524  1
  O  O356  1  0.85360124  0.52899676  0.50354607  1
  O  O357  1  0.88566559  0.51576849  0.98681382  1
  O  O358  1  0.89469610  1.01071646  0.47182032  1
  O  O359  1  0.85515842  1.01014530  0.98751824  1
  O  O360  1  0.10316924  -0.04311297  -0.01012466  1
  O  O361  1  0.12113413  0.00706442  0.48963931  1
  O  O362  1  0.14336734  0.51484759  0.02371870  1
  O  O363  1  0.09583662  0.49039389  0.45790228  1
  O  O364  1  0.63347014  0.00718665  -0.01028954  1
  O  O365  1  0.52445906  0.00006401  0.39047394  1
  O  O366  1  0.63064451  0.50470203  0.01156739  1
  O  O367  1  0.65394028  0.45971225  0.49509847  1
  O  O368  1  0.36568188  0.37875289  0.11903085  1
  O  O369  1  0.37518914  0.36912444  0.61655441  1
  O  O370  1  0.37242242  0.84965027  0.12617226  1
  O  O371  1  0.33065124  0.89420475  0.63656156  1
  O  O372  1  0.89097525  0.38224948  0.08678116  1
  O  O373  1  0.85591371  0.38173348  0.57699323  1
  O  O374  1  0.92915880  0.88177804  0.08158001  1
  O  O375  1  0.89399781  0.84941724  0.69976379  1
  O  O376  1  0.14431407  0.13194028  0.36191502  1
  O  O377  1  0.11399287  0.08963722  0.86118667  1
  O  O378  1  0.14077813  0.63467558  0.37222318  1
  O  O379  1  0.12349738  0.61824214  0.90124973  1
  O  O380  1  0.63814514  0.13926032  0.37033116  1
  O  O381  1  0.62495548  0.13171200  0.88437642  1
  O  O382  1  0.62884498  0.62280776  0.36726208  1
  O  O383  1  0.61597685  0.61255183  0.88825338  1
