# generated using pymatgen
data_VZnO4
_symmetry_space_group_name_H-M   'P 1'
_cell_length_a   16.95729372
_cell_length_b   16.98875258
_cell_length_c   16.94875807
_cell_angle_alpha   89.83822275
_cell_angle_beta   90.14787175
_cell_angle_gamma   89.84665202
_symmetry_Int_Tables_number   1
_chemical_formula_structural   VZnO4
_chemical_formula_sum   'V64 Zn64 O256'
_cell_volume   4882.60029512
_cell_formula_units_Z   64
loop_
 _symmetry_equiv_pos_site_id
 _symmetry_equiv_pos_as_xyz
  1  'x, y, z'
loop_
 _atom_site_type_symbol
 _atom_site_label
 _atom_site_symmetry_multiplicity
 _atom_site_fract_x
 _atom_site_fract_y
 _atom_site_fract_z
 _atom_site_occupancy
  V  V0  1  0.75076011  -0.00026315  0.75821111  1
  V  V1  1  0.12686230  0.50881386  0.61650468  1
  V  V2  1  -0.01204757  0.63010982  0.64413933  1
  V  V3  1  0.40162146  0.00154126  0.88522189  1
  V  V4  1  0.24066606  0.48027707  0.26584234  1
  V  V5  1  0.51004617  0.14670626  0.11253049  1
  V  V6  1  0.64382831  0.24264215  0.39008624  1
  V  V7  1  0.24120397  0.11765205  0.37515708  1
  V  V8  1  0.74310477  0.62816884  0.38100398  1
  V  V9  1  0.87751162  0.50379286  0.86705445  1
  V  V10  1  0.02156848  0.87866435  0.84889221  1
  V  V11  1  0.61411243  0.87190144  0.73489016  1
  V  V12  1  -0.00764578  -0.01548763  0.50620773  1
  V  V13  1  0.24739446  0.10799807  0.87089488  1
  V  V14  1  0.38069846  0.36235431  0.51071975  1
  V  V15  1  0.01374440  -0.01995270  0.00773579  1
  V  V16  1  0.00385009  0.24453617  0.74860413  1
  V  V17  1  0.50831026  0.50170882  0.51515972  1
  V  V18  1  0.25342900  0.89604367  0.62744607  1
  V  V19  1  0.14639248  0.89493530  0.24806685  1
  V  V20  1  0.86519830  0.37020626  0.50110457  1
  V  V21  1  0.00564264  0.36564765  0.36799979  1
  V  V22  1  0.24964373  0.37139458  0.62928818  1
  V  V23  1  0.50337565  0.36280062  0.37679401  1
  V  V24  1  0.38452174  0.11881567  0.73869039  1
  V  V25  1  0.39459622  0.35678861  -0.00944672  1
  V  V26  1  0.73733438  0.49484446  0.23602715  1
  V  V27  1  0.37939989  0.50429469  0.37751004  1
  V  V28  1  0.00111478  0.37510280  0.88707678  1
  V  V29  1  0.74433233  0.88826829  0.11243710  1
  V  V30  1  0.39022698  0.89824076  0.49422246  1
  V  V31  1  0.86353821  0.12957716  0.76713360  1
  V  V32  1  0.75542870  0.62312849  0.86264777  1
  V  V33  1  0.75262521  -0.00894933  0.27054183  1
  V  V34  1  0.60843038  0.61599026  0.00119546  1
  V  V35  1  -0.00241544  0.50667313  0.49712184  1
  V  V36  1  0.40115345  0.63231645  0.75596548  1
  V  V37  1  0.60748931  0.75832193  0.87066543  1
  V  V38  1  0.51235796  0.01960337  0.48663324  1
  V  V39  1  0.39783803  0.86482137  -0.00205502  1
  V  V40  1  0.86718626  0.49600475  0.37553169  1
  V  V41  1  0.09649943  0.52040329  0.09830925  1
  V  V42  1  0.64581010  0.11854273  0.00165473  1
  V  V43  1  0.87543641  0.10963826  0.22988040  1
  V  V44  1  0.61979318  0.62643028  0.51209467  1
  V  V45  1  0.88042236  0.75063146  0.11945245  1
  V  V46  1  0.60333033  0.75323216  0.36417780  1
  V  V47  1  0.62791242  0.03009177  0.61829594  1
  V  V48  1  0.25169041  0.74424549  0.51132333  1
  V  V49  1  0.86650774  0.62026093  0.23659845  1
  V  V50  1  0.19448073  0.23516465  -0.02131149  1
  V  V51  1  0.84474155  0.37181950  0.00717530  1
  V  V52  1  0.74646528  0.38938741  0.63343990  1
  V  V53  1  0.21722610  0.24794250  0.49830204  1
  V  V54  1  -0.00548348  0.74998226  0.27016959  1
  V  V55  1  0.62075355  0.38446256  0.75129559  1
  V  V56  1  0.12042420  0.38736097  0.74896257  1
  V  V57  1  0.74772367  0.74678194  0.00281277  1
  V  V58  1  0.62341729  0.36807779  0.23974267  1
  V  V59  1  0.63603886  0.24751181  0.87803895  1
  V  V60  1  0.86876229  0.24318155  0.61992027  1
  V  V61  1  0.24411248  0.60608493  0.86612767  1
  V  V62  1  0.49536985  0.25213036  0.74286219  1
  V  V63  1  0.24494740  0.75314542  0.00530605  1
  Zn  Zn64  1  0.18756746  0.18670126  0.17699358  1
  Zn  Zn65  1  0.20366337  0.20177132  0.70347925  1
  Zn  Zn66  1  0.15936885  0.72365301  0.16542794  1
  Zn  Zn67  1  0.25432091  0.72341345  0.71320466  1
  Zn  Zn68  1  0.69335562  0.18082387  0.19693516  1
  Zn  Zn69  1  0.69188847  0.20068790  0.69146874  1
  Zn  Zn70  1  0.67123066  0.67929348  0.18332636  1
  Zn  Zn71  1  0.69501392  0.70069943  0.68708004  1
  Zn  Zn72  1  0.28750198  0.27044933  0.29940378  1
  Zn  Zn73  1  0.30720506  0.30474418  0.82109471  1
  Zn  Zn74  1  0.28119382  0.84201922  0.33817336  1
  Zn  Zn75  1  0.35132671  0.83029886  0.79605918  1
  Zn  Zn76  1  0.80926740  0.31253350  0.30979804  1
  Zn  Zn77  1  0.81497643  0.31757138  0.81314547  1
  Zn  Zn78  1  0.76021412  0.79069538  0.27714315  1
  Zn  Zn79  1  0.78940778  0.83144863  0.82958498  1
  Zn  Zn80  1  0.18999660  0.43345813  0.43899859  1
  Zn  Zn81  1  0.19086069  0.43710043  0.93679978  1
  Zn  Zn82  1  0.18871521  0.93083426  0.44073611  1
  Zn  Zn83  1  0.19319234  0.93203875  0.92990199  1
  Zn  Zn84  1  0.68587507  0.43613298  0.43919853  1
  Zn  Zn85  1  0.68299169  0.44071417  0.92970235  1
  Zn  Zn86  1  0.68385503  0.92825863  0.44360018  1
  Zn  Zn87  1  0.67861006  0.93668536  0.93675068  1
  Zn  Zn88  1  0.32911434  0.17571419  0.05929888  1
  Zn  Zn89  1  0.31674959  0.07395661  0.55105286  1
  Zn  Zn90  1  0.26509014  0.60128226  0.09633996  1
  Zn  Zn91  1  0.32522140  0.55761419  0.58164022  1
  Zn  Zn92  1  0.83386726  0.06881398  0.04716313  1
  Zn  Zn93  1  0.81385846  0.05483485  0.57766813  1
  Zn  Zn94  1  0.80569190  0.55534527  0.04966235  1
  Zn  Zn95  1  0.81093630  0.56454156  0.56483880  1
  Zn  Zn96  1  0.39615254  0.37906947  0.21692506  1
  Zn  Zn97  1  0.43690574  0.44881681  0.69011688  1
  Zn  Zn98  1  0.40929903  1.00039947  0.10656577  1
  Zn  Zn99  1  0.44303045  0.94925703  0.67409006  1
  Zn  Zn100  1  0.93238040  0.42740228  0.18005831  1
  Zn  Zn101  1  0.93686848  0.44093879  0.68596945  1
  Zn  Zn102  1  0.93622463  0.92689269  0.18531219  1
  Zn  Zn103  1  0.93855087  0.94035432  0.70072981  1
  Zn  Zn104  1  0.06910319  0.08887130  0.28246618  1
  Zn  Zn105  1  0.04058532  0.08541196  0.86201064  1
  Zn  Zn106  1  0.03541336  0.52646450  0.27118201  1
  Zn  Zn107  1  0.05472219  0.57553033  0.92205168  1
  Zn  Zn108  1  0.57703131  0.06139954  0.30723193  1
  Zn  Zn109  1  0.57097432  0.07073764  0.80991341  1
  Zn  Zn110  1  0.55993044  0.55311743  0.32240301  1
  Zn  Zn111  1  0.58250711  0.57637581  0.80193991  1
  Zn  Zn112  1  0.43155745  0.18484826  0.43095650  1
  Zn  Zn113  1  0.45458360  0.18521583  0.92310929  1
  Zn  Zn114  1  0.40096886  0.71509525  0.39858364  1
  Zn  Zn115  1  0.40221114  0.65620971  0.96144957  1
  Zn  Zn116  1  0.95359151  0.16591246  0.40731312  1
  Zn  Zn117  1  0.93532150  0.19829901  0.94724780  1
  Zn  Zn118  1  0.92342215  0.68642473  0.44364082  1
  Zn  Zn119  1  0.93413361  0.69895234  0.92989945  1
  Zn  Zn120  1  0.10343088  0.34778812  0.06975037  1
  Zn  Zn121  1  0.04810505  0.32082511  0.56620544  1
  Zn  Zn122  1  0.06321332  0.81708424  0.06121416  1
  Zn  Zn123  1  0.08203972  0.80086696  0.58411678  1
  Zn  Zn124  1  0.56510951  0.31495273  0.05406678  1
  Zn  Zn125  1  0.56907475  0.30401181  0.56598427  1
  Zn  Zn126  1  0.56899196  0.81254298  0.06444399  1
  Zn  Zn127  1  0.56123436  0.81264292  0.54820274  1
  O  O128  1  0.07716743  0.14235993  0.16693066  1
  O  O129  1  0.13926834  0.10469555  0.64838262  1
  O  O130  1  0.14394889  0.60747560  0.12407167  1
  O  O131  1  0.11540810  0.60558429  0.62604425  1
  O  O132  1  0.62691377  0.14069986  0.11171365  1
  O  O133  1  0.63276692  0.12831584  0.62231429  1
  O  O134  1  0.61981971  0.62742460  0.10181352  1
  O  O135  1  0.63892710  0.63997801  0.60903950  1
  O  O136  1  0.39154744  0.37805176  0.40026386  1
  O  O137  1  0.35255872  0.37427671  0.89899662  1
  O  O138  1  0.37585839  0.87994446  0.39469498  1
  O  O139  1  0.38476236  0.89229783  0.88267017  1
  O  O140  1  0.87149829  0.38160799  0.38154495  1
  O  O141  1  0.88261312  0.38381600  0.88208927  1
  O  O142  1  0.81877270  0.81867989  0.46600831  1
  O  O143  1  0.89756237  0.85066900  0.86585012  1
  O  O144  1  0.24421627  0.01801610  0.38674254  1
  O  O145  1  0.27052608  0.00613218  0.87616820  1
  O  O146  1  0.26890333  0.49252524  0.37802306  1
  O  O147  1  0.25551994  0.50641993  0.88102525  1
  O  O148  1  0.75759196  -0.02704786  0.36837713  1
  O  O149  1  0.74175956  -0.00001104  0.85756982  1
  O  O150  1  0.75335834  0.50386708  0.36868418  1
  O  O151  1  0.75444940  0.51780702  0.87245052  1
  O  O152  1  0.27616455  0.53536886  0.18731240  1
  O  O153  1  0.23285757  0.48571026  0.61315461  1
  O  O154  1  0.23281535  1.04273865  0.13376002  1
  O  O155  1  0.25254043  0.99459736  0.59873421  1
  O  O156  1  0.74383425  0.50747987  0.13849270  1
  O  O157  1  0.75156763  0.48821498  0.62569088  1
  O  O158  1  0.76867013  0.98325715  0.09753207  1
  O  O159  1  0.73383802  1.00215228  0.63328842  1
  O  O160  1  -0.00799559  0.38695073  0.26730571  1
  O  O161  1  0.00826359  0.36924632  0.74976234  1
  O  O162  1  -0.01054000  0.84979954  0.25120741  1
  O  O163  1  0.01790922  0.87715424  0.74670373  1
  O  O164  1  0.51374319  0.37979679  0.27035883  1
  O  O165  1  0.51178240  0.37000939  0.74048704  1
  O  O166  1  0.46329372  0.77831491  0.18900101  1
  O  O167  1  0.51615070  0.88553246  0.74437603  1
  O  O168  1  0.50868929  0.08782821  0.21476669  1
  O  O169  1  0.49410330  0.13929512  0.75171894  1
  O  O170  1  0.49755886  0.60503488  0.23585759  1
  O  O171  1  0.50153328  0.62971996  0.74854576  1
  O  O172  1  0.95727738  0.12375089  0.29674494  1
  O  O173  1  0.98555535  0.14070525  0.76428025  1
  O  O174  1  0.96703138  0.62638744  0.25829712  1
  O  O175  1  0.99507748  0.62316447  0.74036529  1
  O  O176  1  0.38775414  0.25174892  -0.00487858  1
  O  O177  1  0.38428032  0.26392127  0.51032328  1
  O  O178  1  0.37731849  0.76310546  -0.00241572  1
  O  O179  1  0.40689211  0.76993950  0.51015355  1
  O  O180  1  0.87179181  0.27421071  -0.00652825  1
  O  O181  1  0.88427137  0.26056796  0.51596387  1
  O  O182  1  0.85751268  0.73538258  0.01330678  1
  O  O183  1  0.85285202  0.75804562  0.50504255  1
  O  O184  1  0.11846216  0.25171235  0.50929916  1
  O  O185  1  0.09989652  0.21302203  0.97848070  1
  O  O186  1  0.15264636  0.75163415  0.50247210  1
  O  O187  1  0.14471434  0.75077444  1.00645618  1
  O  O188  1  0.62741502  0.24666238  0.48951100  1
  O  O189  1  0.62926637  0.25415151  0.98163646  1
  O  O190  1  0.61258546  0.72994622  0.48170463  1
  O  O191  1  0.63190103  0.74480395  0.98586892  1
  O  O192  1  0.50511124  0.24429101  0.12918170  1
  O  O193  1  0.50380763  0.25181971  0.64221687  1
  O  O194  1  0.51203495  0.73868539  0.13522246  1
  O  O195  1  0.45825419  0.74976546  0.56764433  1
  O  O196  1  1.03424106  0.21024947  0.14994602  1
  O  O197  1  0.98238203  0.25854839  0.64152506  1
  O  O198  1  0.97993071  0.74574505  0.12656373  1
  O  O199  1  1.00854177  0.72674403  0.61634426  1
  O  O200  1  -0.01318915  0.26770283  0.38043610  1
  O  O201  1  -0.01135431  0.26957924  0.85814469  1
  O  O202  1  -0.01913505  0.74570008  0.36910955  1
  O  O203  1  -0.05135851  0.78237861  0.85211546  1
  O  O204  1  0.50485657  0.26172384  0.38238997  1
  O  O205  1  0.52049916  0.25210919  0.85755742  1
  O  O206  1  0.50469196  0.73971418  0.35529318  1
  O  O207  1  0.51266959  0.75349331  0.87016297  1
  O  O208  1  0.24095057  0.14444756  0.49537940  1
  O  O209  1  0.24958059  0.12977852  0.97503024  1
  O  O210  1  0.27937501  0.64706827  0.52935195  1
  O  O211  1  0.28315705  0.63348747  0.98551389  1
  O  O212  1  0.78463962  0.11500501  0.47471174  1
  O  O213  1  0.74551753  0.12988392  1.00737677  1
  O  O214  1  0.73644527  0.61416756  0.48676792  1
  O  O215  1  0.73837193  0.63432493  0.99064619  1
  O  O216  1  0.19148324  0.34149254  -0.00569371  1
  O  O217  1  0.26135283  0.36546819  0.50962306  1
  O  O218  1  0.26095157  0.85496855  -0.01088389  1
  O  O219  1  0.26802282  0.86985787  0.50427936  1
  O  O220  1  0.74476227  0.37426961  -0.00174634  1
  O  O221  1  0.75900825  0.38041650  0.51170254  1
  O  O222  1  0.74687671  0.85666030  -0.00163760  1
  O  O223  1  0.75789829  0.84949743  0.50393565  1
  O  O224  1  0.14536642  0.51144306  0.28248652  1
  O  O225  1  0.12101123  0.48615219  0.73250732  1
  O  O226  1  0.10995770  0.98938967  0.24479250  1
  O  O227  1  0.13009912  1.04685495  0.69278026  1
  O  O228  1  0.63316495  0.48816513  0.25732034  1
  O  O229  1  0.61938621  0.48416173  0.75163482  1
  O  O230  1  0.65522119  1.00184651  0.25007295  1
  O  O231  1  0.63183491  0.99789024  0.73615741  1
  O  O232  1  0.28647176  0.02294829  0.17922535  1
  O  O233  1  0.39229396  0.01625075  0.75606306  1
  O  O234  1  0.38179118  0.47622521  0.27870510  1
  O  O235  1  0.44809282  0.46788906  0.83647459  1
  O  O236  1  0.86845973  0.00230933  0.24057361  1
  O  O237  1  0.86198197  0.01605597  0.74423679  1
  O  O238  1  0.85771710  0.50681353  0.25412847  1
  O  O239  1  0.87261801  0.48983945  0.76759061  1
  O  O240  1  0.10303677  0.37978290  0.38535048  1
  O  O241  1  0.10861320  0.38709644  0.85723083  1
  O  O242  1  0.14701029  0.86615869  0.35018336  1
  O  O243  1  0.11847315  0.86321168  0.87187773  1
  O  O244  1  0.61598904  0.36512878  0.37967984  1
  O  O245  1  0.63071691  0.36827095  0.85660274  1
  O  O246  1  0.62254461  0.84896603  0.38718531  1
  O  O247  1  0.63210250  0.86253554  0.86370569  1
  O  O248  1  0.40425071  0.11463734  0.11129997  1
  O  O249  1  0.37305015  0.12354657  0.64007708  1
  O  O250  1  0.44281551  0.55624796  0.12429790  1
  O  O251  1  0.37862223  0.55210864  0.68564994  1
  O  O252  1  0.89536580  0.11893708  0.13351732  1
  O  O253  1  0.87009566  0.14059852  0.62917608  1
  O  O254  1  0.85885409  0.62643616  0.13371918  1
  O  O255  1  0.88706063  0.62020258  0.62136668  1
  O  O256  1  0.23123189  0.22717149  0.08493635  1
  O  O257  1  0.24188924  0.26265162  0.61302990  1
  O  O258  1  0.25910904  0.72474886  0.10836627  1
  O  O259  1  0.26541687  0.77483649  0.61543967  1
  O  O260  1  0.79250612  0.24321462  0.17121476  1
  O  O261  1  0.76577934  0.26334268  0.62749567  1
  O  O262  1  0.74674079  0.75285716  0.11262296  1
  O  O263  1  0.78107525  0.76306978  0.63699716  1
  O  O264  1  0.23378247  0.26644142  0.39991903  1
  O  O265  1  0.23553064  0.23606807  0.87873931  1
  O  O266  1  0.29046817  0.74832445  0.40519131  1
  O  O267  1  0.26110413  0.72619060  0.88658908  1
  O  O268  1  0.74387495  0.25610466  0.38192849  1
  O  O269  1  0.73544266  0.25204735  0.85975889  1
  O  O270  1  0.75143486  0.72871861  0.37332909  1
  O  O271  1  0.75686402  0.74033401  0.88755792  1
  O  O272  1  -0.00168624  0.10750813  -0.03034698  1
  O  O273  1  -0.00853363  0.08750977  0.48522753  1
  O  O274  1  0.00457199  0.64376169  -0.00832820  1
  O  O275  1  -0.01011330  0.60751775  0.49329277  1
  O  O276  1  0.52236643  0.13541287  0.00792616  1
  O  O277  1  0.50145750  0.11877036  0.49345050  1
  O  O278  1  0.50969222  0.62937573  -0.01434292  1
  O  O279  1  0.51227826  0.60859673  0.50700591  1
  O  O280  1  0.49739919  0.37824343  0.50231266  1
  O  O281  1  0.49286482  0.37755628  0.99057375  1
  O  O282  1  0.49701190  0.89694268  0.50262226  1
  O  O283  1  0.49863196  0.86737606  0.99557790  1
  O  O284  1  0.98325165  0.38652409  0.49289057  1
  O  O285  1  1.01424304  0.36475940  0.98487503  1
  O  O286  1  1.00432292  0.88215964  0.52629306  1
  O  O287  1  1.00309513  0.87676212  0.98550505  1
  O  O288  1  0.49693212  0.48440197  0.39137866  1
  O  O289  1  0.50173145  0.49797421  0.87645089  1
  O  O290  1  0.52383501  1.00359480  0.38816641  1
  O  O291  1  0.50075357  1.00692109  0.87291794  1
  O  O292  1  0.98062035  0.49351156  0.37711493  1
  O  O293  1  0.98570327  0.48908546  0.87669942  1
  O  O294  1  0.96950032  0.95798587  0.40860931  1
  O  O295  1  1.00456115  0.97852986  0.86528031  1
  O  O296  1  0.00257960  -0.02350675  0.10773316  1
  O  O297  1  -0.00762237  -0.00117674  0.61178682  1
  O  O298  1  0.00480329  0.51308620  0.14925804  1
  O  O299  1  0.00562241  0.50372555  0.61579619  1
  O  O300  1  0.51821705  0.02738248  0.15628631  1
  O  O301  1  0.52407695  0.00861297  0.61582686  1
  O  O302  1  0.49761491  0.55068268  0.17400041  1
  O  O303  1  0.51326264  0.48781989  0.61232038  1
  O  O304  1  0.24742764  0.38084200  0.25455855  1
  O  O305  1  0.22998340  0.35968103  0.74296968  1
  O  O306  1  0.24933717  0.89295625  0.24180659  1
  O  O307  1  0.28333284  0.89173600  0.72512907  1
  O  O308  1  0.73918304  0.38793904  0.25087483  1
  O  O309  1  0.74262864  0.37570565  0.73940056  1
  O  O310  1  0.76157822  0.88909966  0.22552396  1
  O  O311  1  0.74086330  0.89262283  0.74827944  1
  O  O312  1  0.23812339  0.16278914  0.27207826  1
  O  O313  1  0.27679318  0.13817002  0.76278328  1
  O  O314  1  0.17937528  0.65602626  0.35738348  1
  O  O315  1  0.25875960  0.62264619  0.76302916  1
  O  O316  1  0.76795111  0.10428531  0.25255004  1
  O  O317  1  0.75790796  0.11884444  0.74664051  1
  O  O318  1  0.74833538  0.61251361  0.25900926  1
  O  O319  1  0.74960304  0.63550675  0.76433211  1
  O  O320  1  0.34303437  0.14349820  0.37967543  1
  O  O321  1  0.37793450  0.11309192  0.87017664  1
  O  O322  1  0.39005519  0.60272632  0.37636962  1
  O  O323  1  0.38128356  0.61294596  0.85529490  1
  O  O324  1  0.83372659  0.12183176  0.41811030  1
  O  O325  1  0.86398899  0.13849287  0.86384183  1
  O  O326  1  0.85601454  0.61349324  0.37115826  1
  O  O327  1  0.86555242  0.61437068  0.87813519  1
  O  O328  1  0.14459807  0.43847802  0.13145941  1
  O  O329  1  0.12656953  0.37960476  0.63246226  1
  O  O330  1  0.12352809  0.84001032  0.15767077  1
  O  O331  1  0.15154298  0.87530239  0.62852869  1
  O  O332  1  0.61391200  0.37121941  0.14193150  1
  O  O333  1  0.64107643  0.36875990  0.63296237  1
  O  O334  1  0.64438399  0.88121758  0.11509049  1
  O  O335  1  0.62391012  0.85772042  0.63431802  1
  O  O336  1  0.08175739  0.27579769  0.16208755  1
  O  O337  1  0.10647473  0.25199304  0.74266691  1
  O  O338  1  0.09074085  0.72060117  0.25585941  1
  O  O339  1  0.24315098  0.77881424  0.82581050  1
  O  O340  1  0.63765476  0.26732264  0.26057599  1
  O  O341  1  0.61751845  0.25943455  0.75413685  1
  O  O342  1  0.64425175  0.75145006  0.26485499  1
  O  O343  1  0.63032055  0.76339003  0.75904915  1
  O  O344  1  0.38052124  0.27406804  0.24309060  1
  O  O345  1  0.39074916  0.24916019  0.75990436  1
  O  O346  1  0.39904790  0.74474435  0.20319869  1
  O  O347  1  0.37802915  0.73188039  0.73785243  1
  O  O348  1  0.84853556  0.23259721  0.23022641  1
  O  O349  1  0.87630216  0.24228226  0.74265901  1
  O  O350  1  0.86337164  0.73458904  0.23673516  1
  O  O351  1  0.83958386  0.79508027  0.67928777  1
  O  O352  1  0.39087797  0.49322840  0.50066374  1
  O  O353  1  0.34570651  0.44204493  1.04748764  1
  O  O354  1  0.39701900  1.00668111  0.49592124  1
  O  O355  1  0.39143204  0.99622599  0.98621369  1
  O  O356  1  0.87563723  0.49188832  0.49071734  1
  O  O357  1  0.86356528  0.48500376  0.98211485  1
  O  O358  1  0.88707474  0.98548419  0.52014499  1
  O  O359  1  0.91230918  1.02377478  0.98033420  1
  O  O360  1  0.11405736  -0.00684972  -0.00983596  1
  O  O361  1  0.09587541  -0.01229722  0.49429641  1
  O  O362  1  0.10867256  0.50186053  -0.00411727  1
  O  O363  1  0.11236988  0.49073882  0.50932538  1
  O  O364  1  0.63299159  0.01952198  -0.00372287  1
  O  O365  1  0.62749911  0.00252119  0.51074292  1
  O  O366  1  0.62246192  0.51823696  -0.01669075  1
  O  O367  1  0.61719362  0.51071409  0.49449657  1
  O  O368  1  0.35875050  0.37825806  0.09987648  1
  O  O369  1  0.36299891  0.38540616  0.61998014  1
  O  O370  1  0.38079150  0.89296648  0.09614184  1
  O  O371  1  0.37459187  0.89224893  0.60384196  1
  O  O372  1  0.86558141  0.38564802  0.10609749  1
  O  O373  1  0.86544949  0.37294851  0.62035807  1
  O  O374  1  0.86346416  0.85246313  0.12126444  1
  O  O375  1  0.87367553  0.85588025  0.64136490  1
  O  O376  1  0.13170347  0.12833883  0.36840038  1
  O  O377  1  0.15008676  0.10297569  0.84631377  1
  O  O378  1  0.13273771  0.62557191  0.40239780  1
  O  O379  1  0.14557108  0.61940383  0.87210961  1
  O  O380  1  0.62517971  0.14811099  0.35992591  1
  O  O381  1  0.62912840  0.13707430  0.88636134  1
  O  O382  1  0.63118588  0.62928179  0.37589066  1
  O  O383  1  0.63770268  0.64182580  0.87637831  1
