# generated using pymatgen
data_VZnO4
_symmetry_space_group_name_H-M   'P 1'
_cell_length_a   16.88223700
_cell_length_b   16.85680494
_cell_length_c   16.88633033
_cell_angle_alpha   89.97994935
_cell_angle_beta   89.67423632
_cell_angle_gamma   90.02252543
_symmetry_Int_Tables_number   1
_chemical_formula_structural   VZnO4
_chemical_formula_sum   'V64 Zn64 O256'
_cell_volume   4805.44327060
_cell_formula_units_Z   64
loop_
 _symmetry_equiv_pos_site_id
 _symmetry_equiv_pos_as_xyz
  1  'x, y, z'
loop_
 _atom_site_type_symbol
 _atom_site_label
 _atom_site_symmetry_multiplicity
 _atom_site_fract_x
 _atom_site_fract_y
 _atom_site_fract_z
 _atom_site_occupancy
  V  V0  1  0.86940941  0.51002477  0.86804033  1
  V  V1  1  0.37623385  0.86661548  0.48930407  1
  V  V2  1  0.87921952  0.86538907  -0.00002491  1
  V  V3  1  0.85714710  0.12226050  0.23237957  1
  V  V4  1  0.36900543  0.35587539  0.51305902  1
  V  V5  1  0.11883330  0.36840257  0.27224955  1
  V  V6  1  0.02538716  0.48933008  0.50655094  1
  V  V7  1  0.88354240  -0.01265355  0.87887104  1
  V  V8  1  0.74854899  0.27306869  -0.03081210  1
  V  V9  1  0.12768944  0.37440268  0.74292717  1
  V  V10  1  0.51200107  0.01105468  0.50919707  1
  V  V11  1  0.00718552  0.50981445  0.00926666  1
  V  V12  1  -0.00239624  0.24559836  0.75440952  1
  V  V13  1  0.61607789  0.25825846  0.39346681  1
  V  V14  1  0.63424715  0.10324192  -0.02160713  1
  V  V15  1  0.74235339  0.85374191  0.62344305  1
  V  V16  1  0.57574127  0.50296191  0.62647036  1
  V  V17  1  0.12571290  0.23497967  0.88997192  1
  V  V18  1  0.03536141  0.62650405  0.62227926  1
  V  V19  1  0.74452830  0.63514576  0.37754529  1
  V  V20  1  0.01933880  0.11600037  0.11313651  1
  V  V21  1  0.60192637  0.74818787  0.87741910  1
  V  V22  1  0.22905283  0.37622973  0.10788883  1
  V  V23  1  0.51859669  0.87401529  0.36025286  1
  V  V24  1  0.62799444  0.36943632  0.74727221  1
  V  V25  1  0.24170285  0.23895854  0.46619653  1
  V  V26  1  -0.00406882  0.37833622  0.88390081  1
  V  V27  1  0.86864970  0.12107022  0.76142793  1
  V  V28  1  0.50840627  0.72757448  0.25011647  1
  V  V29  1  0.63121475  -0.00237863  0.14676444  1
  V  V30  1  0.88398080  0.25609558  0.61423101  1
  V  V31  1  0.24246723  0.88069030  0.13008427  1
  V  V32  1  0.02526638  0.74784073  0.75602584  1
  V  V33  1  0.27645767  0.00897315  0.73870087  1
  V  V34  1  0.38103183  0.26890370  0.12433248  1
  V  V35  1  0.49208825  0.74305798  0.71842436  1
  V  V36  1  0.00828333  0.10980586  0.62608467  1
  V  V37  1  0.86471978  0.01485607  0.38348544  1
  V  V38  1  0.25465229  0.50300082  0.25419681  1
  V  V39  1  0.88751587  0.62805185  0.25498086  1
  V  V40  1  0.37800836  0.01672675  0.36216305  1
  V  V41  1  0.74487604  0.86902526  0.12973586  1
  V  V42  1  0.36903384  0.49768342  0.89037073  1
  V  V43  1  0.24633565  0.63516577  0.86621390  1
  V  V44  1  0.25527700  0.49034675  0.74289130  1
  V  V45  1  0.37910375  0.74023086  0.12385676  1
  V  V46  1  0.74415835  0.73653477  -0.01253160  1
  V  V47  1  0.86602873  0.63146237  0.74070041  1
  V  V48  1  0.49745256  0.36466009  0.87661446  1
  V  V49  1  0.86897809  0.48427442  0.39125470  1
  V  V50  1  0.50678044  0.12510241  0.12523372  1
  V  V51  1  0.48491685  0.38462992  0.36137110  1
  V  V52  1  0.88149092  0.84541048  0.50542300  1
  V  V53  1  0.13118647  0.89030966  0.75410320  1
  V  V54  1  0.23694350  0.01337207  0.24839052  1
  V  V55  1  0.62370194  0.63564333  0.51162941  1
  V  V56  1  0.38962274  0.88791515  0.00215569  1
  V  V57  1  0.12497427  0.65599527  -0.00365318  1
  V  V58  1  0.12134404  0.11001248  0.48293943  1
  V  V59  1  0.27386889  0.11649971  0.88139666  1
  V  V60  1  0.00400754  0.23986847  0.25599505  1
  V  V61  1  0.25345303  0.86285298  0.61637902  1
  V  V62  1  0.51728931  0.51507144  0.00586516  1
  V  V63  1  0.73654569  -0.01031562  0.74726827  1
  Zn  Zn64  1  0.19031282  0.19321057  0.18098779  1
  Zn  Zn65  1  0.17816182  0.17528168  0.70553442  1
  Zn  Zn66  1  0.20752213  0.67962322  0.17024254  1
  Zn  Zn67  1  0.24648158  0.64974138  0.64670759  1
  Zn  Zn68  1  0.65486668  0.17592211  0.24137871  1
  Zn  Zn69  1  0.68728374  0.19137731  0.80889836  1
  Zn  Zn70  1  0.71470709  0.70472363  0.20608029  1
  Zn  Zn71  1  0.66991034  0.67930558  0.70620667  1
  Zn  Zn72  1  0.31311141  0.30818176  0.29724622  1
  Zn  Zn73  1  0.30653864  0.31052412  0.83210121  1
  Zn  Zn74  1  0.32939133  0.82516013  0.29689258  1
  Zn  Zn75  1  0.32727186  0.82371242  0.80609618  1
  Zn  Zn76  1  0.84202559  0.30004044  0.32438255  1
  Zn  Zn77  1  0.81578139  0.33264881  0.78969677  1
  Zn  Zn78  1  0.81830246  0.81671318  0.32317481  1
  Zn  Zn79  1  0.81398425  0.80587972  0.80757093  1
  Zn  Zn80  1  0.22019695  0.44568045  0.45542661  1
  Zn  Zn81  1  0.17824934  0.43771120  0.93063373  1
  Zn  Zn82  1  0.19360975  0.94073152  0.43141132  1
  Zn  Zn83  1  0.22786135  0.92720955  0.92699339  1
  Zn  Zn84  1  0.65549994  0.46921630  0.42031167  1
  Zn  Zn85  1  0.68090190  0.44936186  0.92761876  1
  Zn  Zn86  1  0.69695405  0.93545243  0.44457445  1
  Zn  Zn87  1  0.69463872  0.92163192  0.92408038  1
  Zn  Zn88  1  0.31637791  0.06415506  0.06745071  1
  Zn  Zn89  1  0.30097540  0.04790858  0.53874480  1
  Zn  Zn90  1  0.29366061  0.56071467  0.05992199  1
  Zn  Zn91  1  0.36306914  0.51997398  0.57587218  1
  Zn  Zn92  1  0.80674832  0.06180512  0.05907333  1
  Zn  Zn93  1  0.81214162  0.06910632  0.57766325  1
  Zn  Zn94  1  0.82835972  0.56217473  0.06144708  1
  Zn  Zn95  1  0.82937436  0.59258504  0.55116205  1
  Zn  Zn96  1  0.43332789  0.45176232  0.18364508  1
  Zn  Zn97  1  0.42661970  0.41296290  0.69981515  1
  Zn  Zn98  1  0.44154560  0.93951278  0.18050105  1
  Zn  Zn99  1  0.43882543  0.92282591  0.67928576  1
  Zn  Zn100  1  0.97473947  0.46128670  0.21640361  1
  Zn  Zn101  1  0.94411357  0.44374810  0.68230963  1
  Zn  Zn102  1  0.92533177  0.95025125  0.17737056  1
  Zn  Zn103  1  0.93107139  0.92835802  0.68671504  1
  Zn  Zn104  1  0.04407772  0.04633469  0.30600096  1
  Zn  Zn105  1  0.06540641  0.04704461  0.94247506  1
  Zn  Zn106  1  0.06853403  0.55767191  0.32368495  1
  Zn  Zn107  1  0.06856026  0.56213528  0.81069942  1
  Zn  Zn108  1  0.56415935  0.06752464  0.32307478  1
  Zn  Zn109  1  0.55714997  0.07589629  0.79153005  1
  Zn  Zn110  1  0.51671918  0.59130325  0.37577429  1
  Zn  Zn111  1  0.54195973  0.57465224  0.80706130  1
  Zn  Zn112  1  0.43997692  0.19226997  0.44069375  1
  Zn  Zn113  1  0.43869965  0.18156027  0.95598117  1
  Zn  Zn114  1  0.42992737  0.68093689  0.54491994  1
  Zn  Zn115  1  0.42311307  0.68713646  0.94090900  1
  Zn  Zn116  1  0.93623950  0.17004781  0.43692223  1
  Zn  Zn117  1  0.92572983  0.18970416  0.95047366  1
  Zn  Zn118  1  0.94328362  0.66532690  0.44103716  1
  Zn  Zn119  1  0.94037837  0.69085638  0.93055314  1
  Zn  Zn120  1  0.04881976  0.30601334  0.06937894  1
  Zn  Zn121  1  0.07132855  0.30264339  0.55613429  1
  Zn  Zn122  1  0.09260483  0.86691508  0.01861069  1
  Zn  Zn123  1  0.04871560  0.83429660  0.59237091  1
  Zn  Zn124  1  0.55594090  0.29720724  0.03137021  1
  Zn  Zn125  1  0.56198607  0.31487845  0.56170027  1
  Zn  Zn126  1  0.56298554  0.80567087  0.06564982  1
  Zn  Zn127  1  0.56587315  0.82481692  0.55364769  1
  O  O128  1  0.11971064  0.12664448  0.11619895  1
  O  O129  1  0.11001724  0.12411726  0.63189303  1
  O  O130  1  0.13146956  0.64115457  0.09611204  1
  O  O131  1  0.13506319  0.62612758  0.62267686  1
  O  O132  1  0.63367093  0.09784524  0.10285437  1
  O  O133  1  0.53774799  0.17327701  0.65971740  1
  O  O134  1  0.68677459  0.53154904  0.14360262  1
  O  O135  1  0.61544153  0.61413928  0.62006329  1
  O  O136  1  0.38200686  0.35392809  0.37796896  1
  O  O137  1  0.38458183  0.38182150  0.87826013  1
  O  O138  1  0.38498155  0.88711770  0.37831009  1
  O  O139  1  0.34938399  0.87631796  0.90397192  1
  O  O140  1  0.87849779  0.38321467  0.38789499  1
  O  O141  1  0.89117834  0.38956151  0.86040518  1
  O  O142  1  0.86886552  0.87763266  0.40410096  1
  O  O143  1  0.87408021  0.87899392  0.88187784  1
  O  O144  1  0.26714745  -0.00006181  0.36074807  1
  O  O145  1  0.26089094  0.01047425  0.85454894  1
  O  O146  1  0.23163728  0.49374852  0.35341803  1
  O  O147  1  0.25645794  0.50087042  0.87149417  1
  O  O148  1  0.76656813  -0.01727646  0.36754845  1
  O  O149  1  0.76430151  -0.01057301  0.85381766  1
  O  O150  1  0.76423740  0.49548360  0.38884044  1
  O  O151  1  0.77123653  0.50063642  0.87474942  1
  O  O152  1  0.24957219  0.48228636  0.13432886  1
  O  O153  1  0.25948154  0.49042487  0.64407686  1
  O  O154  1  0.25339283  0.99498213  0.13739448  1
  O  O155  1  0.25974895  1.00361497  0.63478087  1
  O  O156  1  0.74438003  0.48666425  0.10812076  1
  O  O157  1  0.76547018  0.43355911  0.58183722  1
  O  O158  1  0.73886781  0.98304318  0.11669985  1
  O  O159  1  0.75380944  1.00049038  0.64435546  1
  O  O160  1  0.00481459  0.35030746  0.24468746  1
  O  O161  1  0.01014175  0.36600038  0.75650729  1
  O  O162  1  -0.02269046  0.86644644  0.24551739  1
  O  O163  1  0.02015745  0.86346163  0.72977660  1
  O  O164  1  0.49032229  0.38586924  0.26071736  1
  O  O165  1  0.50216895  0.36765072  0.76789494  1
  O  O166  1  0.51050308  0.88721572  0.25970158  1
  O  O167  1  0.50210889  0.92608002  0.84860992  1
  O  O168  1  0.54456436  0.14312928  0.22313110  1
  O  O169  1  0.49223499  0.13231935  0.71329707  1
  O  O170  1  0.49579739  0.62966463  0.27126805  1
  O  O171  1  0.46804074  0.64900479  0.74518650  1
  O  O172  1  0.99957105  0.12819203  0.23479814  1
  O  O173  1  0.99125425  0.13679352  0.74414474  1
  O  O174  1  0.98928144  0.62296598  0.26534264  1
  O  O175  1  1.01355291  0.63249938  0.73920355  1
  O  O176  1  0.36248458  0.22080065  0.03244826  1
  O  O177  1  0.35072499  0.24268195  0.49707555  1
  O  O178  1  0.37797379  0.75937712  0.01899505  1
  O  O179  1  0.37787414  0.76765311  0.48247624  1
  O  O180  1  0.83963922  0.24080869  0.00446145  1
  O  O181  1  0.88726284  0.24522109  0.51467499  1
  O  O182  1  0.86503175  0.75804337  -0.00909200  1
  O  O183  1  0.88148461  0.74414163  0.49926827  1
  O  O184  1  0.13503317  0.23006229  0.49743640  1
  O  O185  1  0.11602946  0.25402721  0.98655388  1
  O  O186  1  0.12342754  0.86346514  0.37337060  1
  O  O187  1  0.11685673  0.75467714  0.98701329  1
  O  O188  1  0.63188589  0.25627979  0.49342047  1
  O  O189  1  0.65106985  0.23959194  0.99895860  1
  O  O190  1  0.62712065  0.73464970  0.50802172  1
  O  O191  1  0.63003456  0.74312312  0.98614939  1
  O  O192  1  0.49352739  0.24472075  0.11388833  1
  O  O193  1  0.49701226  0.22979755  0.62510713  1
  O  O194  1  0.49159467  0.74136344  0.13452234  1
  O  O195  1  0.49328019  0.75123646  0.61397256  1
  O  O196  1  0.99653560  0.22907313  0.13227533  1
  O  O197  1  0.99551947  0.24431019  0.63551596  1
  O  O198  1  1.00399910  0.80599059  0.19694474  1
  O  O199  1  1.01318327  0.73242788  0.63389501  1
  O  O200  1  -0.00264561  0.23157276  0.35681087  1
  O  O201  1  -0.00274814  0.25944872  0.87357250  1
  O  O202  1  0.05350525  0.71536553  0.39428174  1
  O  O203  1  0.00583432  0.74974759  0.85535337  1
  O  O204  1  0.51104685  0.26008229  0.37723983  1
  O  O205  1  0.49666333  0.26567001  0.89527560  1
  O  O206  1  0.50177070  0.76776733  0.35387074  1
  O  O207  1  0.50038828  0.74920072  0.87927159  1
  O  O208  1  0.23580098  0.13013481  0.49776053  1
  O  O209  1  0.25250740  0.10411216  0.97904029  1
  O  O210  1  0.26368558  0.64027888  0.42121967  1
  O  O211  1  0.23626326  0.63010331  0.98115651  1
  O  O212  1  0.73911414  0.17388680  0.58376373  1
  O  O213  1  0.73638812  0.11345440  0.98342339  1
  O  O214  1  0.73618188  0.61977536  0.49700847  1
  O  O215  1  0.76088597  0.63978903  1.00760094  1
  O  O216  1  0.23995689  0.38017597  0.00790230  1
  O  O217  1  0.24469818  0.33990910  0.49835696  1
  O  O218  1  0.26604439  0.87953177  0.02665028  1
  O  O219  1  0.26056090  0.87994933  0.50487640  1
  O  O220  1  0.74410816  0.37207262  -0.01336898  1
  O  O221  1  0.74863727  0.38345118  0.53237819  1
  O  O222  1  0.75544379  0.85877994  0.00244588  1
  O  O223  1  0.76184127  0.87010843  0.51595634  1
  O  O224  1  0.09302564  0.47228984  0.25147660  1
  O  O225  1  0.13220065  0.48072610  0.75317036  1
  O  O226  1  0.13853927  0.99932488  0.26116169  1
  O  O227  1  0.13720595  0.98840369  0.74636666  1
  O  O228  1  0.63861591  0.49481501  0.18772280  1
  O  O229  1  0.60005924  0.50576420  0.72927760  1
  O  O230  1  0.63679083  1.00851370  0.24527433  1
  O  O231  1  0.63704121  1.00297614  0.75460729  1
  O  O232  1  0.38374287  0.00310539  0.26052366  1
  O  O233  1  0.37634685  -0.00100652  0.74334546  1
  O  O234  1  0.35496308  0.50656945  0.25003174  1
  O  O235  1  0.35901304  0.48492579  0.76408696  1
  O  O236  1  0.86737058  0.01734173  0.25211158  1
  O  O237  1  0.87611029  0.00967673  0.75646073  1
  O  O238  1  0.89013360  0.50626807  0.28284904  1
  O  O239  1  0.88788178  0.51237153  0.75880965  1
  O  O240  1  0.12199672  0.36468367  0.36844054  1
  O  O241  1  0.11051492  0.36263835  0.86901517  1
  O  O242  1  0.16412871  0.81501714  0.32608930  1
  O  O243  1  0.14909466  0.87225854  0.85123237  1
  O  O244  1  0.59732474  0.37645786  0.38937648  1
  O  O245  1  0.61048298  0.39023011  0.85581067  1
  O  O246  1  0.61575584  0.87788654  0.38141752  1
  O  O247  1  0.63093607  0.84738868  0.86334355  1
  O  O248  1  0.40845359  0.10814372  0.13236532  1
  O  O249  1  0.33654144  0.22078767  0.68292894  1
  O  O250  1  0.35243200  0.64170410  0.11994125  1
  O  O251  1  0.34141208  0.62741611  0.58815788  1
  O  O252  1  0.88084823  0.11471748  0.12913402  1
  O  O253  1  0.88867089  0.13514539  0.63910967  1
  O  O254  1  0.86740248  0.60889090  0.15719772  1
  O  O255  1  0.89068299  0.61862295  0.63956866  1
  O  O256  1  0.25669044  0.27338120  0.12982260  1
  O  O257  1  0.26459096  0.24862789  0.66184308  1
  O  O258  1  0.26877924  0.77018675  0.14921784  1
  O  O259  1  0.26111560  0.76557103  0.63078904  1
  O  O260  1  0.69557343  0.29803984  0.14026173  1
  O  O261  1  0.76717983  0.23575147  0.62008579  1
  O  O262  1  0.73654450  0.76060681  0.10779810  1
  O  O263  1  0.73955125  0.75475080  0.63897214  1
  O  O264  1  0.24481904  0.24005687  0.36731056  1
  O  O265  1  0.23539297  0.22854822  0.87182363  1
  O  O266  1  0.22916009  0.78309209  0.35775298  1
  O  O267  1  0.26657538  0.73062810  0.84570895  1
  O  O268  1  0.72768516  0.28411992  0.35359465  1
  O  O269  1  0.75668937  0.26320471  0.86486318  1
  O  O270  1  0.74041574  0.73441614  0.37715386  1
  O  O271  1  0.74824350  0.74561160  0.88452570  1
  O  O272  1  -0.00199103  0.12113095  0.00624376  1
  O  O273  1  0.01238254  0.12561466  0.51608526  1
  O  O274  1  0.01495508  0.62055662  -0.01103608  1
  O  O275  1  0.01219524  0.61859528  0.51902364  1
  O  O276  1  0.52531422  0.13070233  0.01307097  1
  O  O277  1  0.49392729  0.11135453  0.50414920  1
  O  O278  1  0.48949902  0.61197416  -0.00476843  1
  O  O279  1  0.51608256  0.62723745  0.48692003  1
  O  O280  1  0.47209612  0.35542684  0.49988670  1
  O  O281  1  0.51564537  0.39445785  0.98063782  1
  O  O282  1  0.49071124  0.88317041  0.48598953  1
  O  O283  1  0.49031316  0.86906240  1.00198456  1
  O  O284  1  1.00881682  0.38970472  0.51745560  1
  O  O285  1  0.99733739  0.38211693  0.98813190  1
  O  O286  1  0.98104362  0.87219736  0.51357617  1
  O  O287  1  0.97780167  0.86660287  1.01035082  1
  O  O288  1  0.48269195  0.48296872  0.38715206  1
  O  O289  1  0.48038782  0.50179302  0.87969384  1
  O  O290  1  0.49565161  0.99525548  0.37999317  1
  O  O291  1  0.49064463  0.99629977  0.86762500  1
  O  O292  1  0.99575706  0.51188345  0.40325129  1
  O  O293  1  1.00376150  0.48741695  0.87750751  1
  O  O294  1  0.96704714  0.99183670  0.36610906  1
  O  O295  1  0.98272079  0.99610390  0.87465237  1
  O  O296  1  0.00564661  0.01374186  0.12713525  1
  O  O297  1  -0.00625752  0.01225955  0.63299844  1
  O  O298  1  -0.01272548  0.49589242  0.10611671  1
  O  O299  1  0.01198791  0.51249823  0.61967531  1
  O  O300  1  0.52257245  0.00771405  0.13028213  1
  O  O301  1  0.50039136  -0.01343506  0.60883952  1
  O  O302  1  0.50118280  0.49591725  0.10449758  1
  O  O303  1  0.47278017  0.50144481  0.62433828  1
  O  O304  1  0.22942466  0.38259460  0.24544558  1
  O  O305  1  0.23512249  0.37793890  0.76731018  1
  O  O306  1  0.26209911  0.89743020  0.23888958  1
  O  O307  1  0.25470676  0.88806847  0.73387211  1
  O  O308  1  0.80346883  0.37416580  0.20538542  1
  O  O309  1  0.72755574  0.39068522  0.74454726  1
  O  O310  1  0.75856602  0.85653700  0.22863776  1
  O  O311  1  0.75751468  0.88183587  0.73752308  1
  O  O312  1  0.25079957  0.11333087  0.23714330  1
  O  O313  1  0.25642581  0.11306550  0.75838209  1
  O  O314  1  0.21312703  0.59864974  0.24477248  1
  O  O315  1  0.24218447  0.60022408  0.75802417  1
  O  O316  1  0.75884993  0.13850647  0.22587825  1
  O  O317  1  0.76396540  0.11798037  0.75210447  1
  O  O318  1  0.74921558  0.61798047  0.27200197  1
  O  O319  1  0.76693126  0.62792282  0.74118240  1
  O  O320  1  0.38574944  0.11574145  0.37169312  1
  O  O321  1  0.37295380  0.13214462  0.87578145  1
  O  O322  1  0.32176913  0.64231806  0.37777646  1
  O  O323  1  0.35788540  0.60855284  0.87951678  1
  O  O324  1  0.86560797  0.12246073  0.35680054  1
  O  O325  1  0.87973697  0.11643080  0.86462670  1
  O  O326  1  0.85824226  0.61816538  0.37858190  1
  O  O327  1  0.88571607  0.61673470  0.85847196  1
  O  O328  1  0.12763895  0.37059142  0.12368212  1
  O  O329  1  0.12891272  0.35608635  0.64552458  1
  O  O330  1  0.14315572  0.86702777  0.12616676  1
  O  O331  1  0.14801220  0.87605235  0.62725969  1
  O  O332  1  0.64191498  0.34783944  0.13606049  1
  O  O333  1  0.59746081  0.39165087  0.63877428  1
  O  O334  1  0.63241488  0.88636475  0.12062919  1
  O  O335  1  0.64316259  0.87848975  0.61693040  1
  O  O336  1  0.11515543  0.25550566  0.24648094  1
  O  O337  1  0.11374092  0.25367433  0.76585100  1
  O  O338  1  0.05109217  0.75792445  0.22859458  1
  O  O339  1  0.12420063  0.75819714  0.74860025  1
  O  O340  1  0.67354206  0.28896168  0.28910036  1
  O  O341  1  0.62914034  0.26803148  0.74373228  1
  O  O342  1  0.60873025  0.73813576  0.23370929  1
  O  O343  1  0.59043991  0.76082326  0.74177670  1
  O  O344  1  0.37209793  0.24275866  0.22360713  1
  O  O345  1  0.37169574  0.25687747  0.74203903  1
  O  O346  1  0.39514352  0.75437133  0.23807403  1
  O  O347  1  0.42684803  0.82417184  0.74564048  1
  O  O348  1  0.88749869  0.23332261  0.24729747  1
  O  O349  1  0.88059466  0.23953390  0.74956811  1
  O  O350  1  0.86934110  0.72937778  0.26566154  1
  O  O351  1  0.88901503  0.73523415  0.75283449  1
  O  O352  1  0.33636456  0.45621579  0.48779164  1
  O  O353  1  0.36788676  0.49698352  0.99123199  1
  O  O354  1  0.38300663  0.99505719  0.48214844  1
  O  O355  1  0.38609190  0.98940816  1.01151159  1
  O  O356  1  0.88498546  0.50684024  0.49653041  1
  O  O357  1  0.89465705  0.51418043  0.97825452  1
  O  O358  1  0.86392217  1.03444993  0.48559599  1
  O  O359  1  0.86336907  0.98746726  0.98346801  1
  O  O360  1  0.13096585  -0.03431658  -0.02085051  1
  O  O361  1  0.13499450  0.01026659  0.50163026  1
  O  O362  1  0.10868018  0.50143767  -0.00290171  1
  O  O363  1  0.12533243  0.49649494  0.49638573  1
  O  O364  1  0.62404492  0.00271963  -0.02928179  1
  O  O365  1  0.61165757  0.00125358  0.49120716  1
  O  O366  1  0.61790478  0.51888746  -0.00892191  1
  O  O367  1  0.61695745  0.50044236  0.52895438  1
  O  O368  1  0.37440930  0.37129485  0.11795532  1
  O  O369  1  0.36963551  0.36394404  0.61432965  1
  O  O370  1  0.37806214  0.86808690  0.11907265  1
  O  O371  1  0.36623517  0.88121559  0.59897322  1
  O  O372  1  0.85322646  0.38617624  0.15285180  1
  O  O373  1  0.87936428  0.35467185  0.64222403  1
  O  O374  1  0.85694525  0.88397806  0.10722818  1
  O  O375  1  0.86248300  0.87208072  0.61517228  1
  O  O376  1  0.10860859  0.11157652  0.38529907  1
  O  O377  1  0.11263878  0.13520119  0.87901291  1
  O  O378  1  0.10810349  0.66721791  0.37437062  1
  O  O379  1  0.13796672  0.62526530  0.87809686  1
  O  O380  1  0.62802401  0.15652570  0.36124225  1
  O  O381  1  0.61347759  0.13156102  0.87401163  1
  O  O382  1  0.63739966  0.59713053  0.39633008  1
  O  O383  1  0.62441895  0.65115130  0.83802051  1
