# generated using pymatgen
data_VZnO4
_symmetry_space_group_name_H-M   'P 1'
_cell_length_a   16.90344790
_cell_length_b   16.93905317
_cell_length_c   16.89530829
_cell_angle_alpha   89.99533585
_cell_angle_beta   90.09477839
_cell_angle_gamma   90.32992984
_symmetry_Int_Tables_number   1
_chemical_formula_structural   VZnO4
_chemical_formula_sum   'V64 Zn64 O256'
_cell_volume   4837.51980148
_cell_formula_units_Z   64
loop_
 _symmetry_equiv_pos_site_id
 _symmetry_equiv_pos_as_xyz
  1  'x, y, z'
loop_
 _atom_site_type_symbol
 _atom_site_label
 _atom_site_symmetry_multiplicity
 _atom_site_fract_x
 _atom_site_fract_y
 _atom_site_fract_z
 _atom_site_occupancy
  V  V0  1  0.37356977  0.02168413  0.88326048  1
  V  V1  1  0.61576999  0.75225690  0.85745980  1
  V  V2  1  0.01345644  0.51535360  -0.00119352  1
  V  V3  1  0.38515098  0.73435616  0.12026292  1
  V  V4  1  0.75361006  0.75049488  0.49913630  1
  V  V5  1  0.75620586  0.20657742  0.00192886  1
  V  V6  1  0.13531049  0.26915202  0.37029385  1
  V  V7  1  0.52137423  0.36853921  0.34852066  1
  V  V8  1  0.61497412  0.88056649  0.25529658  1
  V  V9  1  0.83550560  0.75900454  0.08848520  1
  V  V10  1  0.27072947  0.38781219  0.65684712  1
  V  V11  1  0.62802930  0.21165987  0.88110916  1
  V  V12  1  0.12560185  0.74280052  0.85328588  1
  V  V13  1  0.00409780  0.00644347  0.49915586  1
  V  V14  1  0.87217141  0.37713317  0.51964009  1
  V  V15  1  0.89568515  0.62703518  0.75637391  1
  V  V16  1  0.11576877  0.48842741  0.61873671  1
  V  V17  1  0.24400387  0.85000436  0.61569235  1
  V  V18  1  0.87428678  0.48902592  0.88177637  1
  V  V19  1  -0.00569273  0.26651158  0.75658661  1
  V  V20  1  0.49644899  0.84419667  0.37691641  1
  V  V21  1  0.77428841  0.10004555  0.35547899  1
  V  V22  1  0.36836518  0.10433329  0.24721895  1
  V  V23  1  0.01577576  0.87552512  0.86745021  1
  V  V24  1  0.75125678  0.63341254  0.85534505  1
  V  V25  1  0.50429725  0.50670612  -0.01623460  1
  V  V26  1  0.24912534  0.62490523  0.36942481  1
  V  V27  1  0.50587500  0.61687002  0.58456774  1
  V  V28  1  0.88839012  0.76347323  0.63836442  1
  V  V29  1  0.88512346  0.11755134  0.77012407  1
  V  V30  1  0.33803985  0.13540090  0.73651524  1
  V  V31  1  0.25845035  0.62284842  0.89364919  1
  V  V32  1  0.50942393  0.61207813  0.15683556  1
  V  V33  1  0.24234736  0.11371191  0.36029500  1
  V  V34  1  -0.00287551  0.13210609  0.62619674  1
  V  V35  1  0.00332995  -0.00374152  -0.00370319  1
  V  V36  1  0.87360535  0.26059168  0.12010786  1
  V  V37  1  0.64130109  0.62506010  0.01138814  1
  V  V38  1  0.00181785  0.26730791  0.25357554  1
  V  V39  1  0.88452501  0.88769206  0.50146811  1
  V  V40  1  0.63236159  0.38675087  0.76050771  1
  V  V41  1  0.39245672  0.60522002  0.74067244  1
  V  V42  1  0.00118378  0.13072953  0.12932592  1
  V  V43  1  0.24317711  0.38779676  0.13777487  1
  V  V44  1  0.83348716  -0.05549621  0.93271816  1
  V  V45  1  0.00268283  0.64478194  0.14332260  1
  V  V46  1  0.64526764  0.50336342  0.59558681  1
  V  V47  1  0.36458298  0.87624943  0.49258684  1
  V  V48  1  0.64110561  0.23897529  0.35971219  1
  V  V49  1  0.38565498  0.38265312  -0.01028340  1
  V  V50  1  0.62411326  -0.00583890  0.11974123  1
  V  V51  1  0.13034434  -0.00094823  0.14030242  1
  V  V52  1  0.73702406  0.88063508  0.63314169  1
  V  V53  1  -0.00186894  0.62038684  0.59895791  1
  V  V54  1  0.25348821  0.25625912  -0.00354340  1
  V  V55  1  0.75147404  0.00556539  0.75333428  1
  V  V56  1  0.76404878  0.22400310  0.50384212  1
  V  V57  1  0.38210600  0.25849497  0.13512452  1
  V  V58  1  0.49199906  0.11261731  0.11408374  1
  V  V59  1  0.12491064  0.27646788  0.87109263  1
  V  V60  1  0.12973871  0.12896657  -0.01075427  1
  V  V61  1  0.00907789  0.88088144  0.35588582  1
  V  V62  1  0.14855822  0.01090494  0.63265831  1
  V  V63  1  0.13444527  0.13664226  0.49497297  1
  Zn  Zn64  1  0.18579568  0.19975614  0.18457721  1
  Zn  Zn65  1  0.17732429  0.22221115  0.67205740  1
  Zn  Zn66  1  0.18744071  0.67292162  0.16067651  1
  Zn  Zn67  1  0.16634826  0.65446735  0.69016839  1
  Zn  Zn68  1  0.69283344  0.17567746  0.18437390  1
  Zn  Zn69  1  0.71110157  0.21286907  0.70953821  1
  Zn  Zn70  1  0.72394438  0.75225375  0.23521550  1
  Zn  Zn71  1  0.68383003  0.68433820  0.67357544  1
  Zn  Zn72  1  0.33774427  0.36117006  0.30933713  1
  Zn  Zn73  1  0.32544992  0.30494022  0.81154631  1
  Zn  Zn74  1  0.32887164  0.80732795  0.29065988  1
  Zn  Zn75  1  0.28946084  0.79369073  0.79429507  1
  Zn  Zn76  1  0.81684702  0.30174377  0.31089875  1
  Zn  Zn77  1  0.79962296  0.30542834  0.81903638  1
  Zn  Zn78  1  0.86923893  0.77040523  0.34075854  1
  Zn  Zn79  1  0.81144384  0.81232869  0.81553930  1
  Zn  Zn80  1  0.04547156  0.44404621  0.43141629  1
  Zn  Zn81  1  0.19694469  0.44800259  0.94674156  1
  Zn  Zn82  1  0.18243134  0.93919400  0.43802624  1
  Zn  Zn83  1  0.17858551  0.92067651  0.96503032  1
  Zn  Zn84  1  0.72002912  0.41556688  0.42441880  1
  Zn  Zn85  1  0.68388129  0.45507904  0.92149367  1
  Zn  Zn86  1  0.72455793  0.89459927  0.38767377  1
  Zn  Zn87  1  0.65567270  0.91145709  0.96088118  1
  Zn  Zn88  1  0.30120915  0.06647368  0.06755406  1
  Zn  Zn89  1  0.33764781  0.07763780  0.53603044  1
  Zn  Zn90  1  0.32668179  0.56129557  0.07378532  1
  Zn  Zn91  1  0.30704452  0.55694808  0.56668367  1
  Zn  Zn92  1  0.82686217  0.04551075  0.10549263  1
  Zn  Zn93  1  0.81033394  0.06471405  0.57061424  1
  Zn  Zn94  1  0.84184869  0.56614499  0.07607601  1
  Zn  Zn95  1  0.81945691  0.56887147  0.56157742  1
  Zn  Zn96  1  0.44886350  0.44170838  0.18556961  1
  Zn  Zn97  1  0.46695193  0.43771711  0.68713366  1
  Zn  Zn98  1  0.43372153  0.92524873  0.19050979  1
  Zn  Zn99  1  0.35118730  0.95122015  0.69180052  1
  Zn  Zn100  1  0.96929809  0.43147199  0.15165632  1
  Zn  Zn101  1  0.92855120  0.44467885  0.68952817  1
  Zn  Zn102  1  0.82837088  0.89218362  0.21066923  1
  Zn  Zn103  1  0.95416098  0.94949510  0.68940757  1
  Zn  Zn104  1  0.05060619  0.06871762  0.31270110  1
  Zn  Zn105  1  0.07151279  0.06604412  0.81117833  1
  Zn  Zn106  1  0.04909656  0.60634809  0.31582981  1
  Zn  Zn107  1  0.07157443  0.55174153  0.81626041  1
  Zn  Zn108  1  0.57524577  0.08512721  0.28597832  1
  Zn  Zn109  1  0.56852332  0.02950761  0.83993393  1
  Zn  Zn110  1  0.53872622  0.57036495  0.36896082  1
  Zn  Zn111  1  0.56528183  0.56470615  0.80962754  1
  Zn  Zn112  1  0.42606352  0.21616637  0.38950285  1
  Zn  Zn113  1  0.43983221  0.19614216  0.93292852  1
  Zn  Zn114  1  0.42299047  0.69347856  0.44519460  1
  Zn  Zn115  1  0.43596427  0.68939794  0.93565745  1
  Zn  Zn116  1  0.93569360  0.18605967  0.43075544  1
  Zn  Zn117  1  0.94311115  0.19522258  0.94090286  1
  Zn  Zn118  1  0.98704688  0.72258450  0.46462492  1
  Zn  Zn119  1  0.94277425  0.69662695  0.94491310  1
  Zn  Zn120  1  0.06494467  0.32071080  0.05603305  1
  Zn  Zn121  1  0.05053832  0.31417636  0.55948817  1
  Zn  Zn122  1  0.00111223  0.85109755  0.14210664  1
  Zn  Zn123  1  0.07364156  0.81855283  0.57322707  1
  Zn  Zn124  1  0.55499386  0.29050182  0.02897483  1
  Zn  Zn125  1  0.64899115  0.32706657  0.55410535  1
  Zn  Zn126  1  0.60789040  0.77027350  0.10498407  1
  Zn  Zn127  1  0.56023513  0.80899061  0.55671340  1
  O  O128  1  0.11866869  0.13008941  0.11389483  1
  O  O129  1  0.12671547  0.12811592  0.61206157  1
  O  O130  1  0.10025582  0.60881061  0.15348631  1
  O  O131  1  0.09942626  0.63223561  0.59829372  1
  O  O132  1  0.60018211  0.11093840  0.14006324  1
  O  O133  1  0.52098540  0.11577417  0.58481650  1
  O  O134  1  0.61573480  0.62599162  0.11387127  1
  O  O135  1  0.61859377  0.61629570  0.60630443  1
  O  O136  1  0.41948371  0.32966748  0.38048440  1
  O  O137  1  0.38052505  0.36964376  0.89169451  1
  O  O138  1  0.38421172  0.86485321  0.37608383  1
  O  O139  1  0.39227335  0.85413676  0.83641674  1
  O  O140  1  0.82289051  0.38929845  0.37965375  1
  O  O141  1  0.85924578  0.39138177  0.86843343  1
  O  O142  1  0.88686675  0.89041923  0.40028489  1
  O  O143  1  0.89212670  0.87606824  0.87863202  1
  O  O144  1  0.23652596  0.01525263  0.36525208  1
  O  O145  1  0.28193865  -0.03520104  0.92385796  1
  O  O146  1  0.24473284  0.52319905  0.36203238  1
  O  O147  1  0.23844483  0.52587974  0.87262295  1
  O  O148  1  0.75309035  0.00353458  0.38022881  1
  O  O149  1  0.77472361  -0.00806817  0.86275634  1
  O  O150  1  0.71147004  0.50678396  0.32424792  1
  O  O151  1  0.76764014  0.52236107  0.87731380  1
  O  O152  1  0.25854676  0.48754410  0.12517240  1
  O  O153  1  0.23190752  0.48318006  0.61499441  1
  O  O154  1  0.23084699  0.99711865  0.12072238  1
  O  O155  1  0.24853833  1.01141260  0.61739893  1
  O  O156  1  0.76850358  0.51499325  0.15781299  1
  O  O157  1  0.73870866  0.52354653  0.63080823  1
  O  O158  1  0.72303922  0.99685308  0.12309801  1
  O  O159  1  0.75258392  0.99209518  0.64030215  1
  O  O160  1  0.00049909  0.36664467  0.23908416  1
  O  O161  1  -0.01425231  0.36382305  0.75220411  1
  O  O162  1  -0.00594129  0.88875741  0.25829641  1
  O  O163  1  0.00904643  0.88488084  0.76876192  1
  O  O164  1  0.52278404  0.37590448  0.24883191  1
  O  O165  1  0.53379626  0.36380023  0.74531429  1
  O  O166  1  0.50027229  0.88700379  0.27695728  1
  O  O167  1  0.43725110  0.86787759  0.77710493  1
  O  O168  1  0.47301638  0.12054722  0.24539864  1
  O  O169  1  0.50399337  0.05266278  0.72084764  1
  O  O170  1  0.51920857  0.60100061  0.25627599  1
  O  O171  1  0.49073952  0.62895980  0.75118411  1
  O  O172  1  1.00478619  0.13999729  0.23280245  1
  O  O173  1  0.99668370  0.12839548  0.74656639  1
  O  O174  1  0.97875224  0.65220906  0.24385646  1
  O  O175  1  0.99386826  0.63482804  0.75845462  1
  O  O176  1  0.36910577  0.26215780  0.00420092  1
  O  O177  1  0.40733581  0.27556426  0.55949847  1
  O  O178  1  0.38709649  0.75132746  0.02102821  1
  O  O179  1  0.36612758  0.76822395  0.50118862  1
  O  O180  1  0.86249742  0.24490448  0.00390729  1
  O  O181  1  0.86915572  0.25332232  0.49475901  1
  O  O182  1  0.85412470  0.75231347  -0.01067995  1
  O  O183  1  0.87995031  0.77308642  0.51777762  1
  O  O184  1  0.11303831  0.24282101  0.48429161  1
  O  O185  1  0.12859865  0.24780314  0.98939654  1
  O  O186  1  0.09367814  0.74871493  0.49012003  1
  O  O187  1  0.16895983  0.77013738  1.04466151  1
  O  O188  1  0.65387219  0.24131565  0.48263406  1
  O  O189  1  0.65538003  0.23765303  1.01077961  1
  O  O190  1  0.65438562  0.75939869  0.50847812  1
  O  O191  1  0.62247155  0.72628511  0.98933101  1
  O  O192  1  0.48534352  0.23860383  0.11631223  1
  O  O193  1  0.51174804  0.15511025  0.52231387  1
  O  O194  1  0.49869087  0.72132930  0.13459209  1
  O  O195  1  0.50556372  0.71741436  0.60027715  1
  O  O196  1  0.99650144  0.24816594  0.12473072  1
  O  O197  1  1.01606385  0.24226890  0.64685960  1
  O  O198  1  1.02150917  0.74152981  0.11622324  1
  O  O199  1  0.99089574  0.74098168  0.62428970  1
  O  O200  1  0.00156911  0.25091829  0.35643173  1
  O  O201  1  0.01368044  0.25415693  0.86938147  1
  O  O202  1  -0.01997066  0.77462655  0.36548449  1
  O  O203  1  0.01690124  0.76460086  0.88414314  1
  O  O204  1  0.53599714  0.24197348  0.35857868  1
  O  O205  1  0.53446404  0.25237740  0.91372251  1
  O  O206  1  0.49351732  0.74487176  0.36682918  1
  O  O207  1  0.51662157  0.73812339  0.87174618  1
  O  O208  1  0.24409291  0.12798683  0.47709157  1
  O  O209  1  0.23699389  0.14239535  1.00675586  1
  O  O210  1  0.25571939  0.61808351  0.47441272  1
  O  O211  1  0.26850190  0.62291082  0.99265345  1
  O  O212  1  0.76897027  0.12042880  0.48076118  1
  O  O213  1  0.76223377  0.10961056  1.01300213  1
  O  O214  1  0.77500929  0.65297506  0.49837774  1
  O  O215  1  0.74143251  0.61395144  1.00934785  1
  O  O216  1  0.26606076  0.37490027  0.00764738  1
  O  O217  1  0.31491908  0.42337870  0.45868200  1
  O  O218  1  0.21682796  0.82682838  0.03786728  1
  O  O219  1  0.25305014  0.87594395  0.50030530  1
  O  O220  1  0.72599866  0.39861169  0.03752749  1
  O  O221  1  0.76123595  0.34528666  0.51432015  1
  O  O222  1  0.76695306  0.89660849  -0.01041537  1
  O  O223  1  0.77220446  0.88154889  0.52453792  1
  O  O224  1  0.01776494  0.50687896  0.34531119  1
  O  O225  1  0.12842099  0.54098594  0.71889823  1
  O  O226  1  0.11859959  1.01554664  0.23849186  1
  O  O227  1  0.13555749  1.01574039  0.73174833  1
  O  O228  1  0.64846136  0.50412908  0.28636554  1
  O  O229  1  0.63754752  0.48964621  0.76135007  1
  O  O230  1  0.60585716  0.99005532  0.23624865  1
  O  O231  1  0.65285679  1.00802706  0.76705142  1
  O  O232  1  0.35979626  0.00660928  0.24066742  1
  O  O233  1  0.34672667  0.02863481  0.77581837  1
  O  O234  1  0.38104453  0.46140087  0.27273952  1
  O  O235  1  0.39005379  0.50730043  0.75447747  1
  O  O236  1  0.87078097  -0.00817102  0.19481400  1
  O  O237  1  0.87916636  0.01346972  0.74813538  1
  O  O238  1  0.80237811  0.45409284  0.19815979  1
  O  O239  1  0.88487148  0.51944737  0.76579261  1
  O  O240  1  0.12445528  0.36597946  0.38504819  1
  O  O241  1  0.12500272  0.37402013  0.88408668  1
  O  O242  1  0.10775512  0.87960929  0.37350537  1
  O  O243  1  0.12339755  0.86251319  0.88176874  1
  O  O244  1  0.62698476  0.35505336  0.38125277  1
  O  O245  1  0.64680009  0.36623628  0.86425706  1
  O  O246  1  0.60728567  0.87144069  0.36916555  1
  O  O247  1  0.62932665  0.85404589  0.87137502  1
  O  O248  1  0.37253839  0.13359785  0.13260013  1
  O  O249  1  0.36308484  0.12275648  0.63954796  1
  O  O250  1  0.39968366  0.62214216  0.14023135  1
  O  O251  1  0.39777875  0.60032692  0.62324095  1
  O  O252  1  0.89881649  0.13770277  0.11180301  1
  O  O253  1  0.89547310  0.12474619  0.63000777  1
  O  O254  1  0.87620447  0.66800172  0.12101291  1
  O  O255  1  0.88498269  0.63637391  0.64120850  1
  O  O256  1  0.26202396  0.25933666  0.11357678  1
  O  O257  1  0.23675365  0.30023845  0.61380742  1
  O  O258  1  0.28577091  0.71059841  0.13651910  1
  O  O259  1  0.21986777  0.75546540  0.61613398  1
  O  O260  1  0.76871382  0.23411833  0.11613302  1
  O  O261  1  0.74852064  0.20754580  0.60405248  1
  O  O262  1  0.73323145  0.76437128  0.11085372  1
  O  O263  1  0.76618123  0.76529610  0.62317239  1
  O  O264  1  0.23407843  0.25087347  0.36774498  1
  O  O265  1  0.23669600  0.26167118  0.88752783  1
  O  O266  1  0.26704370  0.73163053  0.36233742  1
  O  O267  1  0.23281720  0.74414180  0.87874717  1
  O  O268  1  0.75914109  0.22469541  0.37854871  1
  O  O269  1  0.74348558  0.22890706  0.89215602  1
  O  O270  1  0.76701277  0.78256709  0.39829814  1
  O  O271  1  0.74342605  0.73767911  0.87211367  1
  O  O272  1  0.01686033  0.12738691  0.00157854  1
  O  O273  1  0.00852544  0.12370745  0.50524314  1
  O  O274  1  0.00000800  0.62210957  0.00684438  1
  O  O275  1  -0.03226381  0.61665213  0.50225291  1
  O  O276  1  0.48589476  0.12033714  0.01594262  1
  O  O277  1  0.43592877  0.14585886  0.48432624  1
  O  O278  1  0.50057396  0.61018234  -0.00491872  1
  O  O279  1  0.49599126  0.61003227  0.47872410  1
  O  O280  1  0.47407729  0.29066272  0.58370288  1
  O  O281  1  0.49303700  0.38697571  1.01038612  1
  O  O282  1  0.49067853  0.86545569  0.48354078  1
  O  O283  1  0.51268439  0.85356123  0.99169458  1
  O  O284  1  0.97766045  0.36964650  0.49037383  1
  O  O285  1  1.00324293  0.41274686  1.03505736  1
  O  O286  1  0.99640933  0.88967514  0.50959545  1
  O  O287  1  1.00712754  0.89635903  0.99515848  1
  O  O288  1  0.51363778  0.46215280  0.38554560  1
  O  O289  1  0.50254527  0.49791626  0.88458932  1
  O  O290  1  0.55942694  1.01926022  0.45118616  1
  O  O291  1  0.47048445  0.99499171  0.88029441  1
  O  O292  1  0.88553298  0.51014335  0.33995388  1
  O  O293  1  0.99096880  0.50602567  0.88747948  1
  O  O294  1  1.00429594  0.99555236  0.39060553  1
  O  O295  1  1.01737767  0.99130795  0.88540672  1
  O  O296  1  0.01097591  0.02205485  0.10777129  1
  O  O297  1  0.02042914  0.01502485  0.61869185  1
  O  O298  1  -0.03826302  0.53649891  0.11553457  1
  O  O299  1  -0.00234948  0.51902567  0.63098991  1
  O  O300  1  0.47982140  0.01001975  0.12564088  1
  O  O301  1  0.48409959  -0.00730682  0.68125769  1
  O  O302  1  0.50581060  0.51265554  0.11736130  1
  O  O303  1  0.52597128  0.51073437  0.61621887  1
  O  O304  1  0.25154410  0.36913102  0.23743502  1
  O  O305  1  0.25793070  0.37704795  0.75648848  1
  O  O306  1  0.21134137  0.83126792  0.24397122  1
  O  O307  1  0.26158729  0.87356616  0.71969108  1
  O  O308  1  0.75519709  0.39658451  0.21740410  1
  O  O309  1  0.72435444  0.32792907  0.73431448  1
  O  O310  1  0.72023949  0.88812186  0.26399196  1
  O  O311  1  0.76091902  0.88740332  0.74001899  1
  O  O312  1  0.25276420  0.13163560  0.25186931  1
  O  O313  1  0.24111145  0.15659204  0.74204050  1
  O  O314  1  0.24097957  0.62566405  0.26412560  1
  O  O315  1  0.27217845  0.63644556  0.73906082  1
  O  O316  1  0.75763481  0.11049769  0.25409244  1
  O  O317  1  0.77393481  0.11495134  0.74823420  1
  O  O318  1  0.69432446  0.64902347  0.32107708  1
  O  O319  1  0.75932111  0.63124138  0.75446731  1
  O  O320  1  0.35455686  0.13009326  0.35488409  1
  O  O321  1  0.36442499  0.11982654  0.89764056  1
  O  O322  1  0.35628554  0.62298433  0.36430131  1
  O  O323  1  0.36145669  0.63500043  0.86122781  1
  O  O324  1  0.87607437  0.11380305  0.36459403  1
  O  O325  1  0.89117024  0.11783827  0.86882078  1
  O  O326  1  0.85211573  0.57379930  0.34716291  1
  O  O327  1  0.86895006  0.63673723  0.86371775  1
  O  O328  1  0.14487430  0.37068844  0.12103994  1
  O  O329  1  0.09922822  0.39087546  0.63556946  1
  O  O330  1  0.10266387  0.90260771  0.12510084  1
  O  O331  1  0.14147171  0.89917730  0.61555161  1
  O  O332  1  0.67227337  0.38460569  0.08623638  1
  O  O333  1  0.63121093  0.40080862  0.63163115  1
  O  O334  1  0.59976970  0.88789783  0.13673893  1
  O  O335  1  0.63891981  0.87174284  0.62495354  1
  O  O336  1  0.11335774  0.25398663  0.25841084  1
  O  O337  1  0.11380419  0.25893514  0.76652603  1
  O  O338  1  0.15777356  0.78103045  0.22803460  1
  O  O339  1  0.12474595  0.74575402  0.75428579  1
  O  O340  1  0.66438437  0.25728446  0.26131820  1
  O  O341  1  0.62042304  0.21132339  0.77958811  1
  O  O342  1  0.61408585  0.77570186  0.23226144  1
  O  O343  1  0.62853699  0.73933868  0.75725118  1
  O  O344  1  0.37290600  0.25224668  0.23372308  1
  O  O345  1  0.38763112  0.21818446  0.77347772  1
  O  O346  1  0.37955731  0.82206823  0.18694302  1
  O  O347  1  0.32669772  0.70323162  0.72507968  1
  O  O348  1  0.88796959  0.25387380  0.23238259  1
  O  O349  1  0.88950545  0.23628805  0.76387625  1
  O  O350  1  0.83161515  0.77777492  0.23811308  1
  O  O351  1  0.87672749  0.74622014  0.74267507  1
  O  O352  1  0.36168315  0.47398190  0.48653919  1
  O  O353  1  0.38810868  0.48911363  1.00204781  1
  O  O354  1  0.37550229  0.97967584  0.49266238  1
  O  O355  1  0.34059179  0.98506552  0.98599264  1
  O  O356  1  0.85746773  0.47706506  0.50792621  1
  O  O357  1  0.87883695  0.50474003  0.98348800  1
  O  O358  1  0.89176471  0.99359109  0.52272700  1
  O  O359  1  0.89308318  1.00750328  0.99670558  1
  O  O360  1  0.12231618  0.01619217  0.00322608  1
  O  O361  1  0.12137554  0.01828400  0.50490703  1
  O  O362  1  0.11345114  0.51321501  -0.00577012  1
  O  O363  1  0.10606709  0.49536052  0.51754404  1
  O  O364  1  0.60612709  -0.00839001  0.01764123  1
  O  O365  1  0.59427459  0.00819219  0.51368725  1
  O  O366  1  0.61554983  0.51364873  -0.00778588  1
  O  O367  1  0.65815476  0.48867109  0.49602989  1
  O  O368  1  0.37478253  0.36579218  0.11930372  1
  O  O369  1  0.36953109  0.39763568  0.63957475  1
  O  O370  1  0.45882444  0.89344316  0.01865251  1
  O  O371  1  0.35692517  0.87291690  0.60701231  1
  O  O372  1  0.87725780  0.35850587  0.11361646  1
  O  O373  1  0.88028542  0.36928298  0.62000971  1
  O  O374  1  0.88842757  0.84766591  0.11306299  1
  O  O375  1  0.88860876  0.86896098  0.63388247  1
  O  O376  1  0.13071114  0.13485031  0.37536714  1
  O  O377  1  0.12855770  0.13222815  0.88711696  1
  O  O378  1  0.14624432  0.64106844  0.37454354  1
  O  O379  1  0.13224673  0.64010961  0.87448665  1
  O  O380  1  0.64390297  0.13043393  0.36252798  1
  O  O381  1  0.61766863  0.11375802  0.89954978  1
  O  O382  1  0.63937690  0.64989368  0.37173375  1
  O  O383  1  0.64294035  0.62674647  0.87744332  1
