# generated using pymatgen
data_VZnO4
_symmetry_space_group_name_H-M   'P 1'
_cell_length_a   17.04391841
_cell_length_b   17.00898569
_cell_length_c   16.93052692
_cell_angle_alpha   90.15929287
_cell_angle_beta   90.49066890
_cell_angle_gamma   90.18784850
_symmetry_Int_Tables_number   1
_chemical_formula_structural   VZnO4
_chemical_formula_sum   'V64 Zn64 O256'
_cell_volume   4907.93005370
_cell_formula_units_Z   64
loop_
 _symmetry_equiv_pos_site_id
 _symmetry_equiv_pos_as_xyz
  1  'x, y, z'
loop_
 _atom_site_type_symbol
 _atom_site_label
 _atom_site_symmetry_multiplicity
 _atom_site_fract_x
 _atom_site_fract_y
 _atom_site_fract_z
 _atom_site_occupancy
  V  V0  1  0.24147047  0.61804906  0.37950819  1
  V  V1  1  0.81624051  0.71057145  0.13899575  1
  V  V2  1  0.87888121  0.24281478  0.12881752  1
  V  V3  1  0.38566836  0.62374710  0.23277438  1
  V  V4  1  0.11095265  0.26525469  0.88501333  1
  V  V5  1  0.85828805  0.87843091  0.03385852  1
  V  V6  1  0.01903674  0.76721798  0.24910908  1
  V  V7  1  0.75514213  0.14838465  0.36067786  1
  V  V8  1  0.14319291  0.35762091  0.25025076  1
  V  V9  1  0.88128927  0.64752597  0.73557775  1
  V  V10  1  0.90277895  0.36534875  0.50645164  1
  V  V11  1  0.64509275  0.75858291  0.87176333  1
  V  V12  1  0.76467259  0.60736003  0.37527825  1
  V  V13  1  0.13663291  0.15483126  0.45210718  1
  V  V14  1  0.50132513  0.49967812  0.51133766  1
  V  V15  1  0.63265797  0.88841733  0.72861934  1
  V  V16  1  0.12352328  -0.02717123  0.12040643  1
  V  V17  1  0.51314811  0.88465255  0.37865794  1
  V  V18  1  0.24494624  0.49647263  0.22074664  1
  V  V19  1  0.28682016  0.13422812  0.35478658  1
  V  V20  1  0.25752595  0.87618048  0.63514455  1
  V  V21  1  0.48393328  0.64271929  0.62997170  1
  V  V22  1  0.47657043  0.25027107  0.73776742  1
  V  V23  1  0.49711664  0.23197110  0.23961383  1
  V  V24  1  0.62179254  0.25863091  0.38339328  1
  V  V25  1  0.37336007  0.38847674  -0.00647088  1
  V  V26  1  0.05730106  0.11589215  0.59127836  1
  V  V27  1  0.62832341  0.10755271  0.50463915  1
  V  V28  1  0.89337867  0.13100105  0.75029180  1
  V  V29  1  0.37328892  -0.00475036  0.88601136  1
  V  V30  1  0.37333379  0.36599101  0.50987308  1
  V  V31  1  0.49324151  0.86158967  0.85828007  1
  V  V32  1  0.37092114  0.49852982  0.36949134  1
  V  V33  1  0.73355599  0.37980542  0.14112681  1
  V  V34  1  0.49348956  0.10972999  0.12125311  1
  V  V35  1  0.63987092  -0.00948522  0.15134544  1
  V  V36  1  0.24193952  0.73953866  0.02242860  1
  V  V37  1  0.62747571  0.10616356  0.00576050  1
  V  V38  1  0.84618353  0.25261383  0.63108936  1
  V  V39  1  0.61993684  0.73621812  0.36146460  1
  V  V40  1  0.26521547  -0.01669066  0.24384215  1
  V  V41  1  0.10454634  0.11889528  0.00867734  1
  V  V42  1  0.73164000  0.25501326  0.00089773  1
  V  V43  1  0.24442835  0.63483589  0.86362018  1
  V  V44  1  0.87806040  0.00650042  0.88205841  1
  V  V45  1  0.73631503  0.12365625  0.86425676  1
  V  V46  1  0.63332379  0.62571446  0.51384853  1
  V  V47  1  0.14915012  0.75944695  0.38553303  1
  V  V48  1  0.01685664  0.88551547  0.40898548  1
  V  V49  1  0.38334545  0.85744297  0.01967747  1
  V  V50  1  0.76292662  0.76210749  0.50904747  1
  V  V51  1  0.26262130  0.23335297  0.00399045  1
  V  V52  1  0.75277366  0.60793483  0.86218291  1
  V  V53  1  0.52695343  0.49843753  0.00252968  1
  V  V54  1  0.88735688  0.37620051  0.00086280  1
  V  V55  1  0.88406174  0.48197473  0.85655929  1
  V  V56  1  0.49685298  0.37822152  0.35688896  1
  V  V57  1  -0.01068595  0.86887515  0.88125292  1
  V  V58  1  0.85555517  -0.01375382  0.37585691  1
  V  V59  1  0.24131860  0.37224054  0.63045054  1
  V  V60  1  0.24210592  0.00873042  0.77210384  1
  V  V61  1  0.27686520  0.50610225  0.74638109  1
  V  V62  1  0.60445342  0.37773442  0.74121090  1
  V  V63  1  0.10909581  0.86996544  0.75055746  1
  Zn  Zn64  1  0.20881689  0.18078304  0.17414468  1
  Zn  Zn65  1  0.20027445  0.19929707  0.71636367  1
  Zn  Zn66  1  0.17615510  0.67014643  0.19916566  1
  Zn  Zn67  1  0.17248340  0.69227862  0.69053192  1
  Zn  Zn68  1  0.67003836  0.20416159  0.18155128  1
  Zn  Zn69  1  0.66351882  0.19529832  0.68505099  1
  Zn  Zn70  1  0.69975153  0.57077280  0.18375018  1
  Zn  Zn71  1  0.68706924  0.70137806  0.69128929  1
  Zn  Zn72  1  0.32297121  0.31617446  0.29330427  1
  Zn  Zn73  1  0.30875009  0.31494860  0.82668874  1
  Zn  Zn74  1  0.33470411  0.80563985  0.30404858  1
  Zn  Zn75  1  0.29945692  0.81318962  0.81685521  1
  Zn  Zn76  1  0.82426913  0.30706489  0.31959918  1
  Zn  Zn77  1  0.81157051  0.30329423  0.82041532  1
  Zn  Zn78  1  0.78756611  0.80179519  0.31741444  1
  Zn  Zn79  1  0.81312350  0.82791256  0.78578948  1
  Zn  Zn80  1  0.19647734  0.41005572  0.42424075  1
  Zn  Zn81  1  0.20077977  0.43800876  0.92043673  1
  Zn  Zn82  1  0.18489579  0.96480785  0.44159731  1
  Zn  Zn83  1  0.18336242  0.92151232  0.95217682  1
  Zn  Zn84  1  0.67281098  0.44539211  0.42555110  1
  Zn  Zn85  1  0.68398211  0.43786134  0.93635337  1
  Zn  Zn86  1  0.69147606  0.92931500  0.41896987  1
  Zn  Zn87  1  0.69030082  0.93837447  0.92312603  1
  Zn  Zn88  1  0.30803347  0.04518824  0.05965470  1
  Zn  Zn89  1  0.23342155  0.06712124  0.57926651  1
  Zn  Zn90  1  0.32396205  0.56442259  0.04545165  1
  Zn  Zn91  1  0.31112049  0.55733687  0.56240248  1
  Zn  Zn92  1  0.81180590  0.06274514  0.07171975  1
  Zn  Zn93  1  0.80677012  0.08992843  0.54683067  1
  Zn  Zn94  1  0.86143566  0.51492788  0.10949781  1
  Zn  Zn95  1  0.86235089  0.58349052  0.52833049  1
  Zn  Zn96  1  0.43847382  0.45214014  0.16827830  1
  Zn  Zn97  1  0.43962495  0.43857064  0.69270509  1
  Zn  Zn98  1  0.44414810  0.93111979  0.20413400  1
  Zn  Zn99  1  0.42302545  0.93920752  0.69600144  1
  Zn  Zn100  1  0.95162982  0.38654091  0.19930235  1
  Zn  Zn101  1  0.90590885  0.46982583  0.65374107  1
  Zn  Zn102  1  0.94915418  0.94405908  0.20476701  1
  Zn  Zn103  1  0.95529542  0.96941598  0.69930329  1
  Zn  Zn104  1  0.11324992  0.04645623  0.31107499  1
  Zn  Zn105  1  0.06908204  0.06753789  0.83187117  1
  Zn  Zn106  1  -0.01370784  0.59489755  0.20873986  1
  Zn  Zn107  1  0.00581053  0.65672764  0.86848696  1
  Zn  Zn108  1  0.56925948  0.06842915  0.31677619  1
  Zn  Zn109  1  0.55486920  0.04993666  0.82235377  1
  Zn  Zn110  1  0.56577284  0.56074739  0.31349980  1
  Zn  Zn111  1  0.56658415  0.57724821  0.80659990  1
  Zn  Zn112  1  0.44467028  0.18202829  0.44714757  1
  Zn  Zn113  1  0.43644409  0.18271506  0.94475694  1
  Zn  Zn114  1  0.44288591  0.67219582  0.42676913  1
  Zn  Zn115  1  0.43383295  0.69961534  0.92954920  1
  Zn  Zn116  1  0.92196587  0.16391307  0.45357071  1
  Zn  Zn117  1  0.93262107  0.19026948  0.94609695  1
  Zn  Zn118  1  0.94150906  0.70249837  0.41100000  1
  Zn  Zn119  1  0.88053242  0.66869976  0.99237357  1
  Zn  Zn120  1  0.06811779  0.30123813  0.07495252  1
  Zn  Zn121  1  0.07091947  0.29550867  0.56896012  1
  Zn  Zn122  1  0.05090460  0.69684099  0.06336495  1
  Zn  Zn123  1  0.13168164  0.82458449  0.55437030  1
  Zn  Zn124  1  0.53479256  0.32964800  0.07483083  1
  Zn  Zn125  1  0.54947454  0.30576741  0.57002052  1
  Zn  Zn126  1  0.58289565  0.83578315  0.04366216  1
  Zn  Zn127  1  0.55853108  0.81347033  0.55152078  1
  O  O128  1  0.12888043  0.12660489  0.11144055  1
  O  O129  1  0.15167023  0.12998128  0.63831172  1
  O  O130  1  0.08098963  0.62668193  0.15111793  1
  O  O131  1  0.09311710  0.63174568  0.61503865  1
  O  O132  1  0.62175667  0.11061158  0.11938309  1
  O  O133  1  0.64825144  0.11819425  0.60451482  1
  O  O134  1  0.55480898  0.66365205  0.11569845  1
  O  O135  1  0.61528689  0.62977863  0.61471094  1
  O  O136  1  0.38306727  0.38189213  0.38094657  1
  O  O137  1  0.38682283  0.36928291  0.89396519  1
  O  O138  1  0.34264948  0.81128718  0.46084180  1
  O  O139  1  0.38458382  0.86408515  0.87583573  1
  O  O140  1  0.86513524  0.36294870  0.41276573  1
  O  O141  1  0.86633133  0.37401903  0.89138747  1
  O  O142  1  0.91756454  0.90481125  0.41880555  1
  O  O143  1  0.87357507  0.90359944  0.85398631  1
  O  O144  1  0.23746084  0.01814837  0.35215819  1
  O  O145  1  0.25943909  -0.02277654  0.87833265  1
  O  O146  1  0.25999829  0.49776622  0.36968290  1
  O  O147  1  0.25547749  0.51430034  0.85474367  1
  O  O148  1  0.76313183  0.04569040  0.36136673  1
  O  O149  1  0.75829823  0.01953885  0.87345209  1
  O  O150  1  0.75311375  0.50780733  0.38781633  1
  O  O151  1  0.75220435  0.50623094  0.87136218  1
  O  O152  1  0.25452069  0.50779538  0.12243021  1
  O  O153  1  0.25316831  0.49551365  0.63933315  1
  O  O154  1  0.24424647  0.99285664  0.13405506  1
  O  O155  1  0.25390518  0.98817186  0.66284382  1
  O  O156  1  0.75169771  0.48339012  0.12391623  1
  O  O157  1  0.73438087  0.43446503  0.58797158  1
  O  O158  1  0.73661250  1.00550222  0.13265028  1
  O  O159  1  0.79697720  0.96946195  0.60069940  1
  O  O160  1  0.06382754  0.36336588  0.17660187  1
  O  O161  1  0.02975045  0.37999285  0.74106627  1
  O  O162  1  -0.01151438  0.86330339  0.27824534  1
  O  O163  1  0.00260007  0.89293127  0.76639743  1
  O  O164  1  0.49363399  0.38641613  0.25855843  1
  O  O165  1  0.49462254  0.36019545  0.75355574  1
  O  O166  1  0.44161628  0.86311340  0.30211477  1
  O  O167  1  0.49466452  0.87298009  0.75641660  1
  O  O168  1  0.49831565  0.12739217  0.24105768  1
  O  O169  1  0.48976774  0.14509268  0.78792096  1
  O  O170  1  0.48282924  0.61129067  0.25703882  1
  O  O171  1  0.50406333  0.62880794  0.72810053  1
  O  O172  1  1.01668727  0.12168840  0.22205878  1
  O  O173  1  0.99045938  0.13039662  0.76290683  1
  O  O174  1  0.96530368  0.68321200  0.28327704  1
  O  O175  1  0.98065144  0.63666420  0.75995265  1
  O  O176  1  0.36628549  0.25438114  -0.00496943  1
  O  O177  1  0.38613675  0.26892733  0.49720033  1
  O  O178  1  0.36789715  0.75014603  0.00485959  1
  O  O179  1  0.36776280  0.75237427  0.49667497  1
  O  O180  1  0.85869952  0.25515685  0.00905487  1
  O  O181  1  0.87756768  0.24919472  0.52631543  1
  O  O182  1  0.84360496  0.77074582  0.05392519  1
  O  O183  1  0.86155231  0.75536825  0.48726038  1
  O  O184  1  0.14082375  0.24860914  0.48795840  1
  O  O185  1  0.12958617  0.23757831  1.00329820  1
  O  O186  1  0.14508450  0.73502546  0.48284788  1
  O  O187  1  0.14439151  0.73234523  1.00327418  1
  O  O188  1  0.60944355  0.25949090  0.48502197  1
  O  O189  1  0.63292862  0.23835068  1.00479308  1
  O  O190  1  0.62864916  0.73193559  0.49482943  1
  O  O191  1  0.62744504  0.76266399  0.97260309  1
  O  O192  1  0.51636312  0.22803918  0.13427917  1
  O  O193  1  0.48443160  0.23800482  0.63689352  1
  O  O194  1  0.52738228  0.72909789  0.12807892  1
  O  O195  1  0.49399237  0.73994144  0.61035878  1
  O  O196  1  0.97569923  0.24002711  0.10985134  1
  O  O197  1  1.02116438  0.20654282  0.62212884  1
  O  O198  1  1.00606493  0.76835353  0.14948144  1
  O  O199  1  1.03471409  0.67407316  0.58403005  1
  O  O200  1  -0.02148592  0.16551750  0.26373640  1
  O  O201  1  0.01024047  0.24969984  0.88943425  1
  O  O202  1  0.03012533  0.77350282  0.38647314  1
  O  O203  1  -0.02549085  0.77337819  0.86606080  1
  O  O204  1  0.49880469  0.26569185  0.36445715  1
  O  O205  1  0.49935984  0.20549198  0.84784317  1
  O  O206  1  0.51730174  0.73635113  0.37379504  1
  O  O207  1  0.50954682  0.75931964  0.86691894  1
  O  O208  1  0.24289183  0.13021914  0.45690199  1
  O  O209  1  0.25707195  0.13261481  1.00502262  1
  O  O210  1  0.25469339  0.61074673  0.47920879  1
  O  O211  1  0.26822663  0.63455375  0.97262595  1
  O  O212  1  0.73380672  0.14574599  0.47828504  1
  O  O213  1  0.73489987  0.13037648  1.00289975  1
  O  O214  1  0.73615108  0.61832003  0.50672957  1
  O  O215  1  0.77852167  0.64737706  0.95222626  1
  O  O216  1  0.27233250  0.39528052  0.00218004  1
  O  O217  1  0.26455413  0.38277958  0.51141876  1
  O  O218  1  0.26049170  0.84464306  -0.00025390  1
  O  O219  1  0.22657168  0.90605765  0.53739182  1
  O  O220  1  0.74094970  0.35955503  -0.00040560  1
  O  O221  1  0.73927512  0.39560142  0.52571018  1
  O  O222  1  0.76676885  0.89344327  -0.00477889  1
  O  O223  1  0.73520781  0.85711415  0.50001569  1
  O  O224  1  0.14706702  0.48656192  0.23453017  1
  O  O225  1  0.06031138  0.44657755  0.72638212  1
  O  O226  1  0.14482194  0.98236538  0.22867518  1
  O  O227  1  0.13639825  0.99093246  0.77846975  1
  O  O228  1  0.63176452  0.51024296  0.24367070  1
  O  O229  1  0.59509471  0.47679738  0.76302446  1
  O  O230  1  0.63286322  0.99980746  0.25114616  1
  O  O231  1  0.60645136  0.98668135  0.74720133  1
  O  O232  1  0.36399290  0.00324386  0.23881598  1
  O  O233  1  0.35877277  -0.00862162  0.77709157  1
  O  O234  1  0.36659248  0.49659205  0.25235158  1
  O  O235  1  0.37488448  0.51398356  0.74803561  1
  O  O236  1  0.90750882  0.00954225  0.29523683  1
  O  O237  1  0.87153553  0.02752675  0.75531353  1
  O  O238  1  0.93628087  0.49611473  0.19463928  1
  O  O239  1  0.86818845  0.45821574  0.75942396  1
  O  O240  1  0.12222633  0.37288424  0.34870102  1
  O  O241  1  0.11744645  0.36671853  0.90333504  1
  O  O242  1  0.16248198  0.85789065  0.38853774  1
  O  O243  1  0.09272262  0.87918565  0.88783271  1
  O  O244  1  0.60179524  0.37414979  0.37743784  1
  O  O245  1  0.65629929  0.35904150  0.84842219  1
  O  O246  1  0.61618574  0.85188274  0.36952505  1
  O  O247  1  0.61079862  0.87569130  0.86518726  1
  O  O248  1  0.39703104  0.10850018  0.10576705  1
  O  O249  1  0.34428515  0.11856787  0.58839163  1
  O  O250  1  0.38260074  0.60833009  0.13312304  1
  O  O251  1  0.38533621  0.62622713  0.61401756  1
  O  O252  1  0.85619992  0.14547744  0.13698079  1
  O  O253  1  0.86137613  0.13844189  0.64052811  1
  O  O254  1  0.88342987  0.63263901  0.12293830  1
  O  O255  1  0.87617322  0.59595762  0.64369438  1
  O  O256  1  0.24737447  0.26251173  0.10079438  1
  O  O257  1  0.25561962  0.27525533  0.64756966  1
  O  O258  1  0.24622235  0.72178920  0.12017338  1
  O  O259  1  0.21919845  0.77687600  0.62701580  1
  O  O260  1  0.75044020  0.25940242  0.11464600  1
  O  O261  1  0.74862576  0.26126452  0.63129743  1
  O  O262  1  0.72601357  0.66890835  0.12950217  1
  O  O263  1  0.75248972  0.74216695  0.60796782  1
  O  O264  1  0.27668794  0.23530236  0.35552452  1
  O  O265  1  0.23634950  0.26524186  0.90138440  1
  O  O266  1  0.25374693  0.72812321  0.36154996  1
  O  O267  1  0.22400854  0.73242044  0.86035318  1
  O  O268  1  0.72118591  0.27304597  0.37338846  1
  O  O269  1  0.75272839  0.23081445  0.89407204  1
  O  O270  1  0.73913916  0.72964457  0.39179177  1
  O  O271  1  0.74275025  0.77858408  0.86624029  1
  O  O272  1  0.00504612  0.11954941  0.00543181  1
  O  O273  1  0.02750361  0.13969707  0.48492142  1
  O  O274  1  -0.01291346  0.65391133  -0.02145944  1
  O  O275  1  -0.00319210  0.63887457  0.52437520  1
  O  O276  1  0.51845210  0.12702343  0.01185787  1
  O  O277  1  0.52756296  0.12432838  0.49508382  1
  O  O278  1  0.49633927  0.60680811  -0.04312786  1
  O  O279  1  0.50507977  0.61351989  0.50504049  1
  O  O280  1  0.48959847  0.38793916  0.50006884  1
  O  O281  1  0.52582332  0.39690486  0.97966528  1
  O  O282  1  0.48933734  0.86545511  0.47474139  1
  O  O283  1  0.48456343  0.85963718  0.98832954  1
  O  O284  1  1.00103430  0.35600716  0.50055716  1
  O  O285  1  0.98422866  0.36709102  1.01344831  1
  O  O286  1  1.04084390  0.87382681  0.50582228  1
  O  O287  1  0.95114158  0.87354584  0.98364127  1
  O  O288  1  0.49082746  0.49001526  0.38127231  1
  O  O289  1  0.49369350  0.54828810  0.89564915  1
  O  O290  1  0.51928904  0.98364086  0.37154567  1
  O  O291  1  0.48202014  0.97774141  0.87816365  1
  O  O292  1  1.04958008  0.51501704  0.45001561  1
  O  O293  1  0.97854016  0.49415964  0.86601795  1
  O  O294  1  1.06194057  0.97352889  0.38379916  1
  O  O295  1  0.98072699  1.00559368  0.87709987  1
  O  O296  1  0.02367231  -0.00802664  0.13554818  1
  O  O297  1  0.00419260  0.03863258  0.62608645  1
  O  O298  1  0.05324888  0.51675091  0.06902419  1
  O  O299  1  0.02489433  0.49131701  0.67119429  1
  O  O300  1  0.51410653  0.00845888  0.14054427  1
  O  O301  1  0.39507800  0.08955321  0.64043362  1
  O  O302  1  0.51588326  0.50688334  0.10367786  1
  O  O303  1  0.49327503  0.50664383  0.61188277  1
  O  O304  1  0.25119665  0.38554239  0.23945539  1
  O  O305  1  0.25730999  0.39773922  0.74472127  1
  O  O306  1  0.26751154  0.88474113  0.26326356  1
  O  O307  1  0.22976204  0.87633339  0.75092068  1
  O  O308  1  0.75336882  0.36634005  0.23772634  1
  O  O309  1  0.71216530  0.36418094  0.78586400  1
  O  O310  1  0.78457705  0.90727868  0.35156208  1
  O  O311  1  0.73342661  0.89089730  0.73496331  1
  O  O312  1  0.26302263  0.11728334  0.25041953  1
  O  O313  1  0.24752905  0.10727947  0.77091330  1
  O  O314  1  0.25984306  0.60356912  0.25437710  1
  O  O315  1  0.22854873  0.61076867  0.75105997  1
  O  O316  1  0.73698510  0.16020856  0.26245455  1
  O  O317  1  0.72978439  0.13764197  0.76659861  1
  O  O318  1  0.77287188  0.61637249  0.27732222  1
  O  O319  1  0.76288117  0.63917195  0.75731445  1
  O  O320  1  0.38392747  0.11848106  0.37354713  1
  O  O321  1  0.37758701  0.09195646  0.90345242  1
  O  O322  1  0.36842114  0.60950511  0.36483623  1
  O  O323  1  0.35613070  0.66007650  0.84018102  1
  O  O324  1  0.85148186  0.18845359  0.36665518  1
  O  O325  1  0.86364492  0.12548048  0.86414154  1
  O  O326  1  0.86478412  0.61542584  0.41543226  1
  O  O327  1  0.86678697  0.59698024  0.84212868  1
  O  O328  1  0.10763920  0.47066428  0.06467447  1
  O  O329  1  0.14298762  0.37490584  0.61493873  1
  O  O330  1  0.12816435  0.87883334  0.10045039  1
  O  O331  1  0.10673616  0.89010662  0.65301512  1
  O  O332  1  0.63484471  0.36605584  0.12689365  1
  O  O333  1  0.61049415  0.37519564  0.63954490  1
  O  O334  1  0.62084315  0.89161997  0.12988135  1
  O  O335  1  0.60908040  0.87544169  0.63111262  1
  O  O336  1  0.15796244  0.26049240  0.24183421  1
  O  O337  1  0.13296901  0.25274464  0.78609473  1
  O  O338  1  0.12207616  0.75042944  0.26685521  1
  O  O339  1  0.11004945  0.76965593  0.75415362  1
  O  O340  1  0.60094858  0.25458628  0.26368191  1
  O  O341  1  0.59568020  0.26075346  0.74481467  1
  O  O342  1  0.63622272  0.73052404  0.26669517  1
  O  O343  1  0.62714021  0.77365819  0.75816162  1
  O  O344  1  0.40170253  0.26060751  0.23732419  1
  O  O345  1  0.37744248  0.25786800  0.75567769  1
  O  O346  1  0.37097993  0.72149614  0.24220388  1
  O  O347  1  0.35996895  0.71429524  0.78016888  1
  O  O348  1  0.89362938  0.28915955  0.22884359  1
  O  O349  1  0.86640770  0.24030013  0.74389767  1
  O  O350  1  0.82774482  0.76904636  0.22073656  1
  O  O351  1  0.87181679  0.74746677  0.73077593  1
  O  O352  1  0.38555518  0.49413672  0.48773168  1
  O  O353  1  0.39703080  0.49113594  0.99804129  1
  O  O354  1  0.43501559  1.02554956  0.61537118  1
  O  O355  1  0.36133095  0.96396423  0.99396467  1
  O  O356  1  0.88980467  0.46873481  0.53658315  1
  O  O357  1  0.87303830  0.47983941  0.99513521  1
  O  O358  1  0.87843794  1.04959373  0.46108639  1
  O  O359  1  0.86825724  1.00983240  0.98484733  1
  O  O360  1  0.13471226  0.01141555  0.01101265  1
  O  O361  1  0.13576318  0.05627820  0.51284059  1
  O  O362  1  0.12257875  0.54454400  -0.06872414  1
  O  O363  1  0.10511575  0.49231588  0.49095172  1
  O  O364  1  0.62902209  0.00580166  0.00608246  1
  O  O365  1  0.64503714  0.01052771  0.48223351  1
  O  O366  1  0.62540594  0.51792996  -0.01222992  1
  O  O367  1  0.60708301  0.50984748  0.49684333  1
  O  O368  1  0.42129398  0.36577328  0.09216194  1
  O  O369  1  0.37281303  0.38231446  0.61214598  1
  O  O370  1  0.39608704  0.86672634  0.11772269  1
  O  O371  1  0.35555474  0.86353716  0.63988873  1
  O  O372  1  0.85568603  0.36710242  0.10665990  1
  O  O373  1  0.88490875  0.35047417  0.62652544  1
  O  O374  1  0.86866843  0.91825888  0.12515461  1
  O  O375  1  0.85806141  0.92903150  0.60718597  1
  O  O376  1  0.11757951  0.15075467  0.35253523  1
  O  O377  1  0.12562900  0.13541819  0.90266355  1
  O  O378  1  0.14381745  0.62520497  0.36644066  1
  O  O379  1  0.13034288  0.60519405  0.88410846  1
  O  O380  1  0.62890047  0.14712251  0.37848137  1
  O  O381  1  0.63143701  0.11175947  0.89118038  1
  O  O382  1  0.63575583  0.62322142  0.38734116  1
  O  O383  1  0.64748913  0.64621562  0.85654402  1
