# generated using pymatgen
data_VZnO4
_symmetry_space_group_name_H-M   'P 1'
_cell_length_a   16.96808253
_cell_length_b   16.96620352
_cell_length_c   16.89140235
_cell_angle_alpha   89.71730835
_cell_angle_beta   89.83894991
_cell_angle_gamma   89.90240700
_symmetry_Int_Tables_number   1
_chemical_formula_structural   VZnO4
_chemical_formula_sum   'V64 Zn64 O256'
_cell_volume   4862.67814840
_cell_formula_units_Z   64
loop_
 _symmetry_equiv_pos_site_id
 _symmetry_equiv_pos_as_xyz
  1  'x, y, z'
loop_
 _atom_site_type_symbol
 _atom_site_label
 _atom_site_symmetry_multiplicity
 _atom_site_fract_x
 _atom_site_fract_y
 _atom_site_fract_z
 _atom_site_occupancy
  V  V0  1  0.65554996  0.88131857  0.74856427  1
  V  V1  1  0.50021831  0.62724579  0.14464133  1
  V  V2  1  0.91951004  -0.01389467  0.36584878  1
  V  V3  1  0.05703467  0.56384951  0.04096514  1
  V  V4  1  0.02407007  0.50219054  0.49886433  1
  V  V5  1  0.87640680  0.26111108  0.12100841  1
  V  V6  1  0.23337456  0.37843352  0.12883472  1
  V  V7  1  0.59960702  0.00201618  0.62046178  1
  V  V8  1  0.23219545  0.88060597  0.12163138  1
  V  V9  1  0.00407069  0.12316853  0.12404793  1
  V  V10  1  0.74708584  0.24311483  -0.00539770  1
  V  V11  1  0.74497460  0.87141218  0.12706308  1
  V  V12  1  0.26410868  0.74638567  -0.01313588  1
  V  V13  1  0.11989103  0.38738777  0.74999564  1
  V  V14  1  0.25104007  0.40144869  0.63495142  1
  V  V15  1  0.87849787  0.89675267  0.00983809  1
  V  V16  1  0.76216707  0.62544707  0.85168011  1
  V  V17  1  0.75991496  0.51275275  0.24937255  1
  V  V18  1  0.48923426  0.23778321  0.74060337  1
  V  V19  1  0.25610401  0.24653490  -0.00700833  1
  V  V20  1  0.51485987  0.85845608  0.87266709  1
  V  V21  1  0.04438542  0.38048702  0.36975612  1
  V  V22  1  0.84558590  0.23819424  0.61662591  1
  V  V23  1  0.67234823  0.32053451  0.30180036  1
  V  V24  1  0.26558483  0.64050314  0.40283661  1
  V  V25  1  0.88079694  0.38578103  -0.02105759  1
  V  V26  1  0.11983907  0.11987625  -0.00145229  1
  V  V27  1  0.50044685  0.49984030  -0.00110905  1
  V  V28  1  0.12206162  0.75895762  0.39846884  1
  V  V29  1  0.48248064  0.12692003  0.12574388  1
  V  V30  1  0.32345014  0.07715674  0.78056615  1
  V  V31  1  0.01344610  0.76834939  0.23250378  1
  V  V32  1  0.10974686  0.25530842  0.87558947  1
  V  V33  1  0.51383692  0.61941906  0.61899644  1
  V  V34  1  0.11482017  -0.00394777  0.62159030  1
  V  V35  1  0.38742562  0.86629766  0.53873856  1
  V  V36  1  0.25336508  0.52811238  0.24534405  1
  V  V37  1  0.37829220  0.37234286  0.00823875  1
  V  V38  1  0.26364539  0.59731878  0.87898079  1
  V  V39  1  0.76622759  0.72385723  0.48270158  1
  V  V40  1  0.88628189  0.00237900  0.86974824  1
  V  V41  1  -0.00389050  0.24016176  0.73264211  1
  V  V42  1  0.35742610  0.37262067  0.49813928  1
  V  V43  1  0.63005938  0.01439962  0.13477265  1
  V  V44  1  0.38833267  0.87484358  0.00148983  1
  V  V45  1  0.49624332  0.38115264  0.36707654  1
  V  V46  1  0.49542088  0.37691126  0.87035596  1
  V  V47  1  0.47233602  0.87976046  0.37254740  1
  V  V48  1  0.38644090  0.59128387  0.75168998  1
  V  V49  1  0.87746867  0.73693441  0.12285425  1
  V  V50  1  0.62217682  0.49708949  0.13219295  1
  V  V51  1  0.50716023  0.01030358  -0.00784187  1
  V  V52  1  0.62476750  0.24671033  0.87531108  1
  V  V53  1  0.62488453  0.86819509  0.26455876  1
  V  V54  1  0.86856975  0.13707372  0.25614653  1
  V  V55  1  0.84392086  0.38274096  0.49930444  1
  V  V56  1  0.01788198  0.26213581  0.24573845  1
  V  V57  1  0.25919450  0.03192715  0.26899420  1
  V  V58  1  0.74229035  0.37499146  0.11475158  1
  V  V59  1  0.38550244  0.75032724  0.13897032  1
  V  V60  1  0.62807786  0.64064670  -0.00799400  1
  V  V61  1  0.63499887  0.38146688  0.73572717  1
  V  V62  1  0.75197752  0.11823337  0.85945081  1
  V  V63  1  0.47696833  0.24775084  0.24468158  1
  Zn  Zn64  1  0.19596173  0.18826260  0.17728250  1
  Zn  Zn65  1  0.17117732  0.17420740  0.69840161  1
  Zn  Zn66  1  0.18768411  0.68741777  0.15190388  1
  Zn  Zn67  1  0.18655313  0.56744716  0.70199270  1
  Zn  Zn68  1  0.68485316  0.18771594  0.18275274  1
  Zn  Zn69  1  0.67158073  0.18211770  0.68789663  1
  Zn  Zn70  1  0.68505101  0.68872207  0.18518618  1
  Zn  Zn71  1  0.68119920  0.69518354  0.68321086  1
  Zn  Zn72  1  0.30025102  0.30001050  0.31312145  1
  Zn  Zn73  1  0.30980000  0.31417938  0.81230328  1
  Zn  Zn74  1  0.29417280  0.80885722  0.30896450  1
  Zn  Zn75  1  0.30022149  0.86823441  0.82907954  1
  Zn  Zn76  1  0.84938366  0.36530451  0.29054052  1
  Zn  Zn77  1  0.81312497  0.30826510  0.80099088  1
  Zn  Zn78  1  0.81917147  0.82077341  0.29862864  1
  Zn  Zn79  1  0.80201557  0.81378399  0.83996967  1
  Zn  Zn80  1  0.20501846  0.45857064  0.43459408  1
  Zn  Zn81  1  0.18326684  0.43090812  0.94324420  1
  Zn  Zn82  1  0.19637688  0.94586898  0.43511330  1
  Zn  Zn83  1  0.08765314  0.91412171  0.99075054  1
  Zn  Zn84  1  0.67475883  0.46696862  0.43485634  1
  Zn  Zn85  1  0.68668332  0.44199075  0.92800982  1
  Zn  Zn86  1  0.68169455  0.92749736  0.46538158  1
  Zn  Zn87  1  0.68578095  0.94124380  0.94377193  1
  Zn  Zn88  1  0.31141106  0.05857059  0.05299036  1
  Zn  Zn89  1  0.31394076  0.06483785  0.58768549  1
  Zn  Zn90  1  0.31989069  0.56074716  0.06631105  1
  Zn  Zn91  1  0.36890886  0.57378463  0.54610355  1
  Zn  Zn92  1  0.81113723  0.07017093  0.06930211  1
  Zn  Zn93  1  0.82048476  0.05410288  0.54159064  1
  Zn  Zn94  1  0.80729415  0.55613087  0.05428258  1
  Zn  Zn95  1  0.88262158  0.57633899  0.54780272  1
  Zn  Zn96  1  0.42878661  0.43865240  0.19078922  1
  Zn  Zn97  1  0.44463295  0.43345249  0.67904838  1
  Zn  Zn98  1  0.43904038  0.94148923  0.19475092  1
  Zn  Zn99  1  0.42565716  0.96133881  0.71065455  1
  Zn  Zn100  1  0.95844911  0.45581884  0.18861012  1
  Zn  Zn101  1  0.94541663  0.41921369  0.66676027  1
  Zn  Zn102  1  0.93294045  0.94613918  0.19119693  1
  Zn  Zn103  1  0.93384198  0.93835754  0.68576655  1
  Zn  Zn104  1  0.09570312  -0.06681987  0.29084124  1
  Zn  Zn105  1  0.06669677  0.06172643  0.81726492  1
  Zn  Zn106  1  0.09108013  0.56618419  0.31850187  1
  Zn  Zn107  1  0.07633772  0.55124121  0.86039100  1
  Zn  Zn108  1  0.54358478  0.05840901  0.31144722  1
  Zn  Zn109  1  0.57398607  0.06003345  0.80649354  1
  Zn  Zn110  1  0.56170972  0.56065724  0.32598890  1
  Zn  Zn111  1  0.57107380  0.56368720  0.80942372  1
  Zn  Zn112  1  0.43751970  0.24018952  0.44209120  1
  Zn  Zn113  1  0.43427989  0.18177700  0.92382968  1
  Zn  Zn114  1  0.44430829  0.70975595  0.44759170  1
  Zn  Zn115  1  0.44021374  0.68283734  0.93462147  1
  Zn  Zn116  1  0.91352232  0.24281065  0.41489553  1
  Zn  Zn117  1  0.93285293  0.18819393  0.93525504  1
  Zn  Zn118  1  0.95844504  0.68748012  0.41470213  1
  Zn  Zn119  1  0.90131870  0.68503618  0.95161442  1
  Zn  Zn120  1  0.05993814  0.32130839  0.05537709  1
  Zn  Zn121  1  0.07289405  0.31943889  0.56439762  1
  Zn  Zn122  1  0.05104966  0.74750258  0.02060946  1
  Zn  Zn123  1  0.05243837  0.80123649  0.59576093  1
  Zn  Zn124  1  0.56198327  0.30745037  0.06125712  1
  Zn  Zn125  1  0.56013127  0.30751065  0.55951044  1
  Zn  Zn126  1  0.56268475  0.81705994  0.07166503  1
  Zn  Zn127  1  0.52152700  0.81703502  0.67393492  1
  O  O128  1  0.11150943  0.13841630  0.11194206  1
  O  O129  1  0.12116367  0.10221555  0.61812385  1
  O  O130  1  0.13206546  0.60448423  0.09209328  1
  O  O131  1  0.12216099  0.64550585  0.62949083  1
  O  O132  1  0.61726028  0.11676025  0.12469102  1
  O  O133  1  0.64570493  0.09440250  0.62579215  1
  O  O134  1  0.61177073  0.61839147  0.11980404  1
  O  O135  1  0.61506507  0.62490419  0.62340985  1
  O  O136  1  0.37174993  0.35536554  0.38862888  1
  O  O137  1  0.39153458  0.36936834  0.88519841  1
  O  O138  1  0.37352085  0.87268417  0.35870071  1
  O  O139  1  0.39829200  0.87171483  0.89541244  1
  O  O140  1  0.87981043  0.35730220  0.39815835  1
  O  O141  1  0.86684007  0.36824705  0.88024091  1
  O  O142  1  0.88249741  0.89283377  0.35690499  1
  O  O143  1  0.86347708  0.89325864  0.90012099  1
  O  O144  1  0.25208447  0.01825242  0.37094055  1
  O  O145  1  0.15598323  -0.05374428  0.86837216  1
  O  O146  1  0.24856999  0.53799002  0.36178037  1
  O  O147  1  0.26425762  0.49896725  0.89644089  1
  O  O148  1  0.72988398  0.04668411  0.38595298  1
  O  O149  1  0.74846610  0.01679430  0.88055513  1
  O  O150  1  0.74749693  0.49408204  0.34674747  1
  O  O151  1  0.73857241  0.52572965  0.87590847  1
  O  O152  1  0.25846183  0.48470719  0.12728895  1
  O  O153  1  0.24540465  0.50013230  0.63031809  1
  O  O154  1  0.25673896  0.97783108  0.10804970  1
  O  O155  1  0.21993351  0.99990023  0.63047472  1
  O  O156  1  0.74138248  0.48925885  0.12795990  1
  O  O157  1  0.79281382  0.51490432  0.64128862  1
  O  O158  1  0.73334648  1.00185303  0.12366993  1
  O  O159  1  0.74723904  0.97171991  0.54685932  1
  O  O160  1  0.00355977  0.37413055  0.25679203  1
  O  O161  1  0.01645376  0.36312423  0.74138365  1
  O  O162  1  0.01576782  0.87200973  0.22835368  1
  O  O163  1  -0.00927969  0.83379915  0.69491450  1
  O  O164  1  0.48898730  0.35882166  0.25299047  1
  O  O165  1  0.50335666  0.36548950  0.76271612  1
  O  O166  1  0.51597551  0.87993395  0.25995919  1
  O  O167  1  0.49474646  0.88279655  0.77324388  1
  O  O168  1  0.49591993  0.13379960  0.23570417  1
  O  O169  1  0.50590002  0.14095472  0.76483042  1
  O  O170  1  0.50767176  0.61742336  0.24344090  1
  O  O171  1  0.49187557  0.61512820  0.74497572  1
  O  O172  1  0.99065020  0.15341163  0.23290572  1
  O  O173  1  1.00639108  0.14266736  0.75366420  1
  O  O174  1  0.98982068  0.62892732  0.26266716  1
  O  O175  1  1.02881507  0.65682810  0.80183873  1
  O  O176  1  0.36055788  0.25228255  -0.01083120  1
  O  O177  1  0.38220404  0.27260862  0.52885620  1
  O  O178  1  0.38743899  0.75936844  0.00762211  1
  O  O179  1  0.36660289  0.77232374  0.51356234  1
  O  O180  1  0.86534524  0.25849255  0.00354886  1
  O  O181  1  0.85872137  0.26306126  0.51166912  1
  O  O182  1  0.87765959  0.77465558  0.01870863  1
  O  O183  1  0.87310201  0.73906131  0.47733790  1
  O  O184  1  0.16946796  0.24412843  0.54712738  1
  O  O185  1  0.12673367  0.25339904  0.98530126  1
  O  O186  1  0.09132491  0.76159014  0.49457123  1
  O  O187  1  0.16824370  0.73845677  1.01431174  1
  O  O188  1  0.61763993  0.21779921  0.49414035  1
  O  O189  1  0.63583572  0.25673813  0.98767706  1
  O  O190  1  0.67254329  0.69068028  0.46289917  1
  O  O191  1  0.61785519  0.73831631  1.01039442  1
  O  O192  1  0.50262496  0.23615355  0.12968058  1
  O  O193  1  0.50356449  0.24607871  0.64115684  1
  O  O194  1  0.50018690  0.73444739  0.13023627  1
  O  O195  1  0.49264634  0.72168026  0.62936781  1
  O  O196  1  0.99137736  0.26251946  0.12964813  1
  O  O197  1  1.01145705  0.24735566  0.63105768  1
  O  O198  1  0.98853174  0.74662964  0.12377961  1
  O  O199  1  1.06432685  0.68983366  0.65098149  1
  O  O200  1  0.01252973  0.26903083  0.35563035  1
  O  O201  1  0.00665113  0.25310531  0.86612120  1
  O  O202  1  0.02069607  0.75857068  0.34736090  1
  O  O203  1  -0.08534934  0.78231475  0.79756788  1
  O  O204  1  0.49576651  0.24754891  0.35083735  1
  O  O205  1  0.50905654  0.25977489  0.87845143  1
  O  O206  1  0.50615133  0.78140585  0.38537459  1
  O  O207  1  0.51060522  0.76085635  0.87778738  1
  O  O208  1  0.26688045  0.13333820  0.49882313  1
  O  O209  1  0.23521504  0.13901981  1.00699862  1
  O  O210  1  0.26936373  0.61837820  0.50026905  1
  O  O211  1  0.28945499  0.63875467  0.98460057  1
  O  O212  1  0.74498579  0.10317356  0.42931575  1
  O  O213  1  0.75300532  0.14101338  0.99727595  1
  O  O214  1  0.79152075  0.61943069  0.48347072  1
  O  O215  1  0.72648576  0.62232698  1.01034200  1
  O  O216  1  0.25966329  0.36880310  0.00494007  1
  O  O217  1  0.25146938  0.38413732  0.51430017  1
  O  O218  1  0.28159401  0.86525058  0.00926407  1
  O  O219  1  0.28440405  0.91410591  0.51504386  1
  O  O220  1  0.75336107  0.36852916  0.00090568  1
  O  O221  1  0.74527640  0.40227737  0.49511064  1
  O  O222  1  0.74967318  0.88197779  0.02042744  1
  O  O223  1  0.74000444  0.82404238  0.48687173  1
  O  O224  1  0.15227207  0.50299328  0.24666199  1
  O  O225  1  0.11624547  0.49166681  0.76272425  1
  O  O226  1  0.16675884  0.99968077  0.23625350  1
  O  O227  1  0.10580799  0.99736030  0.72755510  1
  O  O228  1  0.63488689  0.50627197  0.23578226  1
  O  O229  1  0.62085701  0.47994024  0.75160127  1
  O  O230  1  0.61838006  0.99925869  0.23776048  1
  O  O231  1  0.63342651  0.98825104  0.74390781  1
  O  O232  1  0.35101540  -0.00592150  0.23858963  1
  O  O233  1  0.33090017  -0.02985940  0.78276725  1
  O  O234  1  0.34863620  0.48751791  0.25077496  1
  O  O235  1  0.38429568  0.49193225  0.76075697  1
  O  O236  1  0.88825434  0.02844080  0.26544190  1
  O  O237  1  0.87949792  -0.01499043  0.76972234  1
  O  O238  1  0.85992643  0.47603751  0.24103332  1
  O  O239  1  0.92641868  0.51333018  0.75596467  1
  O  O240  1  0.14322173  0.37677247  0.36855907  1
  O  O241  1  0.12715596  0.36438247  0.86150331  1
  O  O242  1  0.14164959  0.86275346  0.37484129  1
  O  O243  1  0.05563842  0.82262964  0.93637561  1
  O  O244  1  0.60957731  0.38308430  0.36173208  1
  O  O245  1  0.61740261  0.36450659  0.86842858  1
  O  O246  1  0.64400840  0.89023722  0.36230257  1
  O  O247  1  0.62261078  0.88171190  0.86426042  1
  O  O248  1  0.38474582  0.12348780  0.11586467  1
  O  O249  1  0.36309591  0.09322505  0.68541517  1
  O  O250  1  0.39390877  0.63485026  0.12323040  1
  O  O251  1  0.36725193  0.61734408  0.65403452  1
  O  O252  1  0.88581158  0.14227273  0.12597994  1
  O  O253  1  0.85925682  0.13801734  0.60511037  1
  O  O254  1  0.86727042  0.63974516  0.11009874  1
  O  O255  1  0.89202801  0.65704613  0.61775838  1
  O  O256  1  0.23962011  0.26453282  0.10058711  1
  O  O257  1  0.21616456  0.23988178  0.60774938  1
  O  O258  1  0.27757586  0.75842374  0.11163216  1
  O  O259  1  0.21715405  0.76190150  0.71086681  1
  O  O260  1  0.75317646  0.25814719  0.11328482  1
  O  O261  1  0.74842774  0.24829245  0.63092828  1
  O  O262  1  0.76295251  0.76524048  0.13258570  1
  O  O263  1  0.76043334  0.72536371  0.58655825  1
  O  O264  1  0.25174194  0.21722647  0.39651811  1
  O  O265  1  0.23697921  0.25702104  0.88732986  1
  O  O266  1  0.23628139  0.74849294  0.38904399  1
  O  O267  1  0.26617899  0.77124764  0.88806697  1
  O  O268  1  0.73170015  0.27152149  0.35942028  1
  O  O269  1  0.74621273  0.24037043  0.87719624  1
  O  O270  1  0.78004598  0.73760035  0.37561392  1
  O  O271  1  0.75151440  0.72640346  0.88487010  1
  O  O272  1  0.00711617  0.13861257  0.01236729  1
  O  O273  1  0.02412278  0.14515311  0.46717607  1
  O  O274  1  0.00570929  0.64187764  -0.01036661  1
  O  O275  1  -0.01478340  0.59963316  0.48247090  1
  O  O276  1  0.49511968  0.11617854  0.00644808  1
  O  O277  1  0.57220409  0.16028897  0.46178963  1
  O  O278  1  0.50871405  0.61370747  0.00356320  1
  O  O279  1  0.47260255  0.62289483  0.51572105  1
  O  O280  1  0.50347154  0.35692214  0.47059920  1
  O  O281  1  0.49656003  0.37682944  0.99369809  1
  O  O282  1  0.47328326  0.88564422  0.48744559  1
  O  O283  1  0.50683649  0.88289376  0.99107022  1
  O  O284  1  1.02615884  0.37857798  0.47901540  1
  O  O285  1  0.97910686  0.37076510  0.99448799  1
  O  O286  1  0.95424808  0.86422607  0.53470885  1
  O  O287  1  0.97574705  0.90069562  1.02712117  1
  O  O288  1  0.48138921  0.47725989  0.35681706  1
  O  O289  1  0.51165952  0.48162728  0.88561896  1
  O  O290  1  0.49484977  0.98233158  0.37416637  1
  O  O291  1  0.51247317  1.00332729  0.89140095  1
  O  O292  1  1.02196061  0.48380989  0.37378962  1
  O  O293  1  0.95537893  0.50590218  0.82424990  1
  O  O294  1  1.01961043  0.98581666  0.36036401  1
  O  O295  1  0.98565898  1.00856088  0.88139065  1
  O  O296  1  -0.00342907  0.02584420  0.13365063  1
  O  O297  1  0.01039329  -0.00133765  0.61953885  1
  O  O298  1  -0.00321611  0.51591102  0.10600844  1
  O  O299  1  0.00535240  0.49067358  0.59979984  1
  O  O300  1  0.50615654  0.01525945  0.12254186  1
  O  O301  1  0.50251474  0.01441763  0.64462187  1
  O  O302  1  0.50378908  0.50736935  0.12417805  1
  O  O303  1  0.49690278  0.51412628  0.62344954  1
  O  O304  1  0.24673562  0.35480878  0.22710786  1
  O  O305  1  0.23743253  0.37347458  0.74199815  1
  O  O306  1  0.23792154  0.85742421  0.22136843  1
  O  O307  1  0.17587029  0.89045392  0.82251539  1
  O  O308  1  0.74120281  0.37275805  0.23546641  1
  O  O309  1  0.73421363  0.36847933  0.74754007  1
  O  O310  1  0.74154313  0.88232437  0.23691265  1
  O  O311  1  0.75555584  0.87259981  0.75066747  1
  O  O312  1  0.26028151  0.13309397  0.24719679  1
  O  O313  1  0.22828922  0.11165245  0.77423070  1
  O  O314  1  0.25755424  0.62618057  0.22298951  1
  O  O315  1  0.26718464  0.60681287  0.76960786  1
  O  O316  1  0.77042026  0.13664454  0.23710402  1
  O  O317  1  0.75274465  0.12850284  0.76167162  1
  O  O318  1  0.75542361  0.61222620  0.23545264  1
  O  O319  1  0.74806891  0.63546410  0.75114964  1
  O  O320  1  0.30127858  0.16834590  0.43509684  1
  O  O321  1  0.36717569  0.11464625  0.86417454  1
  O  O322  1  0.36083724  0.65551894  0.37702178  1
  O  O323  1  0.37552156  0.63251075  0.85602450  1
  O  O324  1  0.87790640  0.15564427  0.35379233  1
  O  O325  1  0.86368071  0.11451835  0.87834178  1
  O  O326  1  0.93026881  0.62377938  0.31316112  1
  O  O327  1  0.86577778  0.62440334  0.86855450  1
  O  O328  1  0.13472945  0.38560534  0.11094868  1
  O  O329  1  0.13756087  0.37902968  0.64073827  1
  O  O330  1  0.13692034  0.87359420  0.09311255  1
  O  O331  1  0.12042411  0.89083192  0.62585159  1
  O  O332  1  0.63272838  0.38241917  0.11743156  1
  O  O333  1  0.61576503  0.36885080  0.63630974  1
  O  O334  1  0.63240646  0.88436598  0.13608710  1
  O  O335  1  0.61879346  0.89022750  0.64333143  1
  O  O336  1  0.11428393  0.25304378  0.23464834  1
  O  O337  1  0.11713051  0.25482685  0.76083274  1
  O  O338  1  0.10802967  0.73804191  0.21828551  1
  O  O339  1  0.06996751  0.71721212  0.80887959  1
  O  O340  1  0.61696406  0.25477095  0.24546669  1
  O  O341  1  0.61353620  0.25799556  0.75918615  1
  O  O342  1  0.63382015  0.76771261  0.25137958  1
  O  O343  1  0.62508838  0.77918981  0.73757024  1
  O  O344  1  0.37918112  0.24646420  0.24303318  1
  O  O345  1  0.38988832  0.25369481  0.75861810  1
  O  O346  1  0.37460507  0.75490166  0.23589463  1
  O  O347  1  0.27689515  0.80448088  0.71401511  1
  O  O348  1  0.88040640  0.25883322  0.23405357  1
  O  O349  1  0.88741242  0.25560002  0.72661422  1
  O  O350  1  0.89291839  0.76092354  0.22965146  1
  O  O351  1  0.93443827  0.77254911  0.72472578  1
  O  O352  1  0.38744440  0.46773520  0.50506558  1
  O  O353  1  0.39365260  0.48891220  1.00698641  1
  O  O354  1  0.34382318  0.97452997  0.51616745  1
  O  O355  1  0.39643646  0.98478439  1.00984014  1
  O  O356  1  0.88880031  0.47608932  0.49712360  1
  O  O357  1  0.86805367  0.48521823  0.99332116  1
  O  O358  1  0.88965631  1.02682118  0.45299874  1
  O  O359  1  0.86443715  1.00087741  0.99646346  1
  O  O360  1  0.12200261  0.02203750  -0.00288749  1
  O  O361  1  0.12124048  -0.00935365  0.51694953  1
  O  O362  1  0.09104743  0.49782578  -0.03560083  1
  O  O363  1  0.12340148  0.51203214  0.49545211  1
  O  O364  1  0.61042339  -0.00409768  0.01783582  1
  O  O365  1  0.59910520  -0.01492868  0.51855369  1
  O  O366  1  0.61372260  0.50179063  0.01288692  1
  O  O367  1  0.72477250  0.50888209  0.61678295  1
  O  O368  1  0.37562678  0.36822327  0.11021700  1
  O  O369  1  0.35224560  0.37897266  0.62851004  1
  O  O370  1  0.40477821  0.85878399  0.11573274  1
  O  O371  1  0.41085238  0.86981811  0.63984089  1
  O  O372  1  0.85993947  0.36979356  0.11197271  1
  O  O373  1  0.86795999  0.36394067  0.60821886  1
  O  O374  1  0.85544412  0.89262773  0.12473607  1
  O  O375  1  0.89840593  0.89906530  0.57223851  1
  O  O376  1  0.08775345  0.14041816  0.43229411  1
  O  O377  1  0.11525560  0.14016481  0.88990783  1
  O  O378  1  0.13546624  0.65206820  0.37796431  1
  O  O379  1  0.16604006  0.62236501  0.88371152  1
  O  O380  1  0.60226685  0.13245531  0.39458124  1
  O  O381  1  0.63898431  0.13687960  0.87144755  1
  O  O382  1  0.60987214  0.55546274  0.42456847  1
  O  O383  1  0.62178410  0.62852623  0.88903550  1
