# generated using pymatgen
data_VZnO4
_symmetry_space_group_name_H-M   'P 1'
_cell_length_a   16.89666289
_cell_length_b   16.91632128
_cell_length_c   16.95184210
_cell_angle_alpha   89.74156556
_cell_angle_beta   90.05158875
_cell_angle_gamma   89.92462676
_symmetry_Int_Tables_number   1
_chemical_formula_structural   VZnO4
_chemical_formula_sum   'V64 Zn64 O256'
_cell_volume   4845.27901167
_cell_formula_units_Z   64
loop_
 _symmetry_equiv_pos_site_id
 _symmetry_equiv_pos_as_xyz
  1  'x, y, z'
loop_
 _atom_site_type_symbol
 _atom_site_label
 _atom_site_symmetry_multiplicity
 _atom_site_fract_x
 _atom_site_fract_y
 _atom_site_fract_z
 _atom_site_occupancy
  V  V0  1  0.75411334  0.74021498  0.00092706  1
  V  V1  1  0.48168027  0.12136065  0.61538649  1
  V  V2  1  0.14597511  0.37712309  0.74277072  1
  V  V3  1  0.63061304  0.25018284  0.87340225  1
  V  V4  1  0.50089631  0.25260644  0.26288909  1
  V  V5  1  0.89405214  0.50762531  0.36371384  1
  V  V6  1  0.25877731  0.85893102  0.13049097  1
  V  V7  1  0.51333291  0.61560657  0.60948345  1
  V  V8  1  0.12789854  0.37642592  0.24253124  1
  V  V9  1  0.02388792  0.87318698  0.86717643  1
  V  V10  1  0.23174078  0.87601523  0.61001292  1
  V  V11  1  0.61855470  0.76079440  0.37396966  1
  V  V12  1  0.24818354  0.50584413  0.23432679  1
  V  V13  1  0.48329518  0.23392033  0.74967714  1
  V  V14  1  0.00932166  0.36593488  0.86565326  1
  V  V15  1  0.73322510  0.51219767  0.72270580  1
  V  V16  1  0.10570967  0.62851035  0.50407144  1
  V  V17  1  0.36307326  0.22620565  0.13429767  1
  V  V18  1  0.75666194  0.11129329  0.87090743  1
  V  V19  1  0.75737614  0.62904977  0.34507480  1
  V  V20  1  0.76757187  0.26952690  -0.00973399  1
  V  V21  1  0.36404340  0.36812988  0.01364266  1
  V  V22  1  0.87029740  0.09735512  0.74227040  1
  V  V23  1  0.38217061  0.62753513  0.23639669  1
  V  V24  1  0.16428271  0.50770105  0.62312147  1
  V  V25  1  0.61953901  0.36826312  0.72654784  1
  V  V26  1  0.73535789  0.11649828  0.40586832  1
  V  V27  1  0.87232025  0.37955297  0.50890092  1
  V  V28  1  0.75464617  0.74275027  0.50197071  1
  V  V29  1  0.88313425  0.87839663  0.50618374  1
  V  V30  1  0.00207366  0.87343568  0.36161576  1
  V  V31  1  0.36177964  0.38710528  0.47451969  1
  V  V32  1  0.38739084  0.76837180  0.62164378  1
  V  V33  1  0.26419278  0.12266510  0.88369760  1
  V  V34  1  0.63417548  0.26463143  0.38519292  1
  V  V35  1  0.37510725  0.61527579  0.74207696  1
  V  V36  1  0.90062549  0.76790158  0.13684687  1
  V  V37  1  0.74887531  0.87762197  0.62985785  1
  V  V38  1  0.01329357  0.35995054  0.38475653  1
  V  V39  1  0.61823684  0.00257644  0.61036090  1
  V  V40  1  0.50182207  0.49918546  0.01848185  1
  V  V41  1  -0.00586334  0.60013470  0.14995261  1
  V  V42  1  0.75493457  0.89697668  0.12956216  1
  V  V43  1  0.21907982  0.24865288  0.00196861  1
  V  V44  1  0.25107837  0.63675586  0.87955226  1
  V  V45  1  0.00386593  0.15464098  0.63561719  1
  V  V46  1  0.37807350  -0.02563581  0.35134181  1
  V  V47  1  -0.01776055  0.74727364  0.74105954  1
  V  V48  1  0.23382663  0.00802077  0.23991199  1
  V  V49  1  0.87227693  0.24208930  0.14773407  1
  V  V50  1  0.88372969  0.89064806  -0.01591869  1
  V  V51  1  0.25941502  0.62571959  0.38450763  1
  V  V52  1  0.23371178  0.25332666  0.52324049  1
  V  V53  1  0.49842413  0.36956653  0.87445977  1
  V  V54  1  0.51364165  0.74743475  0.76484656  1
  V  V55  1  0.88221096  0.01377928  0.37094026  1
  V  V56  1  0.11902974  0.10477086  0.50233413  1
  V  V57  1  0.49825728  0.76846567  0.23091687  1
  V  V58  1  0.10308748  0.61621628  -0.00204496  1
  V  V59  1  0.62994201  0.12764893  0.02055682  1
  V  V60  1  0.36927990  0.49281277  0.86850240  1
  V  V61  1  0.62292965  0.87672836  0.76144420  1
  V  V62  1  0.50899758  -0.01018796  -0.00774310  1
  V  V63  1  0.12467508  0.75175727  0.36519363  1
  Zn  Zn64  1  0.18207097  0.19813390  0.18947152  1
  Zn  Zn65  1  0.19428934  0.18586115  0.70059247  1
  Zn  Zn66  1  0.17583609  0.68074507  0.18242181  1
  Zn  Zn67  1  0.19272418  0.69275394  0.68254443  1
  Zn  Zn68  1  0.66988371  0.25033707  0.16507251  1
  Zn  Zn69  1  0.67548693  0.17508238  0.69806999  1
  Zn  Zn70  1  0.70258467  0.76023899  0.20341644  1
  Zn  Zn71  1  0.68944138  0.68914222  0.68205998  1
  Zn  Zn72  1  0.28403146  0.30374090  0.31323687  1
  Zn  Zn73  1  0.30411451  0.30533441  0.82069473  1
  Zn  Zn74  1  0.30818971  0.80729856  0.30279442  1
  Zn  Zn75  1  0.30450906  0.79647465  0.78240521  1
  Zn  Zn76  1  0.83807471  0.28371712  0.35707580  1
  Zn  Zn77  1  0.79697098  0.35725012  0.81643419  1
  Zn  Zn78  1  0.82035121  0.81887798  0.31517279  1
  Zn  Zn79  1  0.81173143  0.80021816  0.81533613  1
  Zn  Zn80  1  0.18959238  0.44587717  0.44101322  1
  Zn  Zn81  1  0.18499107  0.44278286  0.93782778  1
  Zn  Zn82  1  0.19869909  0.93340924  0.42774786  1
  Zn  Zn83  1  0.18145587  0.95186511  0.93086968  1
  Zn  Zn84  1  0.70537587  0.43958891  0.42260275  1
  Zn  Zn85  1  0.67821255  0.42528724  1.05918093  1
  Zn  Zn86  1  0.69445362  0.93399680  0.43489765  1
  Zn  Zn87  1  0.69153117  0.93748682  0.95003572  1
  Zn  Zn88  1  0.29988177  0.04703280  0.04743781  1
  Zn  Zn89  1  0.29055183  0.05963511  0.58325140  1
  Zn  Zn90  1  0.32029455  0.56407119  0.05734910  1
  Zn  Zn91  1  0.33386752  0.56938052  0.55055795  1
  Zn  Zn92  1  0.83043196  0.07385320  0.05711097  1
  Zn  Zn93  1  0.81749496  0.05392349  0.56590425  1
  Zn  Zn94  1  0.79188390  0.60999290  0.13523793  1
  Zn  Zn95  1  0.80803241  0.54398712  0.54380006  1
  Zn  Zn96  1  0.42724441  0.43514585  0.20428768  1
  Zn  Zn97  1  0.44209067  0.43023735  0.67333766  1
  Zn  Zn98  1  0.42873011  0.94378475  0.16542875  1
  Zn  Zn99  1  0.44507733  0.93873394  0.53994696  1
  Zn  Zn100  1  0.93911019  0.41441097  0.19633559  1
  Zn  Zn101  1  0.92289978  0.43827291  0.71589101  1
  Zn  Zn102  1  0.93916360  0.95333347  0.18721958  1
  Zn  Zn103  1  0.93821478  0.92325392  0.69303050  1
  Zn  Zn104  1  0.08398722  0.04335423  0.33775615  1
  Zn  Zn105  1  0.04681113  0.06283493  0.80813178  1
  Zn  Zn106  1  0.07706124  0.55872794  0.31755099  1
  Zn  Zn107  1  0.07520358  0.54611755  0.81457474  1
  Zn  Zn108  1  0.53814254  0.08097935  0.33505602  1
  Zn  Zn109  1  0.56505269  0.05641073  0.80642818  1
  Zn  Zn110  1  0.57233904  0.58428675  0.31107335  1
  Zn  Zn111  1  0.55074736  0.54685546  0.80028897  1
  Zn  Zn112  1  0.43671956  0.18207196  0.42314343  1
  Zn  Zn113  1  0.44178977  0.18190642  0.94611714  1
  Zn  Zn114  1  0.43431470  0.70236850  0.43831303  1
  Zn  Zn115  1  0.44515838  0.67254267  0.93467387  1
  Zn  Zn116  1  0.94562494  0.19001218  0.45528175  1
  Zn  Zn117  1  0.92309741  0.22780587  0.87903146  1
  Zn  Zn118  1  0.93405181  0.69100402  0.43382853  1
  Zn  Zn119  1  0.94746465  0.71005894  0.94846770  1
  Zn  Zn120  1  0.03854326  0.33861337  0.05761908  1
  Zn  Zn121  1  0.05944276  0.33335506  0.57349702  1
  Zn  Zn122  1  0.07411535  0.80316819  0.04095132  1
  Zn  Zn123  1  0.05960320  0.80176329  0.56334994  1
  Zn  Zn124  1  0.52935259  0.31469979  0.08151572  1
  Zn  Zn125  1  0.55440959  0.28778382  0.55500465  1
  Zn  Zn126  1  0.57441059  0.81724789  0.06007687  1
  Zn  Zn127  1  0.57120376  0.80340700  0.56316489  1
  O  O128  1  0.08098536  0.14740289  0.13601349  1
  O  O129  1  0.10581173  0.13576875  0.63809302  1
  O  O130  1  0.09335677  0.62634605  0.11446801  1
  O  O131  1  0.14026425  0.62231351  0.60933155  1
  O  O132  1  0.65040097  0.14238312  0.11599225  1
  O  O133  1  0.61896512  0.10587136  0.62931246  1
  O  O134  1  0.64307188  0.54404122  0.17070273  1
  O  O135  1  0.61231504  0.63228745  0.61707401  1
  O  O136  1  0.36289096  0.36860110  0.37652228  1
  O  O137  1  0.38252867  0.37481127  0.87723041  1
  O  O138  1  0.36810264  0.87581258  0.37347580  1
  O  O139  1  0.36940554  0.82986367  0.93071327  1
  O  O140  1  0.89506776  0.38540875  0.37664183  1
  O  O141  1  0.90330762  0.33912619  0.83877769  1
  O  O142  1  0.88623556  0.88480845  0.38390467  1
  O  O143  1  0.86668921  0.87816398  0.88518813  1
  O  O144  1  0.25774735  -0.00899744  0.35027880  1
  O  O145  1  0.26668149  0.02222137  0.92487002  1
  O  O146  1  0.24177916  0.52361573  0.36787213  1
  O  O147  1  0.26782129  0.50595288  0.87440067  1
  O  O148  1  0.76329925  0.01389358  0.37916179  1
  O  O149  1  0.75113947  0.01436416  0.87562647  1
  O  O150  1  0.75416596  0.52612375  0.36651155  1
  O  O151  1  0.68995279  0.57817659  0.90415938  1
  O  O152  1  0.25277483  0.51119418  0.13477896  1
  O  O153  1  0.26319070  0.50509594  0.62028409  1
  O  O154  1  0.25106582  0.98693306  0.13474774  1
  O  O155  1  0.25316868  0.97029916  0.64234877  1
  O  O156  1  0.71443197  0.51588578  0.13411237  1
  O  O157  1  0.73981175  0.50646957  0.62359392  1
  O  O158  1  0.77270037  0.99663596  0.12302831  1
  O  O159  1  0.73863744  0.98460442  0.62319790  1
  O  O160  1  0.02138403  0.37605448  0.26914543  1
  O  O161  1  0.02318413  0.38290168  0.74447872  1
  O  O162  1  -0.00040255  0.88261766  0.26418052  1
  O  O163  1  0.00180358  0.85581120  0.75591019  1
  O  O164  1  0.47954082  0.35158274  0.26168086  1
  O  O165  1  0.50082996  0.36241730  0.75497278  1
  O  O166  1  0.49125410  0.86665856  0.23678372  1
  O  O167  1  0.51593784  0.85544707  0.76008522  1
  O  O168  1  0.45658598  0.16166668  0.30850163  1
  O  O169  1  0.49748142  0.13012321  0.74557599  1
  O  O170  1  0.48453783  0.62200926  0.25308788  1
  O  O171  1  0.49872096  0.62995934  0.74042111  1
  O  O172  1  1.03969171  0.09364166  0.17820698  1
  O  O173  1  0.97864343  0.13222012  0.74580815  1
  O  O174  1  1.00399979  0.61479530  0.24699131  1
  O  O175  1  1.04184867  0.65128789  0.75607598  1
  O  O176  1  0.38080909  0.25880270  0.01638714  1
  O  O177  1  0.34355060  0.24309353  0.46625811  1
  O  O178  1  0.38244215  0.77477023  -0.02161268  1
  O  O179  1  0.37070916  0.74668621  0.52636072  1
  O  O180  1  0.86570055  0.25151072  -0.02006214  1
  O  O181  1  0.87201291  0.27473128  0.48084284  1
  O  O182  1  0.87717381  0.76942174  0.01386293  1
  O  O183  1  0.86418674  0.76617967  0.49162859  1
  O  O184  1  0.13299547  0.25982199  0.51502770  1
  O  O185  1  0.12194659  0.26353967  1.01375051  1
  O  O186  1  0.12055847  0.73413691  0.49211436  1
  O  O187  1  0.13043731  0.71541797  0.99556475  1
  O  O188  1  0.63892816  0.26384495  0.48613807  1
  O  O189  1  0.64748550  0.23828446  0.98435295  1
  O  O190  1  0.64463601  0.75167479  0.48356178  1
  O  O191  1  0.65384636  0.75484700  1.00886273  1
  O  O192  1  0.47713840  0.23891817  0.15243418  1
  O  O193  1  0.50149044  0.23195446  0.64237093  1
  O  O194  1  0.51136274  0.75386360  0.13278853  1
  O  O195  1  0.49629304  0.74144902  0.63301858  1
  O  O196  1  0.94280625  0.31838422  0.12335067  1
  O  O197  1  0.99364090  0.25260423  0.62920359  1
  O  O198  1  1.00142763  0.77015322  0.12399197  1
  O  O199  1  0.99085921  0.75165988  0.63995601  1
  O  O200  1  0.00412407  0.26036832  0.38018331  1
  O  O201  1  0.03102582  0.26602423  0.87167710  1
  O  O202  1  0.00446396  0.76559004  0.37904290  1
  O  O203  1  -0.00476723  0.76380975  0.86221430  1
  O  O204  1  0.52701942  0.26421280  0.38192365  1
  O  O205  1  0.50656349  0.24856733  0.86621277  1
  O  O206  1  0.51603688  0.74876077  0.37175888  1
  O  O207  1  0.51006098  0.73211173  0.86339390  1
  O  O208  1  0.22111608  0.13299741  0.52523461  1
  O  O209  1  0.23687313  0.14360958  0.99913273  1
  O  O210  1  0.25612430  0.62902334  0.48573310  1
  O  O211  1  0.27790366  0.63337501  0.97681147  1
  O  O212  1  0.74785235  0.12224659  0.50403950  1
  O  O213  1  0.75199256  0.13256373  0.98010007  1
  O  O214  1  0.76507034  0.64259549  0.50344213  1
  O  O215  1  0.76672430  0.64192228  1.02817923  1
  O  O216  1  0.25977697  0.36179306  -0.01121308  1
  O  O217  1  0.25602202  0.36516285  0.50006620  1
  O  O218  1  0.21260496  0.88041894  0.02379682  1
  O  O219  1  0.24600061  0.87207487  0.51116323  1
  O  O220  1  0.75607438  0.36966637  -0.00707687  1
  O  O221  1  0.76924169  0.39068666  0.50175727  1
  O  O222  1  0.76985906  0.87622804  0.01022522  1
  O  O223  1  0.75965633  0.86750934  0.50870978  1
  O  O224  1  0.13802454  0.49392906  0.24768229  1
  O  O225  1  0.13925013  0.51131759  0.72371074  1
  O  O226  1  0.13172718  0.99228901  0.25293234  1
  O  O227  1  0.08654327  0.99710462  0.70807910  1
  O  O228  1  0.62672007  0.50554700  0.23703092  1
  O  O229  1  0.63055221  0.47880422  0.75297268  1
  O  O230  1  0.59381706  1.03222178  0.22411320  1
  O  O231  1  0.61570208  0.98108605  0.73439945  1
  O  O232  1  0.36543208  -0.00630300  0.24972417  1
  O  O233  1  0.37712614  -0.05204054  0.81271534  1
  O  O234  1  0.36226815  0.51661161  0.25307835  1
  O  O235  1  0.38748680  0.50841531  0.75167842  1
  O  O236  1  0.88248124  0.01012456  0.27114213  1
  O  O237  1  0.87129388  -0.00074115  0.74875293  1
  O  O238  1  0.87871526  0.49073625  0.26474146  1
  O  O239  1  0.81875203  0.46916930  0.76529290  1
  O  O240  1  0.11642625  0.38477717  0.37800303  1
  O  O241  1  0.12131909  0.40169832  0.85108920  1
  O  O242  1  0.11307775  0.86286082  0.38199869  1
  O  O243  1  0.12549485  0.87484546  0.87146414  1
  O  O244  1  0.65863613  0.35847063  0.35929222  1
  O  O245  1  0.60792662  0.36026044  0.86764491  1
  O  O246  1  0.64255342  0.85871136  0.36691029  1
  O  O247  1  0.64510736  0.88379245  0.85762060  1
  O  O248  1  0.35874047  0.12964841  0.12014767  1
  O  O249  1  0.38354516  0.11342336  0.62789238  1
  O  O250  1  0.37237106  0.62933653  0.13770026  1
  O  O251  1  0.38318052  0.63118921  0.63595102  1
  O  O252  1  0.89423948  0.14873727  0.11670552  1
  O  O253  1  0.88707719  0.11398757  0.63605863  1
  O  O254  1  0.90087518  0.64983112  0.12447585  1
  O  O255  1  0.89521734  0.59947219  0.62584762  1
  O  O256  1  0.25225565  0.24983043  0.10723333  1
  O  O257  1  0.25691643  0.24630850  0.62070956  1
  O  O258  1  0.23918646  0.75859046  0.13095800  1
  O  O259  1  0.27105762  0.78084801  0.66476736  1
  O  O260  1  0.77206198  0.25412335  0.10507722  1
  O  O261  1  0.75345119  0.23916846  0.61625316  1
  O  O262  1  0.77626183  0.76855454  0.11836930  1
  O  O263  1  0.74448237  0.76174110  0.60926645  1
  O  O264  1  0.27581554  0.23062543  0.41333428  1
  O  O265  1  0.24328320  0.23992864  0.89386822  1
  O  O266  1  0.23262919  0.74197143  0.36828469  1
  O  O267  1  0.25054745  0.73646387  0.86066546  1
  O  O268  1  0.74185661  0.21767113  0.36403046  1
  O  O269  1  0.74515869  0.26214655  0.87530323  1
  O  O270  1  0.75606233  0.74130903  0.37795068  1
  O  O271  1  0.76968868  0.73920353  0.89984444  1
  O  O272  1  0.08138508  0.08508032  -0.03334624  1
  O  O273  1  0.00792038  0.12582504  0.52820134  1
  O  O274  1  0.00275689  0.61323606  -0.02340481  1
  O  O275  1  0.00622570  0.62562830  0.50129655  1
  O  O276  1  0.52947163  0.14316399  0.00751602  1
  O  O277  1  0.49298658  0.14704922  0.51782935  1
  O  O278  1  0.48332326  0.59940460  0.00777059  1
  O  O279  1  0.48808726  0.63000204  0.51184735  1
  O  O280  1  0.45943493  0.35370203  0.52244145  1
  O  O281  1  0.48331558  0.37355525  0.99200000  1
  O  O282  1  0.50691484  0.86134474  0.49354748  1
  O  O283  1  0.52556469  0.89045493  0.98811201  1
  O  O284  1  0.99704341  0.37938227  0.48855747  1
  O  O285  1  1.00732711  0.39483736  0.96315624  1
  O  O286  1  0.98488619  0.87013402  0.50472015  1
  O  O287  1  0.99587616  0.86775263  0.97688756  1
  O  O288  1  0.54065445  0.49806972  0.40023549  1
  O  O289  1  0.48927204  0.48576816  0.87870897  1
  O  O290  1  0.48007578  0.99012345  0.36311970  1
  O  O291  1  0.50810944  1.02187302  0.89505296  1
  O  O292  1  0.99524746  0.50333671  0.37467733  1
  O  O293  1  0.98343171  0.47910908  0.81605364  1
  O  O294  1  0.99245911  0.98719087  0.38273657  1
  O  O295  1  0.99910260  0.97185043  0.85599655  1
  O  O296  1  0.01179755  0.03421126  0.13374472  1
  O  O297  1  0.03017163  -0.00393435  0.65556604  1
  O  O298  1  -0.02155329  0.50281860  0.13195358  1
  O  O299  1  -0.04916816  0.55889895  0.65468282  1
  O  O300  1  0.49936461  0.00810934  0.10511461  1
  O  O301  1  0.50679020  0.01054863  0.61271944  1
  O  O302  1  0.48985570  0.47969842  0.11677512  1
  O  O303  1  0.49891953  0.51555836  0.62429935  1
  O  O304  1  0.24748087  0.40144236  0.25445212  1
  O  O305  1  0.24694624  0.38103052  0.75622763  1
  O  O306  1  0.24524051  0.87632756  0.23436579  1
  O  O307  1  0.31129259  0.91732533  0.79790200  1
  O  O308  1  0.75556819  0.37416214  0.23932401  1
  O  O309  1  0.72013430  0.35728681  0.73210950  1
  O  O310  1  0.75752479  0.86934021  0.23330577  1
  O  O311  1  0.74420552  0.85926861  0.73414603  1
  O  O312  1  0.23472487  0.10892718  0.23734697  1
  O  O313  1  0.23034266  0.12055712  0.78676417  1
  O  O314  1  0.25407207  0.62164786  0.25347351  1
  O  O315  1  0.27165891  0.62884021  0.75260038  1
  O  O316  1  0.65588861  -0.00076428  0.24485066  1
  O  O317  1  0.76502894  0.12667828  0.75155591  1
  O  O318  1  0.75743025  0.64386760  0.24403024  1
  O  O319  1  0.73734028  0.60955243  0.74712526  1
  O  O320  1  0.36729186  0.05878890  0.43318581  1
  O  O321  1  0.36376532  0.13646953  0.87970788  1
  O  O322  1  0.36122716  0.64074035  0.36705032  1
  O  O323  1  0.37529582  0.61461433  0.85892675  1
  O  O324  1  0.87578946  0.11490376  0.39371204  1
  O  O325  1  0.86639639  0.13145105  0.85342684  1
  O  O326  1  0.86917781  0.61913299  0.37045539  1
  O  O327  1  0.84924769  0.52621725  0.91768179  1
  O  O328  1  0.11216433  0.36928458  0.14470609  1
  O  O329  1  0.13313685  0.40147777  0.62916261  1
  O  O330  1  0.14787295  0.88565284  0.07902556  1
  O  O331  1  0.13398356  0.85892010  0.62758676  1
  O  O332  1  0.62667093  0.34574497  0.12115291  1
  O  O333  1  0.60032152  0.36744066  0.62988803  1
  O  O334  1  0.65495985  0.88395484  0.11654317  1
  O  O335  1  0.63398521  0.88022235  0.63000102  1
  O  O336  1  0.16587910  0.27995862  0.26789713  1
  O  O337  1  0.13252450  0.27820884  0.73657944  1
  O  O338  1  0.11479424  0.73746595  0.26815605  1
  O  O339  1  0.10042861  0.71214170  0.75594473  1
  O  O340  1  0.60475263  0.23477588  0.25983927  1
  O  O341  1  0.61106223  0.25416860  0.75395557  1
  O  O342  1  0.60771710  0.74621469  0.25878995  1
  O  O343  1  0.62050505  0.75740501  0.74590071  1
  O  O344  1  0.34540375  0.24797305  0.23185950  1
  O  O345  1  0.38567192  0.25037266  0.75665119  1
  O  O346  1  0.39101960  0.74070001  0.25182170  1
  O  O347  1  0.39737575  0.73782855  0.74519588  1
  O  O348  1  0.86270298  0.24574043  0.24702123  1
  O  O349  1  0.81515846  0.26295407  0.64869195  1
  O  O350  1  0.88654909  0.76515346  0.23592933  1
  O  O351  1  0.88234820  0.73401795  0.75363335  1
  O  O352  1  0.36952704  0.48662897  0.48254235  1
  O  O353  1  0.37696192  0.48099088  0.99096296  1
  O  O354  1  0.35894833  1.00777610  0.49974790  1
  O  O355  1  0.40664049  1.00614431  1.01509187  1
  O  O356  1  0.87805997  0.49163068  0.47550323  1
  O  O357  1  0.86916048  0.49932976  0.98167619  1
  O  O358  1  0.87230695  0.98412180  0.49196822  1
  O  O359  1  0.88650369  0.99067102  0.99878676  1
  O  O360  1  0.10222756  0.02075440  0.00158968  1
  O  O361  1  0.12933761  0.00599553  0.49819629  1
  O  O362  1  0.14491420  0.52145235  0.00767160  1
  O  O363  1  0.13142782  0.51650239  0.51414163  1
  O  O364  1  0.62697641  0.02163047  0.00177338  1
  O  O365  1  0.62819577  -0.00911898  0.51167654  1
  O  O366  1  0.60072735  0.48691899  0.00183821  1
  O  O367  1  0.58931785  0.48636921  0.45695849  1
  O  O368  1  0.36719887  0.37452451  0.11316663  1
  O  O369  1  0.40141465  0.35852691  0.58695581  1
  O  O370  1  0.35842651  0.86715425  0.11375713  1
  O  O371  1  0.38983385  0.86888157  0.62375120  1
  O  O372  1  0.79761580  0.39322433  0.18211210  1
  O  O373  1  0.89420091  0.39665258  0.60705918  1
  O  O374  1  0.88345973  0.88052948  0.11726514  1
  O  O375  1  0.86259062  0.88303176  0.61604599  1
  O  O376  1  0.10792211  0.12938938  0.40433259  1
  O  O377  1  0.12099832  0.09585368  0.89003650  1
  O  O378  1  0.12832366  0.63396902  0.38930922  1
  O  O379  1  0.14746987  0.60890654  0.88277590  1
  O  O380  1  0.63402236  0.11558634  0.38643034  1
  O  O381  1  0.64742197  0.13665665  0.85668392  1
  O  O382  1  0.65034565  0.64281348  0.36805682  1
  O  O383  1  0.63098222  0.61560965  0.88153788  1
