# generated using pymatgen
data_VZnO4
_symmetry_space_group_name_H-M   'P 1'
_cell_length_a   16.91019634
_cell_length_b   17.04365800
_cell_length_c   16.94293000
_cell_angle_alpha   89.97008514
_cell_angle_beta   90.00425052
_cell_angle_gamma   90.25387378
_symmetry_Int_Tables_number   1
_chemical_formula_structural   VZnO4
_chemical_formula_sum   'V64 Zn64 O256'
_cell_volume   4883.10040218
_cell_formula_units_Z   64
loop_
 _symmetry_equiv_pos_site_id
 _symmetry_equiv_pos_as_xyz
  1  'x, y, z'
loop_
 _atom_site_type_symbol
 _atom_site_label
 _atom_site_symmetry_multiplicity
 _atom_site_fract_x
 _atom_site_fract_y
 _atom_site_fract_z
 _atom_site_occupancy
  V  V0  1  0.11739833  0.12251891  0.49088567  1
  V  V1  1  0.87093347  0.87332756  0.51130933  1
  V  V2  1  0.76157511  0.63261169  0.38403964  1
  V  V3  1  -0.00165412  0.23824823  0.26163829  1
  V  V4  1  0.63110281  0.50679593  0.62238768  1
  V  V5  1  0.37451949  -0.01364991  0.37554027  1
  V  V6  1  0.24905107  0.23981811  0.49090128  1
  V  V7  1  0.49787714  0.76231895  0.74646226  1
  V  V8  1  0.51763985  0.13119549  0.12795052  1
  V  V9  1  0.13894396  0.87375966  0.74925007  1
  V  V10  1  0.51184487  -0.00955201  0.49208212  1
  V  V11  1  0.86788888  0.00184070  0.87549514  1
  V  V12  1  0.24918746  0.75717981  0.02985060  1
  V  V13  1  0.51050172  0.78494910  0.27777300  1
  V  V14  1  0.35617651  0.87257027  0.50783538  1
  V  V15  1  0.74110128  0.23755414  -0.01222868  1
  V  V16  1  0.26251736  0.38281117  0.61865749  1
  V  V17  1  0.02453501  0.48100782  -0.02828131  1
  V  V18  1  0.37519321  0.23392835  0.62699231  1
  V  V19  1  0.37598451  0.62454693  0.77006041  1
  V  V20  1  0.88695394  0.75508860  0.12928014  1
  V  V21  1  0.39591424  0.61469538  0.24992523  1
  V  V22  1  0.25776009  0.01551507  0.74810727  1
  V  V23  1  0.55576305  0.28372494  0.80992119  1
  V  V24  1  0.36779661  0.01359913  0.88832086  1
  V  V25  1  0.16469524  0.23799450  0.86773920  1
  V  V26  1  0.36796171  0.39286572  -0.00443571  1
  V  V27  1  0.11993683  0.36874774  0.24564237  1
  V  V28  1  0.37532399  0.12978480  0.24095764  1
  V  V29  1  0.50210445  0.12192097  0.62475998  1
  V  V30  1  -0.00232009  0.60004268  0.64936617  1
  V  V31  1  0.12552146  -0.00458689  0.61810954  1
  V  V32  1  0.14407837  0.74137925  0.87550251  1
  V  V33  1  0.24434419  -0.02325713  0.23973051  1
  V  V34  1  -0.01862708  0.29067042  0.75872521  1
  V  V35  1  0.63303099  0.39678578  0.23262030  1
  V  V36  1  0.88377351  0.24321721  0.10332090  1
  V  V37  1  -0.00510491  0.62062316  0.08646740  1
  V  V38  1  0.00406436  0.88055718  0.87149000  1
  V  V39  1  -0.02657885  0.74314631  0.75629268  1
  V  V40  1  0.01964107  0.00926826  -0.00317188  1
  V  V41  1  0.23741739  0.51171185  0.25162870  1
  V  V42  1  0.24626013  0.11799661  0.37005337  1
  V  V43  1  0.36028600  0.74158707  0.62117046  1
  V  V44  1  0.02124058  0.12919968  0.11449138  1
  V  V45  1  0.76539076  0.12792076  0.36631357  1
  V  V46  1  0.74110226  0.00410143  0.74270117  1
  V  V47  1  0.08092752  0.74203793  0.39399444  1
  V  V48  1  0.49688343  0.51779328  0.48656504  1
  V  V49  1  0.63401190  0.14987190  0.50772254  1
  V  V50  1  0.49896079  0.88628671  0.88027435  1
  V  V51  1  0.76777511  0.38516572  0.11400239  1
  V  V52  1  -0.00835104  0.37293907  0.38948046  1
  V  V53  1  0.51972256  0.00889636  0.00462406  1
  V  V54  1  0.62463323  0.88348249  0.73925172  1
  V  V55  1  0.26215309  0.24356394  0.02057578  1
  V  V56  1  0.73395500  0.75538426  0.00839077  1
  V  V57  1  -0.00079067  0.12951781  0.62830072  1
  V  V58  1  0.87988692  0.12362909  0.75405927  1
  V  V59  1  0.39087501  0.36558304  0.47211457  1
  V  V60  1  0.63020000  0.25947478  0.34537711  1
  V  V61  1  0.87038659  0.88210576  0.00634934  1
  V  V62  1  0.15725819  0.37564181  0.75275068  1
  V  V63  1  0.71845027  0.50976729  0.80056832  1
  Zn  Zn64  1  0.18721957  0.18554773  0.18987510  1
  Zn  Zn65  1  0.18940746  0.18625881  0.67952217  1
  Zn  Zn66  1  0.18862556  0.65142559  0.14695001  1
  Zn  Zn67  1  0.19072949  0.67532635  0.69562006  1
  Zn  Zn68  1  0.70493520  0.18279979  0.18195040  1
  Zn  Zn69  1  0.69831209  0.18851069  0.80958113  1
  Zn  Zn70  1  0.70968949  0.73945238  0.21761042  1
  Zn  Zn71  1  0.61517525  0.64128690  0.73666045  1
  Zn  Zn72  1  0.30384950  0.30155140  0.30221169  1
  Zn  Zn73  1  0.36008117  0.29716131  0.82601757  1
  Zn  Zn74  1  0.32319159  0.79702383  0.20051071  1
  Zn  Zn75  1  0.32033593  0.82395476  0.81273317  1
  Zn  Zn76  1  0.81624095  0.30648350  0.29931239  1
  Zn  Zn77  1  0.80015719  0.32069841  0.77349432  1
  Zn  Zn78  1  0.84845147  0.81306645  0.31408442  1
  Zn  Zn79  1  0.79689511  0.81697526  0.82444543  1
  Zn  Zn80  1  0.19863313  0.40574853  0.41316194  1
  Zn  Zn81  1  0.20723588  0.43389544  0.93080145  1
  Zn  Zn82  1  0.18132658  0.93266048  0.42889213  1
  Zn  Zn83  1  0.19984371  0.93290175  0.93710857  1
  Zn  Zn84  1  0.64984134  0.45215396  0.42275623  1
  Zn  Zn85  1  0.69979173  0.38707899  0.91059560  1
  Zn  Zn86  1  0.69713360  0.94851528  0.41417648  1
  Zn  Zn87  1  0.68439651  0.93133283  0.93524144  1
  Zn  Zn88  1  0.30407336  0.05946247  0.06653012  1
  Zn  Zn89  1  0.30764455  0.05700996  0.55984273  1
  Zn  Zn90  1  0.30640531  0.56508043  0.07583633  1
  Zn  Zn91  1  0.38641423  0.52655234  0.62788081  1
  Zn  Zn92  1  0.82706286  0.07454061  0.04833458  1
  Zn  Zn93  1  0.81032775  0.06905226  0.56710128  1
  Zn  Zn94  1  0.80230720  0.58322076  0.06511799  1
  Zn  Zn95  1  0.80498905  0.59825640  0.68878251  1
  Zn  Zn96  1  0.43113028  0.43468700  0.21096236  1
  Zn  Zn97  1  0.50303460  0.36460677  0.61924313  1
  Zn  Zn98  1  0.45102229  0.95603745  0.19873999  1
  Zn  Zn99  1  0.43612639  0.94361649  0.67911294  1
  Zn  Zn100  1  0.97169757  0.42011413  0.14915216  1
  Zn  Zn101  1  0.92760337  0.47558009  0.78590125  1
  Zn  Zn102  1  0.94591541  0.94954623  0.18568767  1
  Zn  Zn103  1  0.94639484  0.94829984  0.69633159  1
  Zn  Zn104  1  0.05345009  0.04598249  0.29971774  1
  Zn  Zn105  1  0.07182959  0.06436753  0.81288131  1
  Zn  Zn106  1  0.06316282  0.53641609  0.33342771  1
  Zn  Zn107  1  0.08263812  0.56111410  0.79784118  1
  Zn  Zn108  1  0.54539755  0.10628651  0.33636065  1
  Zn  Zn109  1  0.55514532  0.07614216  0.81694675  1
  Zn  Zn110  1  0.57809324  0.56559362  0.30806860  1
  Zn  Zn111  1  0.50874903  0.46503829  0.76779840  1
  Zn  Zn112  1  0.44347285  0.18745582  0.43577979  1
  Zn  Zn113  1  0.43640115  0.18878946  0.94656147  1
  Zn  Zn114  1  0.42373382  0.69956252  0.42411575  1
  Zn  Zn115  1  0.42042754  0.71287471  0.93509409  1
  Zn  Zn116  1  0.93155660  0.22230382  0.46134432  1
  Zn  Zn117  1  0.94922537  0.19266460  0.92698024  1
  Zn  Zn118  1  0.91903339  0.65739871  0.51276740  1
  Zn  Zn119  1  0.94000882  0.70310024  0.93860513  1
  Zn  Zn120  1  0.07988112  0.31353935  0.04726213  1
  Zn  Zn121  1  0.07019437  0.30844691  0.57153543  1
  Zn  Zn122  1  0.06556737  0.81220782  0.04672784  1
  Zn  Zn123  1  0.06213050  0.80314863  0.58400871  1
  Zn  Zn124  1  0.56989876  0.31174705  0.07340232  1
  Zn  Zn125  1  0.66395425  0.29707245  0.62912323  1
  Zn  Zn126  1  0.57182930  0.81000667  0.11879552  1
  Zn  Zn127  1  0.54825870  0.82723588  0.56853564  1
  O  O128  1  0.12022559  0.12936647  0.11149638  1
  O  O129  1  0.11723400  0.11375047  0.61719831  1
  O  O130  1  0.07751639  0.62063943  0.14278790  1
  O  O131  1  0.09901232  0.61168730  0.68560264  1
  O  O132  1  0.61658466  0.12059721  0.13930854  1
  O  O133  1  0.60921864  0.12374635  0.60976823  1
  O  O134  1  0.60295396  0.55068503  0.08745228  1
  O  O135  1  0.58724601  0.59984295  0.63369324  1
  O  O136  1  0.37784946  0.35043891  0.37268253  1
  O  O137  1  0.38586248  0.38566833  0.89520419  1
  O  O138  1  0.37495136  0.88756298  0.38538770  1
  O  O139  1  0.38972445  0.90275833  0.85989981  1
  O  O140  1  0.89158728  0.35417910  0.37196636  1
  O  O141  1  0.90867509  0.36163527  0.78240592  1
  O  O142  1  0.88418897  0.86541631  0.40870732  1
  O  O143  1  0.88471931  0.88469594  0.88656120  1
  O  O144  1  0.25814194  0.00120225  0.37058652  1
  O  O145  1  0.26047225  -0.00252318  0.86182246  1
  O  O146  1  0.24452319  0.48661951  0.35489386  1
  O  O147  1  0.25078170  0.49950629  0.85181867  1
  O  O148  1  0.76275475  0.02548982  0.37307649  1
  O  O149  1  0.76411120  -0.00501702  0.87255471  1
  O  O150  1  0.74537655  0.53171984  0.38708217  1
  O  O151  1  0.70051642  0.51143844  0.89886644  1
  O  O152  1  0.24942210  0.49076547  0.15170062  1
  O  O153  1  0.28096315  0.47956502  0.61041710  1
  O  O154  1  0.25382915  0.99243060  0.14037936  1
  O  O155  1  0.23447536  1.00485329  0.63412543  1
  O  O156  1  0.77879647  0.48345769  0.10789701  1
  O  O157  1  0.72983606  0.52230437  0.62721314  1
  O  O158  1  0.77282664  1.01254029  0.13920726  1
  O  O159  1  0.75115292  1.00487110  0.64445657  1
  O  O160  1  0.00261842  0.35450873  0.26902931  1
  O  O161  1  0.04741231  0.36340170  0.73043844  1
  O  O162  1  0.06034562  0.87654956  0.19803450  1
  O  O163  1  0.00729816  0.87363956  0.75914580  1
  O  O164  1  0.53100165  0.38868296  0.22526650  1
  O  O165  1  0.50399442  0.35371740  0.74254737  1
  O  O166  1  0.50933633  0.88493049  0.26551060  1
  O  O167  1  0.50652308  0.88592479  0.75292736  1
  O  O168  1  0.48716320  0.10674129  0.23854894  1
  O  O169  1  0.49577931  0.10341016  0.72122997  1
  O  O170  1  0.49768591  0.60678118  0.24577360  1
  O  O171  1  0.50040017  0.66193415  0.76607855  1
  O  O172  1  1.01296127  0.13208984  0.22402636  1
  O  O173  1  0.98985057  0.11124254  0.74285990  1
  O  O174  1  0.96585416  0.56199553  0.25864504  1
  O  O175  1  0.97167855  0.64372030  0.77051017  1
  O  O176  1  0.36693601  0.26243435  0.00241704  1
  O  O177  1  0.36296015  0.24356715  0.49293947  1
  O  O178  1  0.34760842  0.75112941  0.00768063  1
  O  O179  1  0.37528553  0.76359002  0.50962527  1
  O  O180  1  0.87686634  0.24644274  -0.00100372  1
  O  O181  1  0.84772350  0.30007847  0.59993869  1
  O  O182  1  0.86478798  0.77105533  0.00183061  1
  O  O183  1  0.85891193  0.77112666  0.52464406  1
  O  O184  1  0.13766056  0.23026750  0.50639557  1
  O  O185  1  0.15349628  0.26054409  0.97861367  1
  O  O186  1  0.10777440  0.74465325  0.49736368  1
  O  O187  1  0.13273634  0.75011368  0.98070575  1
  O  O188  1  0.64152237  0.24811887  0.52083213  1
  O  O189  1  0.64276018  0.24862727  1.00671548  1
  O  O190  1  0.62934985  0.74887143  0.52337588  1
  O  O191  1  0.64239582  0.79213461  1.03534795  1
  O  O192  1  0.50570389  0.22879664  0.12285566  1
  O  O193  1  0.48522118  0.23233496  0.61745120  1
  O  O194  1  0.45616458  0.81870510  0.09636124  1
  O  O195  1  0.48370863  0.76760283  0.64161124  1
  O  O196  1  1.00065774  0.23803199  0.10180201  1
  O  O197  1  1.00866237  0.23458548  0.65316972  1
  O  O198  1  0.98970109  0.73919161  0.09231825  1
  O  O199  1  1.00372820  0.74157589  0.65582562  1
  O  O200  1  -0.00388245  0.22124493  0.35831212  1
  O  O201  1  0.01001626  0.25270307  0.84813850  1
  O  O202  1  -0.02068169  0.72585591  0.43583260  1
  O  O203  1  0.00976537  0.76431518  0.86711580  1
  O  O204  1  0.53039690  0.22907329  0.37072696  1
  O  O205  1  0.46464860  0.24955143  0.85293901  1
  O  O206  1  0.51222715  0.75853844  0.37479927  1
  O  O207  1  0.48179640  0.78175968  0.86421987  1
  O  O208  1  0.23924742  0.12110139  0.48760180  1
  O  O209  1  0.26015093  0.14372032  1.00739759  1
  O  O210  1  0.26001449  0.61572934  0.47191995  1
  O  O211  1  0.23130690  0.64573550  1.03709950  1
  O  O212  1  0.73085487  0.11508833  0.50595426  1
  O  O213  1  0.75445590  0.13686656  0.99044355  1
  O  O214  1  0.71912576  0.66087749  0.47138689  1
  O  O215  1  0.72906457  0.65588483  1.01977244  1
  O  O216  1  0.26450331  0.36714736  0.00438343  1
  O  O217  1  0.25931623  0.35671835  0.49692884  1
  O  O218  1  0.23258714  0.85829843  0.01183299  1
  O  O219  1  0.25723513  0.87568381  0.49398085  1
  O  O220  1  0.75527506  0.35803339  0.00873234  1
  O  O221  1  0.74592931  0.39314754  0.48436436  1
  O  O222  1  0.76945244  0.89249782  0.00870236  1
  O  O223  1  0.76784958  0.88064362  0.49707615  1
  O  O224  1  0.12347175  0.48010809  0.25681524  1
  O  O225  1  0.15317204  0.47534559  0.76200189  1
  O  O226  1  0.14636984  0.99091241  0.26272178  1
  O  O227  1  0.13444899  0.99139047  0.74483638  1
  O  O228  1  0.64628441  0.49433673  0.24646547  1
  O  O229  1  0.61636988  0.50462687  0.74811698  1
  O  O230  1  0.63692150  0.96611275  0.21239513  1
  O  O231  1  0.63579062  1.00267189  0.75901322  1
  O  O232  1  0.36585903  0.00312667  0.26347532  1
  O  O233  1  0.35845157  0.00177843  0.74005427  1
  O  O234  1  0.36303504  0.50983944  0.25547419  1
  O  O235  1  0.41469424  0.52976551  0.74390514  1
  O  O236  1  0.81200741  -0.01598478  0.19611151  1
  O  O237  1  0.86520847  0.00091334  0.75765065  1
  O  O238  1  0.92415261  0.50316798  0.23649631  1
  O  O239  1  0.82371697  0.51894247  0.77604742  1
  O  O240  1  0.10653962  0.36176201  0.36334925  1
  O  O241  1  0.15261993  0.35553206  0.85686042  1
  O  O242  1  0.09218636  0.84765204  0.40504618  1
  O  O243  1  0.12096669  0.87601044  0.86233138  1
  O  O244  1  0.63668910  0.36683956  0.34713544  1
  O  O245  1  0.59437616  0.34395843  0.87972028  1
  O  O246  1  0.68661701  0.85926748  0.34064559  1
  O  O247  1  0.60537105  0.88933833  0.86240496  1
  O  O248  1  0.37888003  0.11513219  0.14002906  1
  O  O249  1  0.38513617  0.12825962  0.60449861  1
  O  O250  1  0.35799900  0.63561604  0.15648859  1
  O  O251  1  0.38190108  0.64424674  0.62397310  1
  O  O252  1  0.89387213  0.13811360  0.11565670  1
  O  O253  1  0.89086580  0.11283969  0.63561952  1
  O  O254  1  0.88792334  0.64226125  0.11867154  1
  O  O255  1  0.88745287  0.63715175  0.62395618  1
  O  O256  1  0.24793820  0.25245053  0.11985960  1
  O  O257  1  0.26181192  0.23708563  0.60478015  1
  O  O258  1  0.23690501  0.76057675  0.13625794  1
  O  O259  1  0.25990781  0.74313628  0.63018334  1
  O  O260  1  0.77142693  0.24439097  0.10796162  1
  O  O261  1  0.83519592  0.24965197  0.54325527  1
  O  O262  1  0.77707420  0.75973938  0.12624426  1
  O  O263  1  0.66429223  0.70792263  0.57332605  1
  O  O264  1  0.24551468  0.22739389  0.37783708  1
  O  O265  1  0.26543103  0.23941864  0.87238160  1
  O  O266  1  0.17603301  0.73432441  0.36020533  1
  O  O267  1  0.24463540  0.76023599  0.87353493  1
  O  O268  1  0.73430733  0.24907045  0.36893818  1
  O  O269  1  0.75673110  0.26070792  0.88289419  1
  O  O270  1  0.79587073  0.73414651  0.37767530  1
  O  O271  1  0.73676498  0.77226015  0.90741814  1
  O  O272  1  0.00473103  0.11489514  -0.00451327  1
  O  O273  1  0.00406567  0.13840411  0.52101385  1
  O  O274  1  0.01014343  0.62494509  -0.01444656  1
  O  O275  1  0.00967683  0.59532482  0.54841269  1
  O  O276  1  0.49799406  0.11616646  0.01416210  1
  O  O277  1  0.51971293  0.11501025  0.49489956  1
  O  O278  1  0.51800067  0.67021648  -0.00121283  1
  O  O279  1  0.47513423  0.61343782  0.48470576  1
  O  O280  1  0.48653284  0.34717213  0.49317272  1
  O  O281  1  0.47445860  0.38146069  1.04966156  1
  O  O282  1  0.48480087  0.88897702  0.49800567  1
  O  O283  1  0.50096340  0.89869297  0.98268197  1
  O  O284  1  0.99533139  0.32391394  0.48624829  1
  O  O285  1  1.00947700  0.38271058  0.98302706  1
  O  O286  1  0.97448015  0.86602501  0.52402173  1
  O  O287  1  1.00032384  0.88961293  0.98748130  1
  O  O288  1  0.53661455  0.49654364  0.39002069  1
  O  O289  1  0.49502936  0.50753469  0.89080526  1
  O  O290  1  0.48240497  1.01291021  0.38541794  1
  O  O291  1  0.49160543  1.00724500  0.88706357  1
  O  O292  1  0.99992264  0.47157868  0.40319995  1
  O  O293  1  1.00448572  0.50361706  0.86884648  1
  O  O294  1  0.96542655  0.97720434  0.28980023  1
  O  O295  1  0.99654988  0.99601588  0.87909521  1
  O  O296  1  0.00275037  0.01585606  0.10490140  1
  O  O297  1  0.01681400  0.01148638  0.63062293  1
  O  O298  1  -0.02411416  0.51055817  0.07137992  1
  O  O299  1  -0.02385649  0.50833652  0.68436806  1
  O  O300  1  0.50134380  0.00435778  0.10864364  1
  O  O301  1  0.49134100  0.01007925  0.59849007  1
  O  O302  1  0.53125863  0.55230631  0.09803034  1
  O  O303  1  0.48620926  0.48332014  0.59348889  1
  O  O304  1  0.22288902  0.35877397  0.24914007  1
  O  O305  1  0.26490533  0.36733054  0.72421554  1
  O  O306  1  0.26364870  0.87909103  0.25394473  1
  O  O307  1  0.24038461  0.88463244  0.74942347  1
  O  O308  1  0.75255194  0.36829627  0.22365866  1
  O  O309  1  0.72785202  0.40198591  0.79595183  1
  O  O310  1  0.74028692  0.84477229  0.28295886  1
  O  O311  1  0.73325389  0.88936534  0.75787467  1
  O  O312  1  0.25706087  0.11524985  0.25426432  1
  O  O313  1  0.24654615  0.11255404  0.74734656  1
  O  O314  1  0.21984456  0.61057738  0.25031921  1
  O  O315  1  0.27856845  0.62210543  0.74715267  1
  O  O316  1  0.76799130  0.13811537  0.26473374  1
  O  O317  1  0.76700456  0.11213634  0.75658180  1
  O  O318  1  0.77913454  0.64154561  0.27752633  1
  O  O319  1  0.71976870  0.61956529  0.76760904  1
  O  O320  1  0.36305013  0.11432145  0.36710323  1
  O  O321  1  0.38019174  0.11044897  0.87385673  1
  O  O322  1  0.36441357  0.64968791  0.34092218  1
  O  O323  1  0.38126288  0.62997558  0.86942567  1
  O  O324  1  0.85499532  0.15487095  0.40751754  1
  O  O325  1  0.88921607  0.11246746  0.86276144  1
  O  O326  1  0.85686201  0.61008926  0.42165900  1
  O  O327  1  0.85622943  0.61998143  0.90478587  1
  O  O328  1  0.08394017  0.37907127  0.14400164  1
  O  O329  1  0.15570896  0.36794770  0.62262874  1
  O  O330  1  0.11076785  0.86761663  0.14347966  1
  O  O331  1  0.11771095  0.88647807  0.63759015  1
  O  O332  1  0.65006381  0.37894185  0.12410564  1
  O  O333  1  0.61591252  0.39799362  0.62015178  1
  O  O334  1  0.64741738  0.91852923  0.15804635  1
  O  O335  1  0.61898042  0.88649142  0.63981554  1
  O  O336  1  0.10764244  0.25384023  0.23944173  1
  O  O337  1  0.15020402  0.25533645  0.75809000  1
  O  O338  1  0.03672491  0.76260164  0.30553063  1
  O  O339  1  0.13009407  0.76818585  0.75786462  1
  O  O340  1  0.63121498  0.25208520  0.24482932  1
  O  O341  1  0.63712616  0.26175550  0.73533483  1
  O  O342  1  0.59650483  0.75257538  0.21640635  1
  O  O343  1  0.60686561  0.77407038  0.74779606  1
  O  O344  1  0.37442171  0.22783854  0.25117836  1
  O  O345  1  0.36333381  0.24077934  0.72368708  1
  O  O346  1  0.42074843  0.75190977  0.23970459  1
  O  O347  1  0.37853440  0.74849155  0.74282893  1
  O  O348  1  0.89780723  0.24778386  0.22708315  1
  O  O349  1  0.87840537  0.22505982  0.75051944  1
  O  O350  1  0.90095278  0.77280050  0.22795885  1
  O  O351  1  0.87617639  0.76847280  0.76046299  1
  O  O352  1  0.39489314  0.47066809  0.47453101  1
  O  O353  1  0.36180449  0.49304341  1.00885592  1
  O  O354  1  0.37123278  0.99018030  0.48981833  1
  O  O355  1  0.36842278  1.00244528  0.98897593  1
  O  O356  1  0.80703668  0.42862042  0.50419120  1
  O  O357  1  0.85334035  0.56061350  0.95171651  1
  O  O358  1  0.87824815  0.97679822  0.50558333  1
  O  O359  1  0.88922282  0.99505541  0.99203302  1
  O  O360  1  0.11734129  -0.00113093  -0.01245522  1
  O  O361  1  0.12769065  0.00085869  0.51223620  1
  O  O362  1  0.12241085  0.49204094  -0.01604476  1
  O  O363  1  0.20751382  0.58590457  0.51287908  1
  O  O364  1  0.61868381  0.00646001  -0.00450572  1
  O  O365  1  0.61125050  -0.01951146  0.47935687  1
  O  O366  1  0.54405698  0.50124172  -0.05517423  1
  O  O367  1  0.61131255  0.51159380  0.51216798  1
  O  O368  1  0.41125237  0.37585607  0.10691887  1
  O  O369  1  0.37073341  0.34721775  0.60080706  1
  O  O370  1  0.40200380  0.86567848  0.12786894  1
  O  O371  1  0.36833330  0.87220635  0.61223029  1
  O  O372  1  0.87707184  0.35654761  0.11947270  1
  O  O373  1  0.78082746  0.31142522  0.65086832  1
  O  O374  1  0.89911711  0.87387679  0.10887663  1
  O  O375  1  0.86159008  0.88397953  0.61481407  1
  O  O376  1  0.12442998  0.10158824  0.38583619  1
  O  O377  1  0.12943913  0.14292563  0.86793392  1
  O  O378  1  0.07831739  0.63922000  0.38254439  1
  O  O379  1  0.13343090  0.64539639  0.85791724  1
  O  O380  1  0.64440549  0.13731297  0.38717363  1
  O  O381  1  0.59266768  0.17656279  0.84832406  1
  O  O382  1  0.65967398  0.64586296  0.34894335  1
  O  O383  1  0.57518268  0.64525037  0.95896197  1
