# generated using pymatgen
data_VZnO4
_symmetry_space_group_name_H-M   'P 1'
_cell_length_a   17.12694873
_cell_length_b   16.98880301
_cell_length_c   17.10713104
_cell_angle_alpha   90.46131799
_cell_angle_beta   90.60016704
_cell_angle_gamma   90.15978728
_symmetry_Int_Tables_number   1
_chemical_formula_structural   VZnO4
_chemical_formula_sum   'V64 Zn64 O256'
_cell_volume   4977.14466195
_cell_formula_units_Z   64
loop_
 _symmetry_equiv_pos_site_id
 _symmetry_equiv_pos_as_xyz
  1  'x, y, z'
loop_
 _atom_site_type_symbol
 _atom_site_label
 _atom_site_symmetry_multiplicity
 _atom_site_fract_x
 _atom_site_fract_y
 _atom_site_fract_z
 _atom_site_occupancy
  V  V0  1  -0.00301487  0.86838081  0.87075091  1
  V  V1  1  0.11782423  0.37506905  0.75990111  1
  V  V2  1  0.48588445  0.88854029  0.35743162  1
  V  V3  1  0.13110779  0.84262911  0.25193325  1
  V  V4  1  0.72434425  0.35792007  0.62714577  1
  V  V5  1  0.86723995  -0.00289285  0.87347829  1
  V  V6  1  0.63346699  0.08327803  -0.01882909  1
  V  V7  1  0.74389581  0.85303318  0.60764964  1
  V  V8  1  0.74965156  0.51520707  0.24767459  1
  V  V9  1  0.47806212  0.63297606  0.61658552  1
  V  V10  1  0.76504538  0.62462171  0.41282003  1
  V  V11  1  0.24532538  0.87640081  0.12806796  1
  V  V12  1  0.50272952  0.72622662  0.23996677  1
  V  V13  1  0.86640385  0.11216405  0.72295420  1
  V  V14  1  0.62025928  0.51991955  0.66057361  1
  V  V15  1  0.92514573  0.88035027  0.52400449  1
  V  V16  1  0.47338553  0.37596156  0.85486031  1
  V  V17  1  0.36115405  0.84270242  0.50429786  1
  V  V18  1  0.12489671  0.13455337  -0.00074981  1
  V  V19  1  0.14603100  0.11690299  0.51931732  1
  V  V20  1  0.25917845  0.36834779  0.61795303  1
  V  V21  1  0.36710739  0.89761434  -0.00020762  1
  V  V22  1  0.74771125  0.88788853  0.13286890  1
  V  V23  1  0.13769607  0.49156711  0.59613038  1
  V  V24  1  0.14718708  0.65954255  0.50981275  1
  V  V25  1  0.35135371  0.62953989  0.76763117  1
  V  V26  1  0.36872436  0.49485664  0.31239374  1
  V  V27  1  0.47778053  0.89145286  0.87275030  1
  V  V28  1  0.86152354  0.25186514  0.14488143  1
  V  V29  1  0.24734430  0.74704432  -0.00192952  1
  V  V30  1  0.13324981  0.52444350  0.15595418  1
  V  V31  1  0.63085843  -0.01403139  0.62051163  1
  V  V32  1  0.00565986  0.60077804  0.62234455  1
  V  V33  1  -0.00091432  0.86753444  0.37370565  1
  V  V34  1  0.75135966  0.12135511  0.85990517  1
  V  V35  1  0.89709803  0.74488614  0.64441950  1
  V  V36  1  0.11972354  0.63151646  0.00911202  1
  V  V37  1  0.85304410  0.49910193  0.80441731  1
  V  V38  1  0.62564006  0.86861615  0.75468195  1
  V  V39  1  0.24566533  0.49558062  0.78047043  1
  V  V40  1  0.62172863  0.26297790  0.41162512  1
  V  V41  1  0.47820290  -0.01196475  0.50525589  1
  V  V42  1  0.63904282  0.09383284  0.47531568  1
  V  V43  1  0.47500198  0.75391963  0.75548239  1
  V  V44  1  -0.04190670  0.74310216  0.25185165  1
  V  V45  1  0.34620938  0.12114084  0.77405263  1
  V  V46  1  0.38408964  0.74590738  0.12124243  1
  V  V47  1  -0.00877748  -0.00330883  0.00611956  1
  V  V48  1  0.62199292  0.38533160  0.20964471  1
  V  V49  1  0.00202561  0.47591673  0.01491975  1
  V  V50  1  0.76137247  0.27748091  -0.01932542  1
  V  V51  1  0.35283565  0.14264451  0.26327135  1
  V  V52  1  0.11602303  0.00069191  0.13585618  1
  V  V53  1  0.60818869  0.73367362  0.38608626  1
  V  V54  1  0.47456943  0.50519511  -0.01840238  1
  V  V55  1  0.50039187  0.12587162  0.09714822  1
  V  V56  1  0.50310344  0.47482053  0.51344912  1
  V  V57  1  0.02455071  0.29853009  0.24404717  1
  V  V58  1  -0.02762485  0.63533802  0.12142413  1
  V  V59  1  -0.00595574  0.23180291  0.75325844  1
  V  V60  1  0.63644190  0.52667734  0.09387607  1
  V  V61  1  0.11921512  0.75155161  0.87288226  1
  V  V62  1  0.63043520  0.27713436  0.85309875  1
  V  V63  1  0.50179319  0.13399806  0.62418571  1
  Zn  Zn64  1  0.15055956  0.17314743  0.24449408  1
  Zn  Zn65  1  0.18576375  0.19237617  0.70300565  1
  Zn  Zn66  1  0.20539989  0.68018237  0.17791644  1
  Zn  Zn67  1  0.14067267  0.64033408  0.72576817  1
  Zn  Zn68  1  0.65391921  0.21195531  0.12626326  1
  Zn  Zn69  1  0.68102968  0.17741633  0.67666771  1
  Zn  Zn70  1  0.68354826  0.69206220  0.19190427  1
  Zn  Zn71  1  0.65522570  0.70625476  0.66825758  1
  Zn  Zn72  1  0.45397106  0.30869876  0.30100751  1
  Zn  Zn73  1  0.33688324  0.31420666  0.75228128  1
  Zn  Zn74  1  0.32501333  0.81614983  0.30437767  1
  Zn  Zn75  1  0.30349941  0.81116534  0.81832990  1
  Zn  Zn76  1  0.74921196  0.30192938  0.28759223  1
  Zn  Zn77  1  0.82112419  0.30467463  0.79809240  1
  Zn  Zn78  1  0.80214521  0.80903121  0.35529961  1
  Zn  Zn79  1  0.81262654  0.81380353  0.81188347  1
  Zn  Zn80  1  0.32600622  0.42334507  0.44359759  1
  Zn  Zn81  1  0.15241294  0.44568985  0.94000390  1
  Zn  Zn82  1  0.19521548  0.92351607  0.43064166  1
  Zn  Zn83  1  0.17116654  0.93224547  0.95422668  1
  Zn  Zn84  1  0.67974070  0.46443837  0.46256375  1
  Zn  Zn85  1  0.70052324  0.45871120  0.90600105  1
  Zn  Zn86  1  0.66807095  0.91421894  0.42910591  1
  Zn  Zn87  1  0.66752641  0.86127599  0.94604240  1
  Zn  Zn88  1  0.31459200  0.08503192  0.07819072  1
  Zn  Zn89  1  0.32434163  0.05916685  0.60157303  1
  Zn  Zn90  1  0.33021244  0.54225671  0.11020591  1
  Zn  Zn91  1  0.31726338  0.56104551  0.56380061  1
  Zn  Zn92  1  0.81009909  0.07616510  0.05132698  1
  Zn  Zn93  1  0.85114450  0.07962192  0.50656678  1
  Zn  Zn94  1  0.80891587  0.43676830  0.06587074  1
  Zn  Zn95  1  0.81325427  0.55940325  0.60692687  1
  Zn  Zn96  1  0.46922613  0.44723276  0.16092105  1
  Zn  Zn97  1  0.42495933  0.45997932  0.69354416  1
  Zn  Zn98  1  0.43085463  0.97664677  0.17878979  1
  Zn  Zn99  1  0.41981003  0.93821485  0.68057026  1
  Zn  Zn100  1  0.93017143  0.44716905  0.18458804  1
  Zn  Zn101  1  0.91790640  0.39432414  0.68050744  1
  Zn  Zn102  1  0.94221150  0.92807005  0.19274667  1
  Zn  Zn103  1  0.93242020  0.92953946  0.69462440  1
  Zn  Zn104  1  0.09815279  0.02380699  0.32573719  1
  Zn  Zn105  1  0.05477388  0.07122849  0.83281916  1
  Zn  Zn106  1  0.08273506  0.64189609  0.31095073  1
  Zn  Zn107  1  0.02609754  0.51890457  0.80606727  1
  Zn  Zn108  1  0.53269072  0.12684739  0.30792968  1
  Zn  Zn109  1  0.56319473  0.05461077  0.80061115  1
  Zn  Zn110  1  0.54922846  0.54494361  0.31712906  1
  Zn  Zn111  1  0.53572894  0.57843465  0.83563100  1
  Zn  Zn112  1  0.45270220  0.16684221  0.44146133  1
  Zn  Zn113  1  0.46604883  0.17542491  0.90973310  1
  Zn  Zn114  1  0.42525285  0.66914117  0.41754156  1
  Zn  Zn115  1  0.43457425  0.69479224  0.93928862  1
  Zn  Zn116  1  0.99112718  0.16417615  0.38251482  1
  Zn  Zn117  1  0.94224236  0.18437549  0.93693617  1
  Zn  Zn118  1  0.94897804  0.69624928  0.45401545  1
  Zn  Zn119  1  0.96252089  0.65345332  0.90627204  1
  Zn  Zn120  1  0.12173859  0.32338596  0.09685496  1
  Zn  Zn121  1  0.05882217  0.30339910  0.59184538  1
  Zn  Zn122  1  0.04867320  0.80818897  0.06425365  1
  Zn  Zn123  1  0.07316356  0.82322469  0.59370453  1
  Zn  Zn124  1  0.55836702  0.31904523  0.02688351  1
  Zn  Zn125  1  0.53810830  0.33657943  0.65092833  1
  Zn  Zn126  1  0.54841960  0.84603483  0.07131297  1
  Zn  Zn127  1  0.54076449  0.80818531  0.56420914  1
  O  O128  1  0.12002070  0.09724891  0.15313361  1
  O  O129  1  0.12954378  0.11472050  0.62343020  1
  O  O130  1  0.10652054  0.64603302  0.11439790  1
  O  O131  1  0.12792441  0.60351543  0.61448871  1
  O  O132  1  0.64749624  0.10451623  0.08244512  1
  O  O133  1  0.62534035  0.09327221  0.61514517  1
  O  O134  1  0.63942452  0.62483426  0.10971109  1
  O  O135  1  0.58676302  0.62675604  0.63955125  1
  O  O136  1  0.39900780  0.40061304  0.34827929  1
  O  O137  1  0.37889081  0.35018686  0.85904872  1
  O  O138  1  0.38430897  0.86583841  0.38578133  1
  O  O139  1  0.36830787  0.88059560  0.88681566  1
  O  O140  1  0.84695952  0.32570729  0.40573998  1
  O  O141  1  0.87252488  0.40360631  0.83231376  1
  O  O142  1  0.90034654  0.85312115  0.40397406  1
  O  O143  1  0.88146196  0.88772545  0.86981125  1
  O  O144  1  0.20133501  0.00802969  0.36347348  1
  O  O145  1  0.20694889  -0.00714776  0.85378453  1
  O  O146  1  0.28086103  0.49851532  0.35493756  1
  O  O147  1  0.23921897  0.49417077  0.87763554  1
  O  O148  1  0.74325684  -0.09697523  0.35066642  1
  O  O149  1  0.76804551  0.00168923  0.86564160  1
  O  O150  1  0.73212580  0.52852522  0.37573706  1
  O  O151  1  0.76116187  0.52190125  0.83585986  1
  O  O152  1  0.23089615  0.56837613  0.15217473  1
  O  O153  1  0.24226930  0.48835420  0.62401511  1
  O  O154  1  0.22428206  0.97966757  0.12271370  1
  O  O155  1  0.23451614  1.00391526  0.62739218  1
  O  O156  1  0.73755597  0.49945645  0.13519211  1
  O  O157  1  0.71594129  0.54609481  0.65925976  1
  O  O158  1  0.76389431  0.98907722  0.10951135  1
  O  O159  1  0.72930104  0.96994191  0.62492307  1
  O  O160  1  0.01005668  0.39744395  0.24362754  1
  O  O161  1  0.02196326  0.41131635  0.75130599  1
  O  O162  1  0.00803875  0.84571365  0.25216680  1
  O  O163  1  0.00065649  0.87920924  0.77306159  1
  O  O164  1  0.52250878  0.37960864  0.24014352  1
  O  O165  1  0.49011501  0.37635180  0.75135529  1
  O  O166  1  0.47228099  0.90582407  0.25877147  1
  O  O167  1  0.47083145  0.86784897  0.75764150  1
  O  O168  1  0.51669553  0.13001962  0.20027096  1
  O  O169  1  0.50625928  0.11132988  0.72255260  1
  O  O170  1  0.50116488  0.63004673  0.22904691  1
  O  O171  1  0.47362203  0.64421470  0.76056416  1
  O  O172  1  1.07087208  0.12905429  0.31395677  1
  O  O173  1  1.00186974  0.12734708  0.74472147  1
  O  O174  1  0.98220892  0.64063492  0.23586211  1
  O  O175  1  1.02707032  0.60959443  0.72463489  1
  O  O176  1  0.28753489  0.26599606  -0.01166743  1
  O  O177  1  0.37241476  0.24714786  0.47833394  1
  O  O178  1  0.36620243  0.76272018  0.00515191  1
  O  O179  1  0.37381677  0.74395463  0.48883477  1
  O  O180  1  0.85852103  0.25379307  -0.03087072  1
  O  O181  1  0.84145714  0.28007157  0.46070605  1
  O  O182  1  0.84525859  0.69085839  -0.04240397  1
  O  O183  1  0.89756194  0.77120128  0.53147702  1
  O  O184  1  0.11968545  0.21848713  0.53785285  1
  O  O185  1  0.10716472  0.22629885  1.03571959  1
  O  O186  1  0.14592478  0.75420724  0.54413151  1
  O  O187  1  0.12891976  0.75054384  1.00055913  1
  O  O188  1  0.62662669  0.20026980  0.49334574  1
  O  O189  1  0.64971067  0.26241571  0.96243181  1
  O  O190  1  0.59538409  0.74750935  0.48390535  1
  O  O191  1  0.61292508  0.78580762  1.00608304  1
  O  O192  1  0.54684833  0.22828716  0.08792699  1
  O  O193  1  0.53082285  0.22937594  0.61989936  1
  O  O194  1  0.49021666  0.76929561  0.13260006  1
  O  O195  1  0.48420063  0.74112459  0.63982047  1
  O  O196  1  0.96516411  0.25195820  0.17156345  1
  O  O197  1  0.97125268  0.29227581  0.66228343  1
  O  O198  1  0.97899344  0.74641484  0.13461998  1
  O  O199  1  0.99484635  0.75565035  0.65484936  1
  O  O200  1  0.00265830  0.26798171  0.33629864  1
  O  O201  1  -0.01207695  0.25175319  0.85034343  1
  O  O202  1  -0.00394835  0.74082902  0.35291909  1
  O  O203  1  -0.00060912  0.76153165  0.88401498  1
  O  O204  1  0.52339403  0.23886711  0.36810041  1
  O  O205  1  0.52129393  0.27167701  0.87483589  1
  O  O206  1  0.48838841  0.74502866  0.34740648  1
  O  O207  1  0.48227317  0.76781969  0.86090264  1
  O  O208  1  0.24867249  0.12825129  0.53698200  1
  O  O209  1  0.22126180  0.11662880  1.02455905  1
  O  O210  1  0.24283057  0.62858652  0.51457550  1
  O  O211  1  0.22920630  0.64305542  1.00389551  1
  O  O212  1  0.73705125  0.08362121  0.48347722  1
  O  O213  1  0.74268712  0.12306311  0.96986993  1
  O  O214  1  0.75888017  0.60983235  0.51007001  1
  O  O215  1  0.79414178  0.64322083  0.97710722  1
  O  O216  1  0.20247831  0.36905321  0.01306504  1
  O  O217  1  0.26226958  0.36897858  0.51809543  1
  O  O218  1  0.25205594  0.86800964  0.00715475  1
  O  O219  1  0.26372593  0.86268847  0.48591661  1
  O  O220  1  0.76041950  0.38111051  -0.02529465  1
  O  O221  1  0.74707947  0.40976081  0.54539970  1
  O  O222  1  0.74937115  0.87363170  0.02608486  1
  O  O223  1  0.73831012  0.85775490  0.51050191  1
  O  O224  1  0.11227926  0.54973114  0.24991625  1
  O  O225  1  0.14114804  0.49730700  0.75278343  1
  O  O226  1  0.10821405  0.96052962  0.23101841  1
  O  O227  1  0.15283974  0.99783224  0.80208622  1
  O  O228  1  0.61561910  0.50370366  0.22377535  1
  O  O229  1  0.59808285  0.52623202  0.75900065  1
  O  O230  1  0.76010772  1.08168974  0.29201963  1
  O  O231  1  0.60808372  0.97393688  0.72786909  1
  O  O232  1  0.35398029  0.06388883  0.19033973  1
  O  O233  1  0.36167299  0.03184498  0.71316792  1
  O  O234  1  0.37661155  0.49466767  0.20680135  1
  O  O235  1  0.35209758  0.51599388  0.76135572  1
  O  O236  1  0.88244396  -0.03944874  0.27579783  1
  O  O237  1  0.88836372  0.01047824  0.76023208  1
  O  O238  1  0.84626623  0.49602605  0.24652709  1
  O  O239  1  0.86925422  0.50060161  0.70087002  1
  O  O240  1  0.04652243  0.37862503  0.44561963  1
  O  O241  1  0.12972993  0.36365628  0.85543124  1
  O  O242  1  0.12149491  0.86002834  0.35385775  1
  O  O243  1  0.10702178  0.86191027  0.88690473  1
  O  O244  1  0.63825665  0.35894457  0.42920118  1
  O  O245  1  0.64121162  0.37616912  0.84603178  1
  O  O246  1  0.58541819  0.85255506  0.37255143  1
  O  O247  1  0.59705070  0.87941423  0.85476997  1
  O  O248  1  0.40777791  0.15298719  0.06888012  1
  O  O249  1  0.40452651  0.13731961  0.59692393  1
  O  O250  1  0.38286899  0.64871771  0.10849777  1
  O  O251  1  0.37783917  0.61942924  0.64681285  1
  O  O252  1  0.86340508  0.15728875  0.10492433  1
  O  O253  1  0.86930580  0.10177075  0.62589459  1
  O  O254  1  0.87936402  0.62068524  0.11410257  1
  O  O255  1  0.89987501  0.63637968  0.61948419  1
  O  O256  1  0.36390740  0.31627924  0.11612272  1
  O  O257  1  0.24353871  0.27164177  0.64548513  1
  O  O258  1  0.26559380  0.75886323  0.11655940  1
  O  O259  1  0.20932730  0.84505931  0.68770552  1
  O  O260  1  0.75213629  0.26022785  0.08212034  1
  O  O261  1  0.71016078  0.26077755  0.60668630  1
  O  O262  1  0.73587685  0.78652941  0.15202245  1
  O  O263  1  0.74508670  0.75090805  0.62838278  1
  O  O264  1  0.33013211  0.26970415  0.42122274  1
  O  O265  1  0.23835162  0.31044515  0.95803645  1
  O  O266  1  0.28809027  0.70347603  0.34829542  1
  O  O267  1  0.22899170  0.76053470  0.88816927  1
  O  O268  1  0.69734948  0.23107811  0.35713391  1
  O  O269  1  0.74676963  0.24371157  0.86225718  1
  O  O270  1  0.72099923  0.72496007  0.38366494  1
  O  O271  1  0.73464716  0.77617411  0.88650609  1
  O  O272  1  0.00510755  0.10592416  -0.00295529  1
  O  O273  1  0.04739734  0.10057438  0.48641082  1
  O  O274  1  0.00278307  0.62883575  0.01233677  1
  O  O275  1  0.02418422  0.64537725  0.52675827  1
  O  O276  1  0.53352009  0.11601863  -0.02209090  1
  O  O277  1  0.51661097  0.09754171  0.50570823  1
  O  O278  1  0.50376138  0.60288530  -0.05279891  1
  O  O279  1  0.47769096  0.62717001  0.51832007  1
  O  O280  1  0.50288103  0.37979944  0.54448055  1
  O  O281  1  0.50841799  0.39819524  0.96484285  1
  O  O282  1  0.47899981  0.87764958  0.49594483  1
  O  O283  1  0.47556486  0.88500338  0.98559027  1
  O  O284  1  1.00102903  0.33097362  0.49431533  1
  O  O285  1  1.02875154  0.38552229  1.04482356  1
  O  O286  1  1.02576212  0.85859438  0.47602728  1
  O  O287  1  0.99691724  0.88782840  0.99344789  1
  O  O288  1  0.53093612  0.47908110  0.41645870  1
  O  O289  1  0.46911908  0.48343380  0.86648941  1
  O  O290  1  0.49606381  0.98449942  0.39482921  1
  O  O291  1  0.48853898  0.98810655  0.85910899  1
  O  O292  1  1.01016955  0.42643591  0.40372363  1
  O  O293  1  1.03916059  0.48262964  0.91742806  1
  O  O294  1  1.00443621  0.96729846  0.36327598  1
  O  O295  1  0.99452478  0.98879851  0.88741901  1
  O  O296  1  0.00169308  -0.01493747  0.11533604  1
  O  O297  1  -0.00712352  -0.08935373  0.60163923  1
  O  O298  1  0.00923628  0.52321903  0.12505952  1
  O  O299  1  0.01914473  0.50109305  0.60783406  1
  O  O300  1  0.49566425  0.01950395  0.09745510  1
  O  O301  1  0.50558583  -0.01181478  0.61045328  1
  O  O302  1  0.52224010  0.51066474  0.07983555  1
  O  O303  1  0.49625949  0.51797360  0.63117206  1
  O  O304  1  0.30523651  0.35574579  0.13736405  1
  O  O305  1  0.23898615  0.38930379  0.74997814  1
  O  O306  1  0.23854675  0.85968829  0.24238898  1
  O  O307  1  0.25181873  0.88312794  0.74354741  1
  O  O308  1  0.71279878  0.40787992  0.27056001  1
  O  O309  1  0.80204856  0.35733025  0.69549083  1
  O  O310  1  0.73927650  0.91976873  0.22981586  1
  O  O311  1  0.72480336  0.86317553  0.74865086  1
  O  O312  1  0.25545501  0.15657356  0.27956797  1
  O  O313  1  0.24563505  0.13124314  0.77232997  1
  O  O314  1  0.26569329  0.65366938  0.29608479  1
  O  O315  1  0.24643500  0.61232046  0.75538990  1
  O  O316  1  0.83069172  0.08551936  0.30262637  1
  O  O317  1  0.76179121  0.11927108  0.74380008  1
  O  O318  1  0.74165033  0.61664713  0.25187551  1
  O  O319  1  0.70087660  0.70064379  0.85259229  1
  O  O320  1  0.41103137  0.11594325  0.34605248  1
  O  O321  1  0.38159018  0.11653652  0.86946115  1
  O  O322  1  0.42457233  0.57378652  0.35033613  1
  O  O323  1  0.35816757  0.63940698  0.86523263  1
  O  O324  1  0.90276773  0.14893305  0.43928195  1
  O  O325  1  0.86710900  0.11160695  0.86712381  1
  O  O326  1  0.86192031  0.63978202  0.39900792  1
  O  O327  1  0.92302195  0.56793736  0.84359036  1
  O  O328  1  0.14997295  0.42741065  0.14981457  1
  O  O329  1  0.13516279  0.38478624  0.62906301  1
  O  O330  1  0.13199840  0.85663797  0.13366514  1
  O  O331  1  0.14336624  0.88174557  0.67127958  1
  O  O332  1  0.62055121  0.39591863  0.10858489  1
  O  O333  1  0.63442695  0.40223103  0.66274164  1
  O  O334  1  0.64220804  0.89435622  0.12360417  1
  O  O335  1  0.62575204  0.86516276  0.62681699  1
  O  O336  1  0.12047130  0.27709659  0.20935949  1
  O  O337  1  0.10124659  0.26545132  0.73532216  1
  O  O338  1  0.13241199  0.73937676  0.24817800  1
  O  O339  1  0.12483970  0.74237924  0.77510064  1
  O  O340  1  0.64838014  0.28462253  0.21513065  1
  O  O341  1  0.63117102  0.23983391  0.75960920  1
  O  O342  1  0.60415037  0.74687750  0.25470236  1
  O  O343  1  0.59115240  0.76641587  0.74454018  1
  O  O344  1  0.38929747  0.23460322  0.24096136  1
  O  O345  1  0.37709691  0.21091574  0.74038904  1
  O  O346  1  0.38392973  0.75447459  0.22698108  1
  O  O347  1  0.36445048  0.74183898  0.74904805  1
  O  O348  1  0.82249942  0.23926989  0.23473586  1
  O  O349  1  0.88115706  0.21560997  0.74702757  1
  O  O350  1  0.86278421  0.75814040  0.26695180  1
  O  O351  1  0.86440197  0.74617219  0.73964244  1
  O  O352  1  0.39308436  0.49288184  0.50900343  1
  O  O353  1  0.38086318  0.50815166  1.01140728  1
  O  O354  1  0.38071083  1.00133094  0.50926178  1
  O  O355  1  0.35046131  0.99317799  1.00405986  1
  O  O356  1  0.88312457  0.48355310  0.52060715  1
  O  O357  1  0.90260860  0.47971564  1.01191968  1
  O  O358  1  0.87886968  0.96656223  0.50738985  1
  O  O359  1  0.88396596  1.00789516  0.98545991  1
  O  O360  1  0.10871722  0.00518585  0.01708419  1
  O  O361  1  0.15157547  0.01385915  0.50944087  1
  O  O362  1  0.12595535  0.52630187  0.02800670  1
  O  O363  1  0.13816992  0.48935478  0.50184041  1
  O  O364  1  0.63529898  -0.01417832  -0.03016038  1
  O  O365  1  0.61635844  -0.01723726  0.50673638  1
  O  O366  1  0.65627439  0.51377151  -0.00380769  1
  O  O367  1  0.60632329  0.50451078  0.54458131  1
  O  O368  1  0.42718215  0.35873969  0.08905673  1
  O  O369  1  0.35761717  0.37669849  0.65254322  1
  O  O370  1  0.36350762  0.87942668  0.11099265  1
  O  O371  1  0.37111540  0.86694049  0.60279408  1
  O  O372  1  0.86437045  0.36164782  0.13133525  1
  O  O373  1  0.89961308  0.41656800  0.54627354  1
  O  O374  1  0.85004293  0.87191034  0.13896833  1
  O  O375  1  0.85262031  0.86100504  0.63159910  1
  O  O376  1  0.17472540  0.14683307  0.42611075  1
  O  O377  1  0.12058280  0.13738922  0.89872145  1
  O  O378  1  0.12466016  0.65457933  0.41190841  1
  O  O379  1  0.10111147  0.64549573  0.89941173  1
  O  O380  1  0.61498404  0.08700630  0.37817041  1
  O  O381  1  0.64113685  0.11084812  0.86438172  1
  O  O382  1  0.59572147  0.63474654  0.37507940  1
  O  O383  1  0.64666300  0.67018031  0.89210483  1
