# generated using pymatgen
data_VZnO4
_symmetry_space_group_name_H-M   'P 1'
_cell_length_a   16.81920110
_cell_length_b   16.92542017
_cell_length_c   16.84108873
_cell_angle_alpha   89.94826503
_cell_angle_beta   89.67263668
_cell_angle_gamma   90.04453258
_symmetry_Int_Tables_number   1
_chemical_formula_structural   VZnO4
_chemical_formula_sum   'V64 Zn64 O256'
_cell_volume   4794.10549986
_cell_formula_units_Z   64
loop_
 _symmetry_equiv_pos_site_id
 _symmetry_equiv_pos_as_xyz
  1  'x, y, z'
loop_
 _atom_site_type_symbol
 _atom_site_label
 _atom_site_symmetry_multiplicity
 _atom_site_fract_x
 _atom_site_fract_y
 _atom_site_fract_z
 _atom_site_occupancy
  V  V0  1  0.88333194  0.13562819  0.24075507  1
  V  V1  1  0.00374971  0.73978673  0.26451308  1
  V  V2  1  0.38539412  0.65458279  0.74385383  1
  V  V3  1  -0.00680922  0.00193451  0.51048847  1
  V  V4  1  0.74126570  0.13093498  0.38226072  1
  V  V5  1  0.13272030  0.48453818  0.63107004  1
  V  V6  1  0.62553403  0.51279702  0.12213350  1
  V  V7  1  0.88799708  0.00377996  0.87893346  1
  V  V8  1  0.00105884  0.37723474  0.87648709  1
  V  V9  1  -0.01872605  0.48525711  0.50109022  1
  V  V10  1  0.51397601  0.24613153  0.75271968  1
  V  V11  1  0.12960559  0.63192653  0.50925865  1
  V  V12  1  0.75600074  0.24757801  0.00734271  1
  V  V13  1  0.23864066  0.86247798  0.62198843  1
  V  V14  1  0.63968175  0.87072054  0.25993552  1
  V  V15  1  0.02836902  0.25905642  0.75103978  1
  V  V16  1  0.51040824  0.36640283  0.36334626  1
  V  V17  1  0.38321980  0.11241462  0.73920833  1
  V  V18  1  0.38710859  0.13300695  0.25079293  1
  V  V19  1  0.89011353  0.26621189  0.12208791  1
  V  V20  1  0.37916469  0.86305128  0.50808414  1
  V  V21  1  0.87316255  0.00608971  0.36760826  1
  V  V22  1  0.49776629  0.86200312  0.87529721  1
  V  V23  1  0.13501588  0.62824784  -0.01119076  1
  V  V24  1  0.37910590  -0.00561584  0.37578881  1
  V  V25  1  0.75844060  0.87727356  0.62180459  1
  V  V26  1  0.64921724  -0.00214691  0.12636627  1
  V  V27  1  0.37108701  -0.00685313  0.88156356  1
  V  V28  1  0.90566516  0.88201412  0.00845669  1
  V  V29  1  0.37777930  0.38407179  0.50438782  1
  V  V30  1  0.61949691  0.86047009  0.74725057  1
  V  V31  1  0.24704122  0.11932264  0.36921428  1
  V  V32  1  0.50403325  0.01265645  0.50517393  1
  V  V33  1  0.62177548  0.01056342  0.63166580  1
  V  V34  1  0.25077427  0.61354516  0.85590137  1
  V  V35  1  0.13452498  0.88567792  0.24692693  1
  V  V36  1  0.38419137  0.24755723  0.11225994  1
  V  V37  1  0.51768620  0.51028408  0.50200140  1
  V  V38  1  0.87129808  0.75584402  0.13187452  1
  V  V39  1  0.11819380  0.25692213  0.36760508  1
  V  V40  1  0.73442059  0.50266454  0.76022261  1
  V  V41  1  0.12669528  0.76416221  0.86211153  1
  V  V42  1  0.62394158  0.25130119  0.88888920  1
  V  V43  1  0.23350338  -0.00559906  0.74097262  1
  V  V44  1  0.25053379  0.13097605  0.88145126  1
  V  V45  1  0.00824276  0.88119854  0.37925480  1
  V  V46  1  0.48630637  0.76417887  0.23370909  1
  V  V47  1  0.11484934  0.13726537  -0.00223365  1
  V  V48  1  -0.02105465  0.13508413  0.63370577  1
  V  V49  1  0.38988090  0.24598831  0.62393447  1
  V  V50  1  0.12636268  0.00766827  0.11561377  1
  V  V51  1  -0.01746790  0.75985928  0.74966387  1
  V  V52  1  -0.01268562  0.50195015  -0.01087140  1
  V  V53  1  0.35764315  0.49671679  0.35985140  1
  V  V54  1  0.12907994  0.11995406  0.51828545  1
  V  V55  1  0.25094692  0.25384338  0.51033402  1
  V  V56  1  0.73625117  0.73547954  0.51219820  1
  V  V57  1  0.24163364  0.63047036  0.36874497  1
  V  V58  1  -0.02103076  0.62652642  0.63127965  1
  V  V59  1  0.76331588  0.27140688  0.49776175  1
  V  V60  1  0.00871907  0.62311016  0.12404084  1
  V  V61  1  0.74731185  0.11707101  0.86107786  1
  V  V62  1  0.25698714  0.37316796  0.14666528  1
  V  V63  1  0.49993523  0.00740854  0.00801983  1
  Zn  Zn64  1  0.19003842  0.19175465  0.18168073  1
  Zn  Zn65  1  0.20031618  0.18691320  0.69321548  1
  Zn  Zn66  1  0.18186296  0.68531398  0.19088853  1
  Zn  Zn67  1  0.17885363  0.68501064  0.68632036  1
  Zn  Zn68  1  0.68963436  0.16925949  0.18886705  1
  Zn  Zn69  1  0.69706377  0.18943395  0.68380283  1
  Zn  Zn70  1  0.65623246  0.72541706  0.13610255  1
  Zn  Zn71  1  0.70847064  0.69777380  0.70804554  1
  Zn  Zn72  1  0.30657197  0.31007555  0.31961066  1
  Zn  Zn73  1  0.32371940  0.31073721  0.81262510  1
  Zn  Zn74  1  0.31111504  0.80945487  0.31922366  1
  Zn  Zn75  1  0.30556961  0.81367113  0.81009459  1
  Zn  Zn76  1  0.76117714  0.29144865  0.28094048  1
  Zn  Zn77  1  0.80359262  0.32319206  0.82423419  1
  Zn  Zn78  1  0.82194233  0.81938688  0.31990520  1
  Zn  Zn79  1  0.82520310  0.85459519  0.80272712  1
  Zn  Zn80  1  0.14652012  0.46182311  0.41802367  1
  Zn  Zn81  1  0.18518393  0.42407458  0.79829580  1
  Zn  Zn82  1  0.18928147  0.93773540  0.44654306  1
  Zn  Zn83  1  0.07514333  0.94401347  0.93313213  1
  Zn  Zn84  1  0.69806185  0.43984681  0.42223410  1
  Zn  Zn85  1  0.68527918  0.42446843  0.94282902  1
  Zn  Zn86  1  0.69125234  0.93718299  0.43832714  1
  Zn  Zn87  1  0.66945440  0.96044772  0.92266678  1
  Zn  Zn88  1  0.30584290  0.06041602  0.07098311  1
  Zn  Zn89  1  0.31262115  0.05674708  0.56073134  1
  Zn  Zn90  1  0.20258138  0.45729456  0.01930067  1
  Zn  Zn91  1  0.30962346  0.56716061  0.57456475  1
  Zn  Zn92  1  0.82035656  0.07038387  0.05320920  1
  Zn  Zn93  1  0.80537655  0.06451031  0.56421455  1
  Zn  Zn94  1  0.82611151  0.57532383  0.06562155  1
  Zn  Zn95  1  0.80214119  0.55161366  0.56624934  1
  Zn  Zn96  1  0.43293150  0.43545830  0.17973573  1
  Zn  Zn97  1  0.48666540  0.41982931  0.67396403  1
  Zn  Zn98  1  0.45718430  0.95362809  0.20979947  1
  Zn  Zn99  1  0.44101053  0.92597451  0.68375006  1
  Zn  Zn100  1  0.93948396  0.44105567  0.17408030  1
  Zn  Zn101  1  0.93641211  0.44216142  0.69721615  1
  Zn  Zn102  1  0.94479479  0.94072972  0.18982527  1
  Zn  Zn103  1  0.94257084  0.94342482  0.69108652  1
  Zn  Zn104  1  0.06260950  0.06785130  0.31233789  1
  Zn  Zn105  1  0.06242180  0.07361586  0.81119341  1
  Zn  Zn106  1  0.03263039  0.57437945  0.33214025  1
  Zn  Zn107  1  0.05740489  0.56802942  0.80821441  1
  Zn  Zn108  1  0.56737728  0.05427888  0.30998404  1
  Zn  Zn109  1  0.55929495  0.05799794  0.81220103  1
  Zn  Zn110  1  0.53913128  0.55237892  0.31188864  1
  Zn  Zn111  1  0.55791715  0.58608051  0.83246607  1
  Zn  Zn112  1  0.44278585  0.18591281  0.43267447  1
  Zn  Zn113  1  0.43799526  0.18052987  0.93398196  1
  Zn  Zn114  1  0.43157243  0.67901472  0.43258646  1
  Zn  Zn115  1  0.43576807  0.66698192  0.94026976  1
  Zn  Zn116  1  0.93443850  0.19176195  0.43895974  1
  Zn  Zn117  1  0.93610814  0.19148316  0.93179734  1
  Zn  Zn118  1  0.94457744  0.68729743  0.44502514  1
  Zn  Zn119  1  0.94855482  0.70531603  0.94418234  1
  Zn  Zn120  1  0.07255371  0.31750173  0.05740560  1
  Zn  Zn121  1  0.05896651  0.31084717  0.55865477  1
  Zn  Zn122  1  0.07551894  0.80173359  0.07098619  1
  Zn  Zn123  1  0.05712281  0.81148217  0.57086192  1
  Zn  Zn124  1  0.56806238  0.31033848  0.18472870  1
  Zn  Zn125  1  0.58198259  0.32401037  0.54903923  1
  Zn  Zn126  1  0.54514906  0.83427561  0.06866427  1
  Zn  Zn127  1  0.58101302  0.83738056  0.53339609  1
  O  O128  1  0.13272183  0.12058706  0.10980773  1
  O  O129  1  0.12705741  0.12792038  0.61918410  1
  O  O130  1  0.11931691  0.64444271  0.09931038  1
  O  O131  1  0.11528347  0.61519130  0.61955537  1
  O  O132  1  0.62266149  0.09664250  0.13573439  1
  O  O133  1  0.63015135  0.10860347  0.62991577  1
  O  O134  1  0.61165407  0.61816414  0.10204744  1
  O  O135  1  0.61469888  0.63195585  0.64039417  1
  O  O136  1  0.37612454  0.38188806  0.38564406  1
  O  O137  1  0.39273248  0.36156957  0.89932654  1
  O  O138  1  0.36227373  0.89121053  0.38831869  1
  O  O139  1  0.38321588  0.88724703  0.86391984  1
  O  O140  1  0.85865637  0.42781438  0.31824172  1
  O  O141  1  0.89602380  0.36262336  0.87199547  1
  O  O142  1  0.89240584  0.89782726  0.37344076  1
  O  O143  1  0.86741566  0.87943574  0.90844074  1
  O  O144  1  0.26134257  0.01495906  0.39092141  1
  O  O145  1  0.26673814  0.00136952  0.85676280  1
  O  O146  1  0.25427896  0.49522515  0.37667189  1
  O  O147  1  0.23965965  0.51515989  0.86158267  1
  O  O148  1  0.76925462  0.00636336  0.38596840  1
  O  O149  1  0.76264340  0.01032432  0.88336540  1
  O  O150  1  0.74071616  0.54095532  0.37231729  1
  O  O151  1  0.73684984  0.49853776  0.86785288  1
  O  O152  1  0.27955451  0.46693885  0.10702326  1
  O  O153  1  0.23213001  0.49698294  0.62325788  1
  O  O154  1  0.23132681  0.99965641  0.13123206  1
  O  O155  1  0.25052158  0.99854584  0.63760838  1
  O  O156  1  0.72941351  0.54498158  0.11847944  1
  O  O157  1  0.73698228  0.50052736  0.65376753  1
  O  O158  1  0.74866993  0.99882806  0.11287507  1
  O  O159  1  0.73241720  0.98852367  0.61496897  1
  O  O160  1  0.04474670  0.39930089  0.23403584  1
  O  O161  1  -0.00112166  0.36255602  0.75260917  1
  O  O162  1  0.00928711  0.87061848  0.26714303  1
  O  O163  1  0.00362884  0.85765092  0.73301662  1
  O  O164  1  0.49965362  0.37738318  0.25730821  1
  O  O165  1  0.48276320  0.34067171  0.75963624  1
  O  O166  1  0.50830628  0.86648411  0.25443563  1
  O  O167  1  0.50729087  0.87164009  0.75961087  1
  O  O168  1  0.48667855  0.11856601  0.25699531  1
  O  O169  1  0.48726992  0.12742210  0.75020913  1
  O  O170  1  0.49701734  0.65571531  0.28008212  1
  O  O171  1  0.48452822  0.63735534  0.76368601  1
  O  O172  1  0.98347315  0.13224726  0.25934917  1
  O  O173  1  1.00401939  0.14190253  0.74016099  1
  O  O174  1  1.03656164  0.61999556  0.22340509  1
  O  O175  1  0.99203730  0.63244721  0.73788868  1
  O  O176  1  0.38177490  0.23837060  0.01215764  1
  O  O177  1  0.37126511  0.24339360  0.51028253  1
  O  O178  1  0.37299557  0.72173520  0.02967093  1
  O  O179  1  0.38426278  0.76508012  0.48885428  1
  O  O180  1  0.87320166  0.24512126  0.01314329  1
  O  O181  1  0.86293954  0.24694714  0.50523195  1
  O  O182  1  0.88875940  0.77023491  0.01924446  1
  O  O183  1  0.84959320  0.75105605  0.47582440  1
  O  O184  1  0.13801485  0.23990845  0.50159555  1
  O  O185  1  0.12884583  0.23585686  0.99797340  1
  O  O186  1  0.11476690  0.73091412  0.50661682  1
  O  O187  1  0.10930244  0.73838309  0.97780481  1
  O  O188  1  0.64682539  0.24945823  0.50119302  1
  O  O189  1  0.63990838  0.23406608  0.98871741  1
  O  O190  1  0.63659804  0.74969719  0.49120625  1
  O  O191  1  0.63197322  0.75816077  1.02217494  1
  O  O192  1  0.48359230  0.24630072  0.13650265  1
  O  O193  1  0.49237979  0.23834209  0.63361195  1
  O  O194  1  0.49911927  0.74899773  0.13189579  1
  O  O195  1  0.55699157  0.67248722  0.62021420  1
  O  O196  1  0.99090974  0.26443867  0.12102623  1
  O  O197  1  1.00211914  0.24221250  0.63771461  1
  O  O198  1  0.99869500  0.74148611  0.13976359  1
  O  O199  1  0.99460921  0.73728284  0.63345675  1
  O  O200  1  0.01933733  0.24613130  0.38802534  1
  O  O201  1  0.00153761  0.25390996  0.85605696  1
  O  O202  1  0.00289468  0.78236505  0.39433944  1
  O  O203  1  0.00731305  0.74636671  0.85760112  1
  O  O204  1  0.49898598  0.26711982  0.37941617  1
  O  O205  1  0.51635884  0.22801658  0.86504126  1
  O  O206  1  0.50409104  0.71589876  0.34100121  1
  O  O207  1  0.48766504  0.76523292  0.88937888  1
  O  O208  1  0.24066572  0.12863788  0.50055829  1
  O  O209  1  0.25273149  0.11933075  0.98396841  1
  O  O210  1  0.23443035  0.61916116  0.50226318  1
  O  O211  1  0.23544182  0.62392816  0.97984357  1
  O  O212  1  0.75312046  0.12690646  0.48576446  1
  O  O213  1  0.76550799  0.13870930  0.97670068  1
  O  O214  1  0.73877575  0.63591312  0.52366855  1
  O  O215  1  0.78747238  0.63943339  0.97254226  1
  O  O216  1  0.26953328  0.38373714  -0.05376603  1
  O  O217  1  0.26749993  0.35509508  0.49979093  1
  O  O218  1  0.26022733  0.85074727  0.00510191  1
  O  O219  1  0.26348462  0.88248082  0.51263647  1
  O  O220  1  0.75493509  0.34875356  -0.01236990  1
  O  O221  1  0.76254097  0.37186101  0.48561405  1
  O  O222  1  0.69440526  0.80500705  -0.01643286  1
  O  O223  1  0.74058421  0.86559762  0.51654401  1
  O  O224  1  0.09211908  0.45423112  0.25106959  1
  O  O225  1  0.11556089  0.49843452  0.73745752  1
  O  O226  1  0.12355887  0.99146594  0.24788045  1
  O  O227  1  0.13494254  1.00372334  0.75209373  1
  O  O228  1  0.61606349  0.53822907  0.22604825  1
  O  O229  1  0.62926878  0.51274593  0.75837204  1
  O  O230  1  0.62294484  0.98417325  0.23860731  1
  O  O231  1  0.61501692  0.99154395  0.73525778  1
  O  O232  1  0.37551809  0.00797567  0.26954643  1
  O  O233  1  0.37938612  0.00688265  0.74960096  1
  O  O234  1  0.37698613  0.49873884  0.26148137  1
  O  O235  1  0.43156876  0.48700480  0.76803581  1
  O  O236  1  0.88222245  0.01107431  0.26215836  1
  O  O237  1  0.87395204  -0.03262406  0.78150660  1
  O  O238  1  0.88250756  0.48670419  0.26846826  1
  O  O239  1  0.84372927  0.48960928  0.75607718  1
  O  O240  1  0.13841145  0.35419257  0.38509109  1
  O  O241  1  0.10454912  0.37804944  0.86630806  1
  O  O242  1  0.11439297  0.89446860  0.37114024  1
  O  O243  1  0.12775166  0.86366128  0.87406937  1
  O  O244  1  0.60972521  0.38457139  0.37098405  1
  O  O245  1  0.61692281  0.35152620  0.88724296  1
  O  O246  1  0.62633372  0.88152635  0.36184767  1
  O  O247  1  0.61067353  0.88484258  0.86025852  1
  O  O248  1  0.36479262  0.13209851  0.14428204  1
  O  O249  1  0.37261495  0.12774800  0.63329516  1
  O  O250  1  0.33012559  0.68252006  0.08434238  1
  O  O251  1  0.37468857  0.61846903  0.64815825  1
  O  O252  1  0.87655314  0.12804992  0.13734868  1
  O  O253  1  0.88011043  0.12883762  0.63046032  1
  O  O254  1  0.89696280  0.64203312  0.12486445  1
  O  O255  1  0.87956215  0.62333430  0.62253118  1
  O  O256  1  0.26793577  0.26000897  0.13256163  1
  O  O257  1  0.26450187  0.24346446  0.61483168  1
  O  O258  1  0.27952523  0.72968362  0.12245721  1
  O  O259  1  0.24408994  0.76358344  0.62940444  1
  O  O260  1  0.75727514  0.23795222  0.10938201  1
  O  O261  1  0.72973544  0.25572009  0.59989684  1
  O  O262  1  0.77307946  0.73705810  0.13163540  1
  O  O263  1  0.74757281  0.76195614  0.62067994  1
  O  O264  1  0.25031872  0.23356142  0.39261209  1
  O  O265  1  0.26196260  0.22816928  0.86691349  1
  O  O266  1  0.25351961  0.72921330  0.37878480  1
  O  O267  1  0.23269087  0.74375056  0.86594599  1
  O  O268  1  0.75398094  0.23882792  0.38590600  1
  O  O269  1  0.73927654  0.23911792  0.87073087  1
  O  O270  1  0.79267681  0.74487503  0.41028405  1
  O  O271  1  0.71971595  0.77564702  0.91921498  1
  O  O272  1  0.01543422  0.12844987  -0.01150428  1
  O  O273  1  0.00959480  0.12585239  0.51814917  1
  O  O274  1  0.00178137  0.61722788  -0.00021824  1
  O  O275  1  0.00337948  0.61755486  0.51425006  1
  O  O276  1  0.49819931  0.10589226  -0.00249911  1
  O  O277  1  0.50089273  0.11202595  0.49846478  1
  O  O278  1  0.52054644  0.59443771  -0.06145987  1
  O  O279  1  0.50611134  0.60915242  0.47975876  1
  O  O280  1  0.48942936  0.38221724  0.48905906  1
  O  O281  1  0.55897380  0.36947596  1.08292120  1
  O  O282  1  0.48425337  0.88732385  0.50184650  1
  O  O283  1  0.49757773  0.88880593  0.98072904  1
  O  O284  1  0.98373784  0.38611783  0.51961064  1
  O  O285  1  1.00722407  0.39193144  0.98985109  1
  O  O286  1  1.00827125  0.89746589  0.50098927  1
  O  O287  1  1.00783671  0.87694605  1.00478733  1
  O  O288  1  0.48083608  0.48849000  0.38344475  1
  O  O289  1  0.47859791  0.48377472  0.82650712  1
  O  O290  1  0.48675612  1.00261009  0.38646471  1
  O  O291  1  0.48713989  0.99714176  0.88204943  1
  O  O292  1  1.01601427  0.48685428  0.39979235  1
  O  O293  1  0.99369747  0.49384465  0.87858636  1
  O  O294  1  0.99457082  1.00429297  0.39047217  1
  O  O295  1  0.99472955  1.00226156  0.87388400  1
  O  O296  1  0.02315694  0.00017832  0.13285965  1
  O  O297  1  -0.00627621  0.01875321  0.62005980  1
  O  O298  1  -0.00037809  0.51589937  0.11051312  1
  O  O299  1  -0.00539312  0.50982726  0.62380053  1
  O  O300  1  0.47661328  -0.01246373  0.10585028  1
  O  O301  1  0.50646246  -0.00055057  0.61524452  1
  O  O302  1  0.52079462  0.50024556  0.12306006  1
  O  O303  1  0.49207760  0.50516673  0.60130861  1
  O  O304  1  0.25029665  0.37854738  0.24770820  1
  O  O305  1  0.27243541  0.38012311  0.74642646  1
  O  O306  1  0.23157333  0.86872073  0.26259534  1
  O  O307  1  0.25292069  0.88780642  0.73583669  1
  O  O308  1  0.78123985  0.40543260  0.30685894  1
  O  O309  1  0.72938120  0.39696650  0.76494514  1
  O  O310  1  0.74165276  0.86548898  0.25497859  1
  O  O311  1  0.73284056  0.87341929  0.73699165  1
  O  O312  1  0.25362838  0.12397155  0.26795479  1
  O  O313  1  0.26041806  0.11041557  0.75589167  1
  O  O314  1  0.23080398  0.61920909  0.26891919  1
  O  O315  1  0.25700077  0.63059572  0.75245934  1
  O  O316  1  0.76930382  0.12814297  0.26880484  1
  O  O317  1  0.76044632  0.12969185  0.76072634  1
  O  O318  1  0.68406204  0.65565145  0.33324501  1
  O  O319  1  0.75510505  0.60669897  0.75804905  1
  O  O320  1  0.36598607  0.11746908  0.37292279  1
  O  O321  1  0.36936018  0.11204756  0.86185921  1
  O  O322  1  0.35386066  0.60447166  0.38487636  1
  O  O323  1  0.35754330  0.63160364  0.86046373  1
  O  O324  1  0.87409193  0.11791205  0.37105959  1
  O  O325  1  0.87622931  0.10793968  0.87207223  1
  O  O326  1  0.95796021  0.66410165  0.33196090  1
  O  O327  1  0.83700883  0.64996436  0.91555685  1
  O  O328  1  0.15943003  0.37411982  0.10014017  1
  O  O329  1  0.12030614  0.38470974  0.62163637  1
  O  O330  1  0.12615210  0.88065055  0.13926390  1
  O  O331  1  0.13931184  0.87930623  0.61291590  1
  O  O332  1  0.66711492  0.42416650  0.15744067  1
  O  O333  1  0.58700051  0.37766682  0.64417329  1
  O  O334  1  0.62355998  0.88938787  0.13427981  1
  O  O335  1  0.62213174  0.87841213  0.63607984  1
  O  O336  1  0.13150016  0.24129247  0.26808075  1
  O  O337  1  0.12798047  0.25694550  0.74746131  1
  O  O338  1  0.11174711  0.76241546  0.25136465  1
  O  O339  1  0.11244697  0.74773599  0.75763247  1
  O  O340  1  0.65867535  0.26903030  0.23358225  1
  O  O341  1  0.61737435  0.24215547  0.75503353  1
  O  O342  1  0.61667689  0.76642656  0.23537503  1
  O  O343  1  0.62416055  0.76098962  0.75268738  1
  O  O344  1  0.37444867  0.23299429  0.26307321  1
  O  O345  1  0.37799790  0.23122221  0.73751975  1
  O  O346  1  0.38491689  0.77033246  0.24290712  1
  O  O347  1  0.37699553  0.75454690  0.74185227  1
  O  O348  1  0.86588899  0.24558721  0.23335105  1
  O  O349  1  0.84679517  0.29265411  0.70799159  1
  O  O350  1  0.89099965  0.76891003  0.23880772  1
  O  O351  1  0.88089105  0.76069174  0.76314028  1
  O  O352  1  0.36780784  0.48509023  0.50210075  1
  O  O353  1  0.34899911  0.39964333  0.95197752  1
  O  O354  1  0.38602804  0.99808572  0.49531649  1
  O  O355  1  0.37382872  1.00293205  0.98524767  1
  O  O356  1  0.88111897  0.50719911  0.49734825  1
  O  O357  1  0.88721934  0.50186203  1.00353198  1
  O  O358  1  0.89020730  1.01230565  0.49544753  1
  O  O359  1  0.88485873  0.99009902  0.99666843  1
  O  O360  1  0.12826066  0.00946817  0.00886805  1
  O  O361  1  0.11432933  0.01735776  0.49990411  1
  O  O362  1  0.11255001  0.52181318  -0.00769618  1
  O  O363  1  0.10732702  0.50682287  0.51894224  1
  O  O364  1  0.61058738  -0.00770260  0.01525554  1
  O  O365  1  0.60950382  -0.01242209  0.50899483  1
  O  O366  1  0.63277106  0.49183825  0.01966230  1
  O  O367  1  0.61632668  0.49209043  0.49404025  1
  O  O368  1  0.37314035  0.35613380  0.12672484  1
  O  O369  1  0.38919391  0.35658753  0.61114038  1
  O  O370  1  0.30309814  0.87307672  0.05893893  1
  O  O371  1  0.36745225  0.87402131  0.61344071  1
  O  O372  1  0.87025224  0.36515155  0.13014672  1
  O  O373  1  0.86500307  0.34474678  0.65592200  1
  O  O374  1  0.88161612  0.87283824  0.11676364  1
  O  O375  1  0.85710828  0.88899601  0.62918630  1
  O  O376  1  0.13647244  0.12962154  0.38646130  1
  O  O377  1  0.14083331  0.11752738  0.88424800  1
  O  O378  1  0.13257427  0.60819289  0.39508435  1
  O  O379  1  0.13022734  0.63287481  0.87285661  1
  O  O380  1  0.64280796  0.11426120  0.36868481  1
  O  O381  1  0.64180550  0.11660120  0.86895180  1
  O  O382  1  0.67557905  0.59052516  0.37062554  1
  O  O383  1  0.65583752  0.63029694  0.85649356  1
