# generated using pymatgen
data_VZnO4
_symmetry_space_group_name_H-M   'P 1'
_cell_length_a   16.97263120
_cell_length_b   16.87296636
_cell_length_c   16.82262079
_cell_angle_alpha   90.52217390
_cell_angle_beta   90.19476783
_cell_angle_gamma   90.19901423
_symmetry_Int_Tables_number   1
_chemical_formula_structural   VZnO4
_chemical_formula_sum   'V64 Zn64 O256'
_cell_volume   4817.38169341
_cell_formula_units_Z   64
loop_
 _symmetry_equiv_pos_site_id
 _symmetry_equiv_pos_as_xyz
  1  'x, y, z'
loop_
 _atom_site_type_symbol
 _atom_site_label
 _atom_site_symmetry_multiplicity
 _atom_site_fract_x
 _atom_site_fract_y
 _atom_site_fract_z
 _atom_site_occupancy
  V  V0  1  0.63540938  0.23955658  0.86799486  1
  V  V1  1  0.37661300  0.74579581  0.62248258  1
  V  V2  1  0.39324377  0.89230947  0.00578559  1
  V  V3  1  0.50641386  0.35622252  0.38335966  1
  V  V4  1  -0.00640442  0.13088943  0.13671680  1
  V  V5  1  0.11187728  0.11444381  0.51909683  1
  V  V6  1  0.50897071  0.11036251  0.11387060  1
  V  V7  1  -0.00873748  0.73801903  0.75311624  1
  V  V8  1  0.86637944  0.25614339  0.13424924  1
  V  V9  1  0.24746020  0.62098388  0.36897048  1
  V  V10  1  0.85740742  0.13484492  0.75750990  1
  V  V11  1  -0.00176508  0.62797331  0.61380255  1
  V  V12  1  0.85690484  0.01223233  0.88242938  1
  V  V13  1  0.59813101  0.88349818  0.75818236  1
  V  V14  1  0.87503204  0.49215594  0.37209934  1
  V  V15  1  0.38904996  0.50633693  0.37922982  1
  V  V16  1  0.63112158  0.36925078  0.24019482  1
  V  V17  1  0.12401554  0.75837291  0.87244449  1
  V  V18  1  0.35421766  -0.00626199  0.85666455  1
  V  V19  1  0.47569266  0.13056232  0.62237678  1
  V  V20  1  0.75729952  0.52364036  0.76251348  1
  V  V21  1  0.74924256  0.38533418  0.62151502  1
  V  V22  1  0.38198971  0.09922426  0.25105266  1
  V  V23  1  0.75320887  0.85716316  0.11273128  1
  V  V24  1  0.12480755  0.74719961  0.35729079  1
  V  V25  1  -0.00080465  0.87336771  0.38310041  1
  V  V26  1  0.88316898  0.25305824  0.61313508  1
  V  V27  1  0.13699995  0.48931665  0.12631822  1
  V  V28  1  0.47699087  -0.01374492  0.48742132  1
  V  V29  1  0.76014410  0.11686568  0.37263865  1
  V  V30  1  -0.00942464  0.25828059  0.77567383  1
  V  V31  1  0.58658772  0.50498356  0.12691420  1
  V  V32  1  0.23952899  0.50449110  0.74217436  1
  V  V33  1  0.62602365  -0.00470208  0.11620088  1
  V  V34  1  0.61373618  0.86807187  0.25737250  1
  V  V35  1  0.62486023  0.10255043  0.50315578  1
  V  V36  1  0.25240543  0.77096636  0.01499899  1
  V  V37  1  0.75748733  0.62852549  0.37023012  1
  V  V38  1  -0.00342207  -0.00195002  -0.00588685  1
  V  V39  1  0.13199588  0.12497411  0.00375697  1
  V  V40  1  0.13147299  0.62178062  0.00059820  1
  V  V41  1  0.89949245  0.36594851  -0.00915558  1
  V  V42  1  0.25910740  0.47908746  0.24587250  1
  V  V43  1  0.24598368  0.88535510  0.63574569  1
  V  V44  1  0.78070039  0.75135931  0.50082288  1
  V  V45  1  0.36313906  0.36244962  0.51005709  1
  V  V46  1  0.38974553  0.50186079  0.87660660  1
  V  V47  1  0.14146548  0.25179045  0.88642575  1
  V  V48  1  0.36527130  0.32490136  0.02901953  1
  V  V49  1  0.77988436  0.87918957  0.62626832  1
  V  V50  1  0.61919551  0.38842283  0.75497912  1
  V  V51  1  0.01157223  0.49158602  0.50447580  1
  V  V52  1  0.25037725  0.10171745  0.36888333  1
  V  V53  1  0.61066325  0.74569395  0.38200052  1
  V  V54  1  0.02371635  0.62423757  0.14368611  1
  V  V55  1  0.22678356  0.72256741  0.51653759  1
  V  V56  1  0.01638562  0.37051335  0.36068979  1
  V  V57  1  0.76296439  -0.00924725  0.25520969  1
  V  V58  1  0.12146491  0.37983280  0.74426552  1
  V  V59  1  0.73665062  0.25248830  0.49493007  1
  V  V60  1  0.90561315  0.74764347  0.11858597  1
  V  V61  1  0.11726092  0.89006229  0.74879025  1
  V  V62  1  0.50109951  0.24035152  0.23903442  1
  V  V63  1  0.39084571  0.62624442  0.74402222  1
  Zn  Zn64  1  0.17143001  0.12726636  0.20754526  1
  Zn  Zn65  1  0.14083812  0.19750910  0.66430468  1
  Zn  Zn66  1  0.26826450  0.74542906  0.22454809  1
  Zn  Zn67  1  0.17236750  0.67639566  0.68946368  1
  Zn  Zn68  1  0.68900616  0.18528825  0.18695265  1
  Zn  Zn69  1  0.67791827  0.20200863  0.68167606  1
  Zn  Zn70  1  0.67452900  0.68159302  0.18851468  1
  Zn  Zn71  1  0.72573169  0.72780663  0.71117226  1
  Zn  Zn72  1  0.32877883  0.30639038  0.31162212  1
  Zn  Zn73  1  0.29657224  0.33368038  0.84656142  1
  Zn  Zn74  1  0.31332358  0.83575351  0.38216563  1
  Zn  Zn75  1  0.31264917  0.81101189  0.81387583  1
  Zn  Zn76  1  0.81184394  0.30899026  0.31412038  1
  Zn  Zn77  1  0.80342939  0.32839585  0.81600583  1
  Zn  Zn78  1  0.81872510  0.80243716  0.29898325  1
  Zn  Zn79  1  0.81564961  0.82372250  0.82395884  1
  Zn  Zn80  1  0.18995258  0.43662410  0.44192859  1
  Zn  Zn81  1  0.20142758  0.43760292  0.93647560  1
  Zn  Zn82  1  0.16974154  0.94726725  0.41856413  1
  Zn  Zn83  1  0.18812442  0.94950808  0.93277200  1
  Zn  Zn84  1  0.69383596  0.43323302  0.42838231  1
  Zn  Zn85  1  0.67714757  0.47182780  0.93395278  1
  Zn  Zn86  1  0.69586863  0.92725452  0.43978073  1
  Zn  Zn87  1  0.68106815  0.92869467  0.92929654  1
  Zn  Zn88  1  0.34539208  0.10353546  0.02966305  1
  Zn  Zn89  1  0.30304140  0.06365996  0.54889663  1
  Zn  Zn90  1  0.31759563  0.57132902  0.06019248  1
  Zn  Zn91  1  0.31452551  0.55006767  0.56346770  1
  Zn  Zn92  1  0.80809961  0.06870228  0.06717018  1
  Zn  Zn93  1  0.78833027  0.07829606  0.59037320  1
  Zn  Zn94  1  0.86391531  0.61550532  0.23361981  1
  Zn  Zn95  1  0.82472400  0.56988706  0.55467260  1
  Zn  Zn96  1  0.42910270  0.42113307  0.19063949  1
  Zn  Zn97  1  0.41100574  0.40667483  0.71716795  1
  Zn  Zn98  1  0.40381855  0.88923075  0.21976036  1
  Zn  Zn99  1  0.43705259  0.94597478  0.67713088  1
  Zn  Zn100  1  0.93929601  0.43685802  0.18460340  1
  Zn  Zn101  1  0.93284664  0.43828244  0.69030942  1
  Zn  Zn102  1  0.93607424  0.93838904  0.17402799  1
  Zn  Zn103  1  0.92365446  0.92580552  0.73647600  1
  Zn  Zn104  1  0.04109626  0.08131919  0.34362116  1
  Zn  Zn105  1  0.05283338  0.07602438  0.81620296  1
  Zn  Zn106  1  0.07248054  0.54640241  0.31440455  1
  Zn  Zn107  1  0.05036204  0.55896684  0.82333612  1
  Zn  Zn108  1  0.57377822  0.05621701  0.31732757  1
  Zn  Zn109  1  0.56586764  0.07115350  0.79396492  1
  Zn  Zn110  1  0.58741540  0.54763135  0.32515187  1
  Zn  Zn111  1  0.56799168  0.56563243  0.79830669  1
  Zn  Zn112  1  0.43630134  0.17801708  0.43766121  1
  Zn  Zn113  1  0.47662504  0.21750894  0.95498058  1
  Zn  Zn114  1  0.42625528  0.69587946  0.44417563  1
  Zn  Zn115  1  0.25775656  0.62717346  0.87926845  1
  Zn  Zn116  1  0.93632244  0.19457915  0.43075427  1
  Zn  Zn117  1  0.93421041  0.18245199  0.94795030  1
  Zn  Zn118  1  0.94838917  0.68106353  0.42708203  1
  Zn  Zn119  1  0.94176714  0.66004722  0.93990932  1
  Zn  Zn120  1  0.06158595  0.30842666  0.06718331  1
  Zn  Zn121  1  0.06786399  0.31205081  0.55073556  1
  Zn  Zn122  1  0.06816596  0.81786275  0.05408944  1
  Zn  Zn123  1  0.05738472  0.81424206  0.56770046  1
  Zn  Zn124  1  0.57012100  0.36260514  0.02276757  1
  Zn  Zn125  1  0.56079258  0.31374800  0.57074432  1
  Zn  Zn126  1  0.55756274  0.81104555  0.05958576  1
  Zn  Zn127  1  0.55794504  0.81619964  0.55493066  1
  O  O128  1  0.11035484  0.12679272  0.11417084  1
  O  O129  1  0.08737310  0.10031978  0.61651522  1
  O  O130  1  0.13175008  0.61946363  0.11746859  1
  O  O131  1  0.09893670  0.61076785  0.63406786  1
  O  O132  1  0.62023145  0.10488366  0.13862933  1
  O  O133  1  0.63797020  0.12459369  0.60558700  1
  O  O134  1  0.76324838  0.59926795  0.04857586  1
  O  O135  1  0.61897972  0.52976266  0.56888538  1
  O  O136  1  0.39520268  0.38100390  0.37795930  1
  O  O137  1  0.38679654  0.39810373  0.83370924  1
  O  O138  1  0.26967149  0.89490555  0.46802975  1
  O  O139  1  0.36441001  0.88925766  0.88196990  1
  O  O140  1  0.87534185  0.39009283  0.36943957  1
  O  O141  1  0.87913612  0.36938886  0.89076124  1
  O  O142  1  0.90378505  0.85810493  0.35152977  1
  O  O143  1  0.87929888  0.91224592  0.84988011  1
  O  O144  1  0.25826954  0.00151980  0.36305907  1
  O  O145  1  0.25567732  0.01441158  0.86938951  1
  O  O146  1  0.25363995  0.50820947  0.36348113  1
  O  O147  1  0.26391564  0.50387942  0.86238144  1
  O  O148  1  0.75297239  0.00067465  0.36629796  1
  O  O149  1  0.75793945  0.00570866  0.88638766  1
  O  O150  1  0.76217998  0.51451492  0.38422435  1
  O  O151  1  0.74768226  0.51984872  0.86419962  1
  O  O152  1  0.25664817  0.50552131  0.13991009  1
  O  O153  1  0.24439799  0.50023560  0.64130569  1
  O  O154  1  0.23174980  0.95987269  0.15003365  1
  O  O155  1  0.25535152  0.98170619  0.61744796  1
  O  O156  1  0.76702731  0.55922987  0.10929218  1
  O  O157  1  0.76130294  0.48354077  0.60234888  1
  O  O158  1  0.74433967  0.98966779  0.13771216  1
  O  O159  1  0.75398952  0.97708861  0.62277200  1
  O  O160  1  0.00807618  0.38691979  0.26073293  1
  O  O161  1  0.00620391  0.36881350  0.75333267  1
  O  O162  1  0.01206101  0.87521120  0.24168198  1
  O  O163  1  0.01546962  0.85811863  0.74491696  1
  O  O164  1  0.50379048  0.35570249  0.25674244  1
  O  O165  1  0.52403619  0.39444287  0.72538140  1
  O  O166  1  0.51639480  0.87199643  0.24551553  1
  O  O167  1  0.49773309  0.87996858  0.75068912  1
  O  O168  1  0.50112817  0.12915282  0.25802671  1
  O  O169  1  0.49072281  0.11517507  0.72182347  1
  O  O170  1  0.61181180  0.60323669  0.13220990  1
  O  O171  1  0.48961474  0.62518259  0.73778796  1
  O  O172  1  1.00650118  0.11034290  0.23546837  1
  O  O173  1  0.99083400  0.15394741  0.75396813  1
  O  O174  1  1.02409488  0.62640919  0.24445831  1
  O  O175  1  0.99944285  0.63472659  0.74674555  1
  O  O176  1  0.37225653  0.21941219  0.00806726  1
  O  O177  1  0.37866440  0.26440987  0.48696911  1
  O  O178  1  0.35156201  0.78440118  -0.00838717  1
  O  O179  1  0.34998273  0.74441899  0.51341624  1
  O  O180  1  0.88125060  0.26142177  0.01124160  1
  O  O181  1  0.86816922  0.24388623  0.51062615  1
  O  O182  1  0.88947280  0.73382561  0.01898588  1
  O  O183  1  0.87829428  0.75092152  0.48956569  1
  O  O184  1  0.13906485  0.22452550  0.54880448  1
  O  O185  1  0.12754587  0.24235112  0.99477005  1
  O  O186  1  0.12725812  0.73560483  0.50351502  1
  O  O187  1  0.13148085  0.74495940  0.99031114  1
  O  O188  1  0.63709012  0.24323806  0.49807370  1
  O  O189  1  0.59464122  0.26286643  0.97099654  1
  O  O190  1  0.63049195  0.75807812  0.48327511  1
  O  O191  1  0.60850682  0.72040305  0.99247350  1
  O  O192  1  0.51208028  0.22519355  0.13751030  1
  O  O193  1  0.50444272  0.22906561  0.61394286  1
  O  O194  1  0.48748275  0.73713543  0.12861842  1
  O  O195  1  0.47377239  0.75446192  0.61093245  1
  O  O196  1  0.99663271  0.23791795  0.12980483  1
  O  O197  1  0.98308834  0.26208616  0.62534006  1
  O  O198  1  1.01073058  0.74641224  0.12826454  1
  O  O199  1  1.00364161  0.73868495  0.63841328  1
  O  O200  1  -0.00970396  0.27288850  0.37141890  1
  O  O201  1  0.00183385  0.25542893  0.87560291  1
  O  O202  1  0.02018835  0.74542807  0.36503436  1
  O  O203  1  0.01719845  0.73894776  0.87020685  1
  O  O204  1  0.50712083  0.25447510  0.37079407  1
  O  O205  1  0.52224062  0.26148397  0.86296475  1
  O  O206  1  0.51082567  0.73552244  0.38088750  1
  O  O207  1  0.57762320  0.69987706  0.92183108  1
  O  O208  1  0.22976751  0.11976318  0.47163350  1
  O  O209  1  0.23021801  0.11503421  1.01546562  1
  O  O210  1  0.24675577  0.62054796  0.49589967  1
  O  O211  1  0.24704182  0.64644853  1.00138288  1
  O  O212  1  0.74462148  0.12899202  0.49472108  1
  O  O213  1  0.73312638  0.14474740  1.03390615  1
  O  O214  1  0.75880357  0.64112093  0.48754550  1
  O  O215  1  0.77231289  0.69267235  0.91980878  1
  O  O216  1  0.28623871  0.36347154  -0.02792820  1
  O  O217  1  0.26358876  0.37306539  0.49644785  1
  O  O218  1  0.22182881  0.86926676  0.00523825  1
  O  O219  1  0.23272418  0.84636768  0.52641035  1
  O  O220  1  0.78862259  0.43352334  0.00771465  1
  O  O221  1  0.74500703  0.36092762  0.50058154  1
  O  O222  1  0.74603407  0.87415200  0.01458313  1
  O  O223  1  0.75869969  0.86223993  0.51015766  1
  O  O224  1  0.15022175  0.50066524  0.23904586  1
  O  O225  1  0.12363849  0.48864822  0.76589111  1
  O  O226  1  0.08952319  0.87968654  0.21526114  1
  O  O227  1  0.10694375  0.98816295  0.76114701  1
  O  O228  1  0.61416557  0.48559836  0.23469462  1
  O  O229  1  0.64299284  0.49939198  0.74106367  1
  O  O230  1  0.63608974  0.98103399  0.24831524  1
  O  O231  1  0.62076459  0.98242255  0.74874728  1
  O  O232  1  0.39582353  0.00178556  0.25884779  1
  O  O233  1  0.36545826  -0.00999481  0.75608328  1
  O  O234  1  0.36684907  0.49353221  0.26630918  1
  O  O235  1  0.36049113  0.51598965  0.74140509  1
  O  O236  1  0.86099717  -0.00695222  0.24436184  1
  O  O237  1  0.87912101  0.03139771  0.75604827  1
  O  O238  1  0.88444588  0.50636767  0.26275946  1
  O  O239  1  0.85462966  0.50116917  0.74449298  1
  O  O240  1  0.11595499  0.37994342  0.37609600  1
  O  O241  1  0.13219603  0.35816561  0.87722786  1
  O  O242  1  0.12179417  0.85241344  0.37733518  1
  O  O243  1  0.12719840  0.86500900  0.86431619  1
  O  O244  1  0.60736583  0.39334900  0.36095191  1
  O  O245  1  0.62491148  0.39487367  0.85790246  1
  O  O246  1  0.62903900  0.86160894  0.36570991  1
  O  O247  1  0.62749939  0.86223253  0.85585083  1
  O  O248  1  0.40288240  0.10657208  0.13754753  1
  O  O249  1  0.37610032  0.13295955  0.60406599  1
  O  O250  1  0.39164334  0.64557386  0.12703447  1
  O  O251  1  0.36735720  0.63278854  0.63065886  1
  O  O252  1  0.88578131  0.13989276  0.12263140  1
  O  O253  1  0.86897212  0.14648449  0.64042250  1
  O  O254  1  0.91763961  0.62807349  0.12553335  1
  O  O255  1  0.89573246  0.62011095  0.62731782  1
  O  O256  1  0.16033762  0.24823605  0.23869031  1
  O  O257  1  0.30432545  0.24512103  0.72053572  1
  O  O258  1  0.24901663  0.76024987  0.11500370  1
  O  O259  1  0.24272544  0.73909045  0.62169836  1
  O  O260  1  0.76437424  0.24360503  0.12458285  1
  O  O261  1  0.75589060  0.25840874  0.60868175  1
  O  O262  1  0.73386648  0.75825192  0.12147888  1
  O  O263  1  0.76908801  0.75327233  0.60499029  1
  O  O264  1  0.24397176  0.23275866  0.34617505  1
  O  O265  1  0.23899001  0.23830356  0.87170319  1
  O  O266  1  0.23977955  0.73615919  0.39856860  1
  O  O267  1  0.23462542  0.74759573  0.87783318  1
  O  O268  1  0.75769373  0.23572310  0.38739778  1
  O  O269  1  0.73133947  0.26960625  0.88231908  1
  O  O270  1  0.75358939  0.74252229  0.38150507  1
  O  O271  1  0.74089064  0.75212239  0.87531793  1
  O  O272  1  0.00821181  0.12245056  0.01180058  1
  O  O273  1  0.03037080  0.13251282  0.45294321  1
  O  O274  1  0.02925975  0.62758986  0.01552937  1
  O  O275  1  0.00163808  0.61676740  0.50660258  1
  O  O276  1  0.50693171  0.11957411  0.01557177  1
  O  O277  1  0.51506197  0.11585155  0.49992028  1
  O  O278  1  0.44970383  0.67997482  0.08631580  1
  O  O279  1  0.50109374  0.60805571  0.50570950  1
  O  O280  1  0.50619124  0.37098997  0.48536569  1
  O  O281  1  0.45590681  0.35771888  0.99860190  1
  O  O282  1  0.48700089  0.88471820  0.50100977  1
  O  O283  1  0.49230552  0.87802319  0.99446945  1
  O  O284  1  1.00348890  0.38534831  0.48994963  1
  O  O285  1  0.99837660  0.37963047  1.00058458  1
  O  O286  1  0.99960119  0.86241293  0.48433958  1
  O  O287  1  1.00503606  0.89742776  0.99976043  1
  O  O288  1  0.48914807  0.50832560  0.36845231  1
  O  O289  1  0.48906548  0.51380067  0.86571334  1
  O  O290  1  0.50838166  0.99990613  0.39036929  1
  O  O291  1  0.46884047  1.03912898  0.87168889  1
  O  O292  1  0.99521682  0.49303344  0.38099593  1
  O  O293  1  0.96209548  0.55800749  0.89043354  1
  O  O294  1  1.01989188  0.97214390  0.36807461  1
  O  O295  1  0.98324811  1.01846972  0.88907365  1
  O  O296  1  -0.01681588  0.01620281  0.10619002  1
  O  O297  1  -0.04430455  0.00205084  0.55296159  1
  O  O298  1  0.02931144  0.51040739  0.13464804  1
  O  O299  1  -0.00900268  0.49892024  0.60846102  1
  O  O300  1  0.52095637  0.00094112  0.12710421  1
  O  O301  1  0.48909759  0.01345436  0.60016092  1
  O  O302  1  0.48697978  0.49929392  0.12933988  1
  O  O303  1  0.52721764  0.61048027  0.57529960  1
  O  O304  1  0.25737939  0.38089415  0.25481464  1
  O  O305  1  0.23122547  0.38808502  0.75763678  1
  O  O306  1  0.23735348  0.93562945  0.21839984  1
  O  O307  1  0.23191235  0.87209081  0.74370107  1
  O  O308  1  0.72917479  0.36941744  0.25919587  1
  O  O309  1  0.74357732  0.39267868  0.73606756  1
  O  O310  1  0.74625568  0.87947857  0.24333175  1
  O  O311  1  0.75413916  0.84758233  0.72807940  1
  O  O312  1  0.28099640  0.10869454  0.23353614  1
  O  O313  1  0.23298160  0.13298093  0.70783911  1
  O  O314  1  0.26945795  0.63600812  0.27181299  1
  O  O315  1  0.23668117  0.61037821  0.75689097  1
  O  O316  1  0.74345721  0.10890887  0.26478539  1
  O  O317  1  0.75922078  0.14212959  0.74647645  1
  O  O318  1  0.74620670  0.62680580  0.26517140  1
  O  O319  1  0.74173422  0.62124484  0.73721933  1
  O  O320  1  0.36093169  0.12946879  0.35989338  1
  O  O321  1  0.41175830  0.09653602  0.87538322  1
  O  O322  1  0.36612583  0.61081840  0.39054166  1
  O  O323  1  0.37369785  0.61755609  0.85077292  1
  O  O324  1  0.85995602  0.11954711  0.38292365  1
  O  O325  1  0.86730265  0.12812586  0.86820358  1
  O  O326  1  0.86670900  0.62267857  0.36507236  1
  O  O327  1  0.82981711  0.65288082  0.88632206  1
  O  O328  1  0.13263450  0.39107520  0.11314564  1
  O  O329  1  0.12069689  0.37100267  0.64522575  1
  O  O330  1  0.09642782  0.89888755  0.13937418  1
  O  O331  1  0.13128237  0.87275703  0.63941141  1
  O  O332  1  0.61313674  0.37896611  0.13722254  1
  O  O333  1  0.64404427  0.37040651  0.62767419  1
  O  O334  1  0.63247808  0.87597505  0.13290981  1
  O  O335  1  0.62773521  0.84517424  0.64542869  1
  O  O336  1  0.16870783  0.25741410  0.31468864  1
  O  O337  1  0.11014949  0.25974761  0.76225425  1
  O  O338  1  0.15205098  0.74946610  0.26216373  1
  O  O339  1  0.11812120  0.75005331  0.76327345  1
  O  O340  1  0.61730605  0.25878177  0.24802098  1
  O  O341  1  0.63259250  0.27394984  0.75820469  1
  O  O342  1  0.62778162  0.75899728  0.26232108  1
  O  O343  1  0.61688337  0.77879979  0.70117184  1
  O  O344  1  0.39782356  0.23804754  0.24907389  1
  O  O345  1  0.29542058  0.17178981  0.73972175  1
  O  O346  1  0.34231399  0.81420340  0.27954989  1
  O  O347  1  0.36337111  0.73357350  0.73889841  1
  O  O348  1  0.87458860  0.25801990  0.23563782  1
  O  O349  1  0.88047576  0.25332211  0.75484075  1
  O  O350  1  0.86320446  0.73155397  0.21787653  1
  O  O351  1  0.89504001  0.75533251  0.76910400  1
  O  O352  1  0.37349113  0.48457255  0.48443009  1
  O  O353  1  0.37324853  0.51171872  0.97681504  1
  O  O354  1  0.37905521  1.00685046  0.48180818  1
  O  O355  1  0.36774231  0.99541193  0.98700432  1
  O  O356  1  0.89053968  0.50815809  0.47813030  1
  O  O357  1  0.85353705  0.47607232  1.00507769  1
  O  O358  1  0.89777828  1.01564762  0.51120056  1
  O  O359  1  0.87757177  1.01206810  0.98964551  1
  O  O360  1  0.10844417  0.01631247  -0.01253344  1
  O  O361  1  0.12623036  0.01482722  0.49563980  1
  O  O362  1  0.15179069  0.51324725  0.01257501  1
  O  O363  1  0.11122576  0.50162822  0.49573818  1
  O  O364  1  0.63425703  -0.00865242  0.01693328  1
  O  O365  1  0.62983664  0.00111511  0.50233755  1
  O  O366  1  0.61260873  0.47482231  0.02430828  1
  O  O367  1  0.60958177  0.50155678  0.50055320  1
  O  O368  1  0.36007591  0.35235238  0.12725301  1
  O  O369  1  0.38366292  0.37707882  0.60935581  1
  O  O370  1  0.38083161  0.89026351  0.10649007  1
  O  O371  1  0.35089781  0.85468993  0.63851237  1
  O  O372  1  0.88402079  0.36414758  0.11513828  1
  O  O373  1  0.85939007  0.35987016  0.63304858  1
  O  O374  1  0.86563605  0.85475187  0.12583676  1
  O  O375  1  0.87929740  0.88426548  0.63571648  1
  O  O376  1  0.15345679  0.10565409  0.32224793  1
  O  O377  1  0.11678399  0.14128659  0.88938000  1
  O  O378  1  0.14130534  0.62812876  0.36966219  1
  O  O379  1  0.12960315  0.62652159  0.89117539  1
  O  O380  1  0.64363008  0.11695623  0.39248829  1
  O  O381  1  0.63250338  0.13914552  0.85797804  1
  O  O382  1  0.63895376  0.63595403  0.37370679  1
  O  O383  1  0.61636190  0.63864202  0.88847356  1
