# generated using pymatgen
data_VZnO4
_symmetry_space_group_name_H-M   'P 1'
_cell_length_a   16.90617619
_cell_length_b   16.89494483
_cell_length_c   16.89613493
_cell_angle_alpha   89.76840897
_cell_angle_beta   90.41058767
_cell_angle_gamma   90.22656321
_symmetry_Int_Tables_number   1
_chemical_formula_structural   VZnO4
_chemical_formula_sum   'V64 Zn64 O256'
_cell_volume   4825.82415337
_cell_formula_units_Z   64
loop_
 _symmetry_equiv_pos_site_id
 _symmetry_equiv_pos_as_xyz
  1  'x, y, z'
loop_
 _atom_site_type_symbol
 _atom_site_label
 _atom_site_symmetry_multiplicity
 _atom_site_fract_x
 _atom_site_fract_y
 _atom_site_fract_z
 _atom_site_occupancy
  V  V0  1  0.86996955  0.63589090  0.74885393  1
  V  V1  1  0.90044542  0.88007689  -0.01249805  1
  V  V2  1  0.24979969  0.86213955  0.12542819  1
  V  V3  1  0.15453231  0.47582574  0.61871494  1
  V  V4  1  0.61319881  0.90420302  0.75941203  1
  V  V5  1  -0.00419382  0.88276666  0.37853486  1
  V  V6  1  0.11635898  -0.00667292  0.12844334  1
  V  V7  1  0.12771723  0.26875673  0.87271149  1
  V  V8  1  0.24568272  -0.00318620  0.25735235  1
  V  V9  1  -0.01745825  0.51115071  0.51114176  1
  V  V10  1  0.38139475  0.62395586  0.77147265  1
  V  V11  1  0.24927933  0.63489262  0.38439158  1
  V  V12  1  0.78568032  0.63776397  0.37346295  1
  V  V13  1  0.76283163  0.11616214  0.87075612  1
  V  V14  1  -0.00686466  0.13675553  0.11756396  1
  V  V15  1  -0.00734074  0.38484222  0.38307732  1
  V  V16  1  0.38112686  0.64015990  0.24244387  1
  V  V17  1  0.50143468  0.48231677  0.00545128  1
  V  V18  1  0.52064831  0.86836725  0.38156357  1
  V  V19  1  0.73509246  0.87098516  0.62723642  1
  V  V20  1  0.12637507  0.11986789  0.00257227  1
  V  V21  1  0.50458298  0.49039334  0.48566205  1
  V  V22  1  -0.01832913  0.26784467  0.76317689  1
  V  V23  1  0.61773870  0.49572312  0.62781068  1
  V  V24  1  0.87450630  0.11966852  0.25447011  1
  V  V25  1  0.48597658  -0.01114021  0.02210298  1
  V  V26  1  0.01198756  0.13289091  0.62339970  1
  V  V27  1  0.63216470  0.84703985  0.24379711  1
  V  V28  1  0.87962115  0.36975088  -0.00483238  1
  V  V29  1  -0.01278386  0.62311737  0.13426002  1
  V  V30  1  -0.00488348  0.76826039  0.74661891  1
  V  V31  1  -0.01309860  0.50762272  -0.01427951  1
  V  V32  1  0.87400675  0.74669627  0.12659170  1
  V  V33  1  0.13004860  0.37376205  0.24667309  1
  V  V34  1  0.11055435  0.72639035  0.88390160  1
  V  V35  1  0.76384096  0.49361957  0.25684955  1
  V  V36  1  0.63070463  0.47790739  0.13654461  1
  V  V37  1  0.37914190  0.12412125  0.25526109  1
  V  V38  1  0.75565054  0.38179647  0.62143625  1
  V  V39  1  -0.01053925  0.25969186  0.25356727  1
  V  V40  1  0.25731277  0.12729871  0.86722422  1
  V  V41  1  0.24830412  0.25886269  0.02075181  1
  V  V42  1  0.15034983  0.01523691  0.62621828  1
  V  V43  1  0.75259874  0.87819142  0.11043316  1
  V  V44  1  0.73117709  0.64185377  0.88062893  1
  V  V45  1  0.73813259  0.00362804  0.25312972  1
  V  V46  1  0.51608813  0.63559160  0.12259494  1
  V  V47  1  0.63026951  0.64054658  0.48456265  1
  V  V48  1  0.37811368  -0.00665641  0.86879963  1
  V  V49  1  0.74490283  0.49437821  0.76503534  1
  V  V50  1  0.87236932  0.24889695  0.61984998  1
  V  V51  1  0.12410486  0.51004937  0.11833842  1
  V  V52  1  0.34612517  0.85520136  0.49983610  1
  V  V53  1  0.51695829  0.30125687  0.83024532  1
  V  V54  1  0.38026575  0.48929263  0.36966418  1
  V  V55  1  0.23706105  0.84476344  0.63526013  1
  V  V56  1  0.61225586  0.12148013  0.00660816  1
  V  V57  1  0.74038270  0.24100935  0.49041859  1
  V  V58  1  0.74949707  0.25045120  0.00836179  1
  V  V59  1  0.50846689  0.75922761  0.76920324  1
  V  V60  1  0.23696349  0.13901912  0.38317480  1
  V  V61  1  0.49805860  0.64372954  0.61794444  1
  V  V62  1  0.39236468  0.24781117  0.13409810  1
  V  V63  1  0.25003675  0.50506582  0.24285906  1
  Zn  Zn64  1  0.18330742  0.18378776  0.19516834  1
  Zn  Zn65  1  0.19159194  0.20820770  0.68806863  1
  Zn  Zn66  1  0.16673815  0.68963059  0.21207579  1
  Zn  Zn67  1  0.18544146  0.67294545  0.71418331  1
  Zn  Zn68  1  0.69334988  0.17881955  0.17658653  1
  Zn  Zn69  1  0.69656972  0.18748233  0.69106615  1
  Zn  Zn70  1  0.70869112  0.67817331  0.18694805  1
  Zn  Zn71  1  0.68396651  0.68715708  0.68949239  1
  Zn  Zn72  1  0.31437117  0.31056558  0.30470007  1
  Zn  Zn73  1  0.32761205  0.34044759  0.89796926  1
  Zn  Zn74  1  0.30448884  0.81774181  0.31565857  1
  Zn  Zn75  1  0.32497767  0.80986649  0.80979705  1
  Zn  Zn76  1  0.81344348  0.31266209  0.31277472  1
  Zn  Zn77  1  0.79666550  0.31411868  0.82506336  1
  Zn  Zn78  1  0.81735835  0.81263000  0.30633062  1
  Zn  Zn79  1  0.79831150  0.82301456  0.81310804  1
  Zn  Zn80  1  0.16041649  0.47874993  0.41619249  1
  Zn  Zn81  1  0.18531130  0.44216827  0.95029663  1
  Zn  Zn82  1  0.18304519  0.94682402  0.44907577  1
  Zn  Zn83  1  0.20740816  0.93037408  0.93405990  1
  Zn  Zn84  1  0.71774479  0.46051685  0.45126836  1
  Zn  Zn85  1  0.66262938  0.41911473  0.94003723  1
  Zn  Zn86  1  0.69786909  0.93011459  0.42863683  1
  Zn  Zn87  1  0.67445263  0.95140742  0.93520069  1
  Zn  Zn88  1  0.31199137  0.05936751  0.07226639  1
  Zn  Zn89  1  0.32137091  0.07478841  0.56257101  1
  Zn  Zn90  1  0.32141026  0.56422346  0.06127316  1
  Zn  Zn91  1  0.32035084  0.56241274  0.55918001  1
  Zn  Zn92  1  0.81367101  0.05601739  0.05381993  1
  Zn  Zn93  1  0.81663459  0.06149414  0.56960373  1
  Zn  Zn94  1  0.80368746  0.55506606  0.05593456  1
  Zn  Zn95  1  0.80967836  0.57438009  0.56297945  1
  Zn  Zn96  1  0.41884984  0.45043678  0.15287385  1
  Zn  Zn97  1  0.43367215  0.43565340  0.69234963  1
  Zn  Zn98  1  0.43948639  0.81244846  0.18080508  1
  Zn  Zn99  1  0.41448401  0.92973752  0.68200794  1
  Zn  Zn100  1  0.93190455  0.43266089  0.17161571  1
  Zn  Zn101  1  0.93103537  0.44761513  0.70106583  1
  Zn  Zn102  1  0.93433057  0.94390499  0.17537170  1
  Zn  Zn103  1  1.00321857  0.95600726  0.71098894  1
  Zn  Zn104  1  0.06412303  0.07422500  0.30986259  1
  Zn  Zn105  1  0.08582404  0.09373283  0.79374309  1
  Zn  Zn106  1  0.05218010  0.58115312  0.32106464  1
  Zn  Zn107  1  0.05713571  0.56745172  0.80872343  1
  Zn  Zn108  1  0.51929637  -0.00407927  0.23136558  1
  Zn  Zn109  1  0.55418386  0.08322996  0.83348132  1
  Zn  Zn110  1  0.56726471  0.56783468  0.30367745  1
  Zn  Zn111  1  0.54096212  0.55049138  0.80814312  1
  Zn  Zn112  1  0.38592473  0.00155394  0.38509936  1
  Zn  Zn113  1  0.43675241  0.19363616  0.93664962  1
  Zn  Zn114  1  0.44120681  0.68814392  0.42866634  1
  Zn  Zn115  1  0.56617001  0.67551113  0.94386721  1
  Zn  Zn116  1  0.91717275  0.15221688  0.45749079  1
  Zn  Zn117  1  0.93543179  0.19264190  0.93554740  1
  Zn  Zn118  1  0.96349765  0.70143005  0.46601678  1
  Zn  Zn119  1  0.91857751  0.68897303  0.93516502  1
  Zn  Zn120  1  0.06164021  0.31945419  0.06277941  1
  Zn  Zn121  1  0.03846458  0.35328320  0.59220323  1
  Zn  Zn122  1  0.06384368  0.80218448  0.05714564  1
  Zn  Zn123  1  0.06415603  0.82173658  0.57003668  1
  Zn  Zn124  1  0.57307872  0.30287359  0.07321559  1
  Zn  Zn125  1  0.56842899  0.31560130  0.55121605  1
  Zn  Zn126  1  0.56857597  0.81697682  0.05323086  1
  Zn  Zn127  1  0.57541860  0.82192289  0.56688332  1
  O  O128  1  0.11735261  0.12344807  0.11536105  1
  O  O129  1  0.12354598  0.12932074  0.63182355  1
  O  O130  1  0.10548217  0.61447122  0.13195263  1
  O  O131  1  0.12391711  0.57904732  0.66408287  1
  O  O132  1  0.63685066  0.11114465  0.10599884  1
  O  O133  1  0.62922028  0.09399240  0.62347746  1
  O  O134  1  0.61643686  0.63050103  0.13480145  1
  O  O135  1  0.61793580  0.61524229  0.61192371  1
  O  O136  1  0.37726373  0.39061908  0.36135621  1
  O  O137  1  0.43229622  0.30537530  0.89476985  1
  O  O138  1  0.35707340  0.88445908  0.39534662  1
  O  O139  1  0.35503328  0.89448652  0.88235762  1
  O  O140  1  0.89461525  0.37995478  0.36682199  1
  O  O141  1  0.86489786  0.37767728  0.89154040  1
  O  O142  1  0.89114081  0.88724074  0.37406319  1
  O  O143  1  0.86810410  0.86787970  0.89130798  1
  O  O144  1  0.23766146  0.00103157  0.36335770  1
  O  O145  1  0.25601459  0.01990988  0.88433413  1
  O  O146  1  0.26887981  0.50485053  0.36426924  1
  O  O147  1  0.26180896  0.49310335  0.87250336  1
  O  O148  1  0.75117290  -0.00465410  0.35336372  1
  O  O149  1  0.75637719  0.01395597  0.88847834  1
  O  O150  1  0.75729750  0.51775579  0.36563632  1
  O  O151  1  0.72751987  0.48710101  0.86243933  1
  O  O152  1  0.23471969  0.51475017  0.12611574  1
  O  O153  1  0.25443741  0.48747067  0.61116811  1
  O  O154  1  0.23289284  0.99010167  0.13210821  1
  O  O155  1  0.25015546  1.02137556  0.63639577  1
  O  O156  1  0.73668319  0.51002763  0.13900014  1
  O  O157  1  0.73747198  0.49306099  0.62333320  1
  O  O158  1  0.76422322  0.98230916  0.13720135  1
  O  O159  1  0.79428557  0.98098175  0.64925104  1
  O  O160  1  0.00238138  0.37106187  0.24470333  1
  O  O161  1  -0.00153228  0.36730005  0.75322899  1
  O  O162  1  -0.00402308  0.88735000  0.27185104  1
  O  O163  1  -0.00616460  0.86588170  0.77270450  1
  O  O164  1  0.53675093  0.33775797  0.33294082  1
  O  O165  1  0.48634906  0.35007172  0.74631164  1
  O  O166  1  0.52779836  0.86966698  0.23070866  1
  O  O167  1  0.50121765  0.86733918  0.73957036  1
  O  O168  1  0.47605411  0.10391604  0.25394514  1
  O  O169  1  0.55763361  0.10355750  0.60851316  1
  O  O170  1  0.48772234  0.62682058  0.24083112  1
  O  O171  1  0.50486626  0.64604094  0.73249225  1
  O  O172  1  0.99563815  0.14060216  0.24091612  1
  O  O173  1  1.00953832  0.15965884  0.73615934  1
  O  O174  1  0.97840029  0.60245163  0.23127109  1
  O  O175  1  0.96954327  0.61347436  0.74970032  1
  O  O176  1  0.35536145  0.23701181  0.02487998  1
  O  O177  1  0.44753006  0.20165930  0.50907554  1
  O  O178  1  0.28991379  0.71238446  -0.00981903  1
  O  O179  1  0.37770195  0.76109686  0.49327456  1
  O  O180  1  0.86946954  0.26097871  -0.00001847  1
  O  O181  1  0.86582113  0.25135925  0.51737628  1
  O  O182  1  0.88308836  0.76692527  0.01355251  1
  O  O183  1  0.89529203  0.78578558  0.49074230  1
  O  O184  1  0.17860896  0.29291198  0.50062660  1
  O  O185  1  0.13167851  0.24962431  0.99617951  1
  O  O186  1  0.07053201  0.74542975  0.48895177  1
  O  O187  1  0.11496690  0.73252736  0.98465528  1
  O  O188  1  0.63898279  0.25111932  0.49538462  1
  O  O189  1  0.63664145  0.23553538  1.00699292  1
  O  O190  1  0.62880914  0.73774977  0.50395567  1
  O  O191  1  0.63162877  0.74663204  1.00052148  1
  O  O192  1  0.49026111  0.24033173  0.12473217  1
  O  O193  1  0.54096001  0.23728412  0.64018053  1
  O  O194  1  0.50079634  0.73857377  0.11769220  1
  O  O195  1  0.50095908  0.74321275  0.61078376  1
  O  O196  1  1.00687708  0.24225299  0.13307209  1
  O  O197  1  0.98178116  0.26355776  0.63883565  1
  O  O198  1  0.99513742  0.73019291  0.12291082  1
  O  O199  1  0.99324062  0.77446240  0.64515141  1
  O  O200  1  0.00371486  0.26564775  0.35376338  1
  O  O201  1  0.01364068  0.25072301  0.86829733  1
  O  O202  1  -0.00675998  0.77914824  0.36886662  1
  O  O203  1  0.00428535  0.73235530  0.86779751  1
  O  O204  1  0.55275274  0.19473192  0.36080735  1
  O  O205  1  0.51794332  0.19513117  0.82816921  1
  O  O206  1  0.48648878  0.77458484  0.36405042  1
  O  O207  1  0.50971530  0.74958497  0.86774433  1
  O  O208  1  0.26118193  0.12198202  0.48281330  1
  O  O209  1  0.23472270  0.13708236  1.00490184  1
  O  O210  1  0.27230542  0.63054677  0.48203279  1
  O  O211  1  0.26330717  0.64328296  0.98864461  1
  O  O212  1  0.74967145  0.14189549  0.51735852  1
  O  O213  1  0.75485029  0.13406587  0.99691871  1
  O  O214  1  0.73918107  0.61831749  0.48166335  1
  O  O215  1  0.74662645  0.61755458  0.97851145  1
  O  O216  1  0.25936909  0.36117438  -0.00748275  1
  O  O217  1  0.23044246  0.34263434  0.49003475  1
  O  O218  1  0.22872974  0.87132302  0.02577394  1
  O  O219  1  0.24171706  0.86266873  0.50527729  1
  O  O220  1  0.74718156  0.35597021  -0.00863821  1
  O  O221  1  0.74718706  0.36929374  0.51497940  1
  O  O222  1  0.74212920  0.88530237  0.01214094  1
  O  O223  1  0.73116014  0.89541268  0.52614975  1
  O  O224  1  0.13498460  0.50034219  0.23905120  1
  O  O225  1  0.12610563  0.51595135  0.72405849  1
  O  O226  1  0.13091633  1.01320063  0.23479321  1
  O  O227  1  0.10875718  1.00398220  0.72990825  1
  O  O228  1  0.63653100  0.50396788  0.24330631  1
  O  O229  1  0.62565790  0.50407998  0.73158822  1
  O  O230  1  0.63866888  1.00530669  0.24221668  1
  O  O231  1  0.59384656  1.00374359  0.75659723  1
  O  O232  1  0.34816539  0.01078284  0.24182820  1
  O  O233  1  0.38386183  0.00035290  0.76714696  1
  O  O234  1  0.36879515  0.50639822  0.24953817  1
  O  O235  1  0.42728959  0.52402899  0.75979223  1
  O  O236  1  0.87766049  0.01639400  0.24607577  1
  O  O237  1  0.93498290  0.00232015  0.82571722  1
  O  O238  1  0.86202361  0.49485887  0.23757816  1
  O  O239  1  0.84930396  0.50817039  0.75174376  1
  O  O240  1  0.11026646  0.39249017  0.35072401  1
  O  O241  1  0.12987618  0.36710816  0.88302050  1
  O  O242  1  0.10105805  0.87647131  0.38287524  1
  O  O243  1  0.16087239  0.83880132  0.86770331  1
  O  O244  1  0.60442031  0.36344286  0.33516666  1
  O  O245  1  0.59658122  0.34939681  0.87200800  1
  O  O246  1  0.62640866  0.87291689  0.35570940  1
  O  O247  1  0.61846447  0.88549497  0.85866635  1
  O  O248  1  0.35432121  0.13792268  0.14499149  1
  O  O249  1  0.41283871  0.18104201  0.57057757  1
  O  O250  1  0.38102837  0.62693495  0.13833154  1
  O  O251  1  0.39996029  0.61829167  0.61905622  1
  O  O252  1  0.89166236  0.12399547  0.12737550  1
  O  O253  1  0.88082441  0.14742060  0.63542140  1
  O  O254  1  0.87537451  0.63646224  0.11397107  1
  O  O255  1  0.84617998  0.63528734  0.64874230  1
  O  O256  1  0.23371890  0.25805127  0.11972785  1
  O  O257  1  0.28244509  0.25633374  0.63074593  1
  O  O258  1  0.21220650  0.76949120  0.14876766  1
  O  O259  1  0.21652440  0.74761776  0.62777741  1
  O  O260  1  0.75534757  0.24708185  0.11062204  1
  O  O261  1  0.75584921  0.26359546  0.62698367  1
  O  O262  1  0.76502743  0.76098686  0.12487390  1
  O  O263  1  0.74356340  0.77063252  0.63175418  1
  O  O264  1  0.25250945  0.23811337  0.36642836  1
  O  O265  1  0.24261350  0.24376352  0.89142316  1
  O  O266  1  0.24257187  0.73291846  0.36138408  1
  O  O267  1  0.21718206  0.77633704  0.86423501  1
  O  O268  1  0.76022988  0.25052184  0.39231645  1
  O  O269  1  0.74759537  0.23453418  0.88966803  1
  O  O270  1  0.76372101  0.73779570  0.37242995  1
  O  O271  1  0.73239035  0.74106933  0.86699425  1
  O  O272  1  0.01189099  0.13876844  0.01014659  1
  O  O273  1  0.00793695  0.15943234  0.52580855  1
  O  O274  1  -0.01417083  0.61100852  0.00481458  1
  O  O275  1  -0.00431339  0.60872066  0.52342672  1
  O  O276  1  0.50988076  0.13342675  0.00039900  1
  O  O277  1  0.55007865  0.06215443  0.47257111  1
  O  O278  1  0.50314364  0.60988196  0.02099619  1
  O  O279  1  0.51091672  0.62081177  0.50245866  1
  O  O280  1  0.50515585  0.39057954  0.49330053  1
  O  O281  1  0.50865960  0.38230632  1.02066914  1
  O  O282  1  0.52428137  0.87951388  0.48170135  1
  O  O283  1  0.48872682  0.88797948  1.01928630  1
  O  O284  1  1.00601659  0.36509642  0.48094939  1
  O  O285  1  0.98851826  0.38592134  1.00242812  1
  O  O286  1  0.99555750  0.89064601  0.48275161  1
  O  O287  1  1.00142641  0.87482143  0.99091798  1
  O  O288  1  0.49443434  0.50567364  0.37646764  1
  O  O289  1  0.50707961  0.49600696  0.90635151  1
  O  O290  1  0.48622851  0.96215158  0.34405345  1
  O  O291  1  0.48017694  1.00879204  0.89094291  1
  O  O292  1  1.00636473  0.49747840  0.39717236  1
  O  O293  1  1.00821570  0.50189132  0.88818822  1
  O  O294  1  1.00600606  0.98802122  0.37066057  1
  O  O295  1  0.98941217  1.02366490  0.87094247  1
  O  O296  1  0.01090268  0.02116363  0.13184750  1
  O  O297  1  -0.00938895  0.03245502  0.62727270  1
  O  O298  1  0.00353070  0.50811531  0.11209497  1
  O  O299  1  -0.00042971  0.46668534  0.61041038  1
  O  O300  1  0.48646585  0.00891715  0.12016741  1
  O  O301  1  0.41484865  0.00707179  0.57960126  1
  O  O302  1  0.51941165  0.50738649  0.13488900  1
  O  O303  1  0.50961340  0.49998199  0.60853845  1
  O  O304  1  0.23712536  0.38707340  0.25193352  1
  O  O305  1  0.29796035  0.43762429  0.83270220  1
  O  O306  1  0.24289721  0.89054160  0.24655799  1
  O  O307  1  0.25695096  0.86394753  0.73155850  1
  O  O308  1  0.74781122  0.39332567  0.26810731  1
  O  O309  1  0.74384606  0.38712769  0.73877606  1
  O  O310  1  0.74341539  0.88214001  0.24631834  1
  O  O311  1  0.72377891  0.88323728  0.74604097  1
  O  O312  1  0.24597407  0.11722741  0.26195279  1
  O  O313  1  0.24116703  0.13571593  0.76906607  1
  O  O314  1  0.26030871  0.61759234  0.25264047  1
  O  O315  1  0.28267196  0.62243862  0.74494131  1
  O  O316  1  0.76521954  0.11351215  0.24008607  1
  O  O317  1  0.74007944  0.12635856  0.76927462  1
  O  O318  1  0.76512110  0.62014766  0.26721857  1
  O  O319  1  0.74165502  0.61164086  0.76091034  1
  O  O320  1  0.35825678  0.11131890  0.36164399  1
  O  O321  1  0.35941033  0.12810999  0.87795806  1
  O  O322  1  0.37224432  0.61886389  0.35747841  1
  O  O323  1  0.38594038  0.62911679  0.86813721  1
  O  O324  1  0.88319412  0.13709297  0.35186577  1
  O  O325  1  0.86555081  0.12936618  0.87587355  1
  O  O326  1  0.88444025  0.64009870  0.39312612  1
  O  O327  1  0.84674727  0.63021579  0.86132108  1
  O  O328  1  0.11509741  0.39622653  0.13689744  1
  O  O329  1  0.14217837  0.37466226  0.63672811  1
  O  O330  1  0.10512885  0.89331256  0.12514124  1
  O  O331  1  0.13869029  0.89399796  0.62291234  1
  O  O332  1  0.62811615  0.37842341  0.14337710  1
  O  O333  1  0.63050533  0.39112787  0.61835632  1
  O  O334  1  0.64555201  0.86499771  0.13418949  1
  O  O335  1  0.62744077  0.89234401  0.63953354  1
  O  O336  1  0.11760966  0.27004844  0.24167508  1
  O  O337  1  0.13078619  0.25981789  0.77042875  1
  O  O338  1  0.08582424  0.68813014  0.28836835  1
  O  O339  1  0.09819032  0.73671230  0.75684225  1
  O  O340  1  0.61973819  0.22849945  0.25175910  1
  O  O341  1  0.59285026  0.24349476  0.69794001  1
  O  O342  1  0.63734623  0.75004968  0.25018603  1
  O  O343  1  0.60844637  0.75885119  0.74103261  1
  O  O344  1  0.37926372  0.23408167  0.24869576  1
  O  O345  1  0.31551465  0.31909499  0.67056835  1
  O  O346  1  0.37166651  0.74265348  0.25109739  1
  O  O347  1  0.39597960  0.74084805  0.75393824  1
  O  O348  1  0.88519706  0.24788411  0.24345460  1
  O  O349  1  0.87922280  0.26195817  0.75345173  1
  O  O350  1  0.88129793  0.75986708  0.22772986  1
  O  O351  1  0.88185235  0.74443350  0.75986605  1
  O  O352  1  0.39234770  0.50395304  0.47993093  1
  O  O353  1  0.39629506  0.48620773  1.03635116  1
  O  O354  1  0.39175481  0.96657221  0.50654294  1
  O  O355  1  0.38139069  1.01356787  0.99622395  1
  O  O356  1  0.88113815  0.50190035  0.50944365  1
  O  O357  1  0.88223383  0.49452286  0.99351342  1
  O  O358  1  0.88484964  1.04557980  0.48537261  1
  O  O359  1  0.88316326  0.97979504  1.00913442  1
  O  O360  1  0.12704771  0.01638295  0.00917548  1
  O  O361  1  0.12965499  0.01046697  0.52601742  1
  O  O362  1  0.11513402  0.50134070  0.01316492  1
  O  O363  1  0.11794702  0.48965904  0.52008183  1
  O  O364  1  0.59626207  0.00610457  0.00065762  1
  O  O365  1  0.61956234  0.05005375  0.45454182  1
  O  O366  1  0.61960832  0.49024550  0.02529312  1
  O  O367  1  0.61659331  0.50836465  0.49926639  1
  O  O368  1  0.37441782  0.34728838  0.14851798  1
  O  O369  1  0.36453669  0.36140822  0.62441696  1
  O  O370  1  0.35007264  0.85982522  0.13106621  1
  O  O371  1  0.34771205  0.86483990  0.61176962  1
  O  O372  1  0.86056293  0.38569415  0.09732029  1
  O  O373  1  0.85861026  0.37264144  0.63203867  1
  O  O374  1  0.87222075  0.86736017  0.11451746  1
  O  O375  1  0.84175542  0.91418854  0.64586757  1
  O  O376  1  0.13527535  0.12749012  0.37746285  1
  O  O377  1  0.13228466  0.13522009  0.89073806  1
  O  O378  1  0.15149743  0.59428277  0.38469533  1
  O  O379  1  0.13749342  0.62935204  0.86343221  1
  O  O380  1  0.61336402  0.18240116  0.31923932  1
  O  O381  1  0.64337385  0.11507153  0.90201723  1
  O  O382  1  0.61614154  0.63260834  0.38476148  1
  O  O383  1  0.62553832  0.61429450  0.86699412  1
