# generated using pymatgen
data_VZnO4
_symmetry_space_group_name_H-M   'P 1'
_cell_length_a   16.91065914
_cell_length_b   16.89433270
_cell_length_c   16.91381461
_cell_angle_alpha   90.24385836
_cell_angle_beta   89.96001585
_cell_angle_gamma   89.61019846
_symmetry_Int_Tables_number   1
_chemical_formula_structural   VZnO4
_chemical_formula_sum   'V64 Zn64 O256'
_cell_volume   4832.02358258
_cell_formula_units_Z   64
loop_
 _symmetry_equiv_pos_site_id
 _symmetry_equiv_pos_as_xyz
  1  'x, y, z'
loop_
 _atom_site_type_symbol
 _atom_site_label
 _atom_site_symmetry_multiplicity
 _atom_site_fract_x
 _atom_site_fract_y
 _atom_site_fract_z
 _atom_site_occupancy
  V  V0  1  0.23925927  0.36281401  0.12784138  1
  V  V1  1  0.75128840  0.50793581  0.24853887  1
  V  V2  1  -0.00338045  0.26183173  0.77436675  1
  V  V3  1  0.49336046  0.13800674  0.62887986  1
  V  V4  1  -0.01148034  0.87902225  0.88678251  1
  V  V5  1  0.11764928  0.50087500  0.13153015  1
  V  V6  1  0.75958635  0.88911482  0.12563701  1
  V  V7  1  0.62764867  0.88374435  0.26341137  1
  V  V8  1  0.38726517  0.13826820  0.27219247  1
  V  V9  1  0.50592748  0.62994628  0.11682597  1
  V  V10  1  0.35963216  0.74406964  0.60848603  1
  V  V11  1  0.49269959  0.11631053  0.12521150  1
  V  V12  1  0.00383139  0.61828949  0.62813259  1
  V  V13  1  0.62681712  0.00314120  0.64304030  1
  V  V14  1  0.88668176  0.24810801  0.63125121  1
  V  V15  1  0.25157703  -0.00847731  0.72905853  1
  V  V16  1  0.62324598  0.73657603  0.37900766  1
  V  V17  1  0.05646604  0.85418647  0.26722331  1
  V  V18  1  0.74573443  0.74152743  0.49235186  1
  V  V19  1  0.74335450  0.50379472  0.74236659  1
  V  V20  1  0.10913417  0.11646053  0.51425615  1
  V  V21  1  0.74757142  0.37032039  0.62501755  1
  V  V22  1  0.50707181  0.74682408  0.73800954  1
  V  V23  1  -0.00808225  0.49279586  -0.00157485  1
  V  V24  1  0.24326380  0.25389167  0.52276244  1
  V  V25  1  0.61758408  0.76259142  0.87651561  1
  V  V26  1  0.87478085  0.74756177  0.62202548  1
  V  V27  1  0.36455056  0.75511150  0.11417074  1
  V  V28  1  0.51248992  -0.00637859  0.49375597  1
  V  V29  1  0.12946473  0.48100050  0.64495236  1
  V  V30  1  0.37049704  0.61624997  0.76322600  1
  V  V31  1  0.87046939  0.37238092  0.49733860  1
  V  V32  1  0.13687278  0.74891216  0.88030676  1
  V  V33  1  0.25070124  0.50832482  0.25977351  1
  V  V34  1  0.26357804  0.00957428  0.21289952  1
  V  V35  1  0.13740949  0.62117713  0.49549874  1
  V  V36  1  0.75452537  0.76144094  0.00837078  1
  V  V37  1  0.11718334  0.35944818  0.25711777  1
  V  V38  1  0.37050283  0.40004045  0.01016523  1
  V  V39  1  0.23709707  0.13493528  0.37715310  1
  V  V40  1  0.64173412  0.13735647  0.48999557  1
  V  V41  1  0.87445363  0.48950181  0.87710710  1
  V  V42  1  0.38885823  0.36204683  0.48955308  1
  V  V43  1  0.00825185  0.75268746  0.75311933  1
  V  V44  1  0.48263295  0.75405105  0.26713031  1
  V  V45  1  0.62177856  0.51120579  0.59473139  1
  V  V46  1  0.14671843  0.24198329  0.89036587  1
  V  V47  1  0.51486153  0.27027327  0.26232629  1
  V  V48  1  0.87190078  0.26338689  0.13366651  1
  V  V49  1  -0.00048840  0.50243545  0.49121327  1
  V  V50  1  0.87145941  0.63868883  0.27604228  1
  V  V51  1  0.37569408  -0.00444669  0.38729534  1
  V  V52  1  0.60883509  -0.00629437  0.11469391  1
  V  V53  1  0.87594536  0.62595640  0.75467000  1
  V  V54  1  0.00122127  0.35817609  0.37636752  1
  V  V55  1  -0.01613024  0.63858138  0.12866008  1
  V  V56  1  0.88822846  0.88415903  0.49935503  1
  V  V57  1  0.13022511  0.63163164  0.00259423  1
  V  V58  1  0.74399765  0.87776184  0.63632744  1
  V  V59  1  0.74075738  0.62588586  0.88494152  1
  V  V60  1  0.55805329  0.35666723  0.83229754  1
  V  V61  1  0.86622561  0.11343188  0.75168060  1
  V  V62  1  0.37107898  0.24490472  0.12582842  1
  V  V63  1  0.73844726  0.10692154  0.87991590  1
  Zn  Zn64  1  0.18932367  0.17165671  0.19079401  1
  Zn  Zn65  1  0.16778540  0.18571668  0.69361632  1
  Zn  Zn66  1  0.17859672  0.69487539  0.19108598  1
  Zn  Zn67  1  0.19127782  0.67843573  0.68336136  1
  Zn  Zn68  1  0.65985337  0.21657190  0.14153142  1
  Zn  Zn69  1  0.67959463  0.19015647  0.69446213  1
  Zn  Zn70  1  0.69833299  0.69497836  0.19795214  1
  Zn  Zn71  1  0.68222312  0.68597025  0.68372729  1
  Zn  Zn72  1  0.30776198  0.32182989  0.31951096  1
  Zn  Zn73  1  0.35302677  0.26208285  0.86595203  1
  Zn  Zn74  1  0.28592279  0.83282730  0.31538129  1
  Zn  Zn75  1  0.31735589  0.79851824  0.79673755  1
  Zn  Zn76  1  0.79047006  0.32086126  0.32299841  1
  Zn  Zn77  1  0.78811468  0.31140379  0.81141930  1
  Zn  Zn78  1  0.84475707  0.84028733  0.28501048  1
  Zn  Zn79  1  0.81204115  0.81204204  0.81897084  1
  Zn  Zn80  1  0.18685420  0.43753003  0.44309461  1
  Zn  Zn81  1  0.16830147  0.41922616  0.95016044  1
  Zn  Zn82  1  0.17185885  0.94615955  0.41158646  1
  Zn  Zn83  1  0.13925938  0.96509023  0.89535139  1
  Zn  Zn84  1  0.67138724  0.45825153  0.39730147  1
  Zn  Zn85  1  0.67417681  0.25216016  0.93883123  1
  Zn  Zn86  1  0.70314540  0.93575919  0.44774105  1
  Zn  Zn87  1  0.67446809  0.93751940  0.93934790  1
  Zn  Zn88  1  0.41572390  -0.10981012  0.02251332  1
  Zn  Zn89  1  0.31871946  0.07446253  0.55406060  1
  Zn  Zn90  1  0.31028489  0.57175843  0.08755762  1
  Zn  Zn91  1  0.31016089  0.56012644  0.58904939  1
  Zn  Zn92  1  0.77703668  0.09001019  0.09039717  1
  Zn  Zn93  1  0.81524613  0.06058951  0.56679054  1
  Zn  Zn94  1  0.80460048  0.56042670  0.06415451  1
  Zn  Zn95  1  0.81664385  0.56136445  0.55578405  1
  Zn  Zn96  1  0.43751011  0.43915394  0.17928104  1
  Zn  Zn97  1  0.44914313  0.43706570  0.68784579  1
  Zn  Zn98  1  0.43543434  0.93272432  0.20519499  1
  Zn  Zn99  1  0.44450227  0.92638207  0.68274257  1
  Zn  Zn100  1  0.93589900  0.45344083  0.20203970  1
  Zn  Zn101  1  0.93867358  0.43478940  0.68952362  1
  Zn  Zn102  1  0.96028775  0.95583807  0.16743883  1
  Zn  Zn103  1  0.93181992  0.92541151  0.69702519  1
  Zn  Zn104  1  0.07831871  0.04441404  0.27011992  1
  Zn  Zn105  1  0.01347441  0.09311906  0.85928648  1
  Zn  Zn106  1  0.05879523  0.56974508  0.31290489  1
  Zn  Zn107  1  0.06414245  0.56218050  0.81979492  1
  Zn  Zn108  1  0.57270449  0.06576806  0.31567838  1
  Zn  Zn109  1  0.54306615  0.17461225  0.81073973  1
  Zn  Zn110  1  0.56975765  0.56861078  0.24985668  1
  Zn  Zn111  1  0.55582082  0.55840539  0.81370898  1
  Zn  Zn112  1  0.45268391  0.19444737  0.44926318  1
  Zn  Zn113  1  0.47629986  0.21132536  0.95954113  1
  Zn  Zn114  1  0.43322126  0.81602675  0.44677242  1
  Zn  Zn115  1  0.43515057  0.68652913  0.94000926  1
  Zn  Zn116  1  0.93618564  0.18870273  0.44401008  1
  Zn  Zn117  1  0.88692516  0.20161365  0.92816868  1
  Zn  Zn118  1  0.93651451  0.75348029  0.40401662  1
  Zn  Zn119  1  0.93688531  0.68574515  0.94271053  1
  Zn  Zn120  1  0.05998008  0.30662742  0.05890192  1
  Zn  Zn121  1  0.06462966  0.30544757  0.56118445  1
  Zn  Zn122  1  0.05778696  0.82290368  0.07013287  1
  Zn  Zn123  1  0.12688326  0.77483874  0.41825601  1
  Zn  Zn124  1  0.56478508  0.35155599  0.03173551  1
  Zn  Zn125  1  0.56920131  0.31474471  0.56304067  1
  Zn  Zn126  1  0.56742290  0.80176260  0.06997852  1
  Zn  Zn127  1  0.56639680  0.81346858  0.56759756  1
  O  O128  1  0.20570451  0.12494813  0.03646000  1
  O  O129  1  0.11242291  0.12034802  0.61488797  1
  O  O130  1  0.10952070  0.61893717  0.11957349  1
  O  O131  1  0.11490983  0.60993156  0.62353238  1
  O  O132  1  0.60028849  0.10701721  0.13555746  1
  O  O133  1  0.62773992  0.11148511  0.61921516  1
  O  O134  1  0.60639615  0.64175189  0.14847370  1
  O  O135  1  0.63452559  0.61002479  0.61432599  1
  O  O136  1  0.36534916  0.38477462  0.39326471  1
  O  O137  1  0.37279227  0.36690671  0.91484707  1
  O  O138  1  0.37498659  0.89376670  0.38004258  1
  O  O139  1  0.36477787  0.86266614  0.88374401  1
  O  O140  1  0.88486647  0.36310691  0.39047476  1
  O  O141  1  0.86433932  0.39349083  0.86814100  1
  O  O142  1  0.86720657  0.85505876  0.39843283  1
  O  O143  1  0.89009926  0.88172435  0.86260566  1
  O  O144  1  0.27148524  0.01964777  0.38881577  1
  O  O145  1  0.22817948  0.00245042  0.83043856  1
  O  O146  1  0.23737594  0.49436334  0.35934129  1
  O  O147  1  0.24346734  0.48924599  0.86377274  1
  O  O148  1  0.75974713  0.01954929  0.38200790  1
  O  O149  1  0.72529531  0.00834024  0.86705507  1
  O  O150  1  0.77502421  0.49821034  0.36655506  1
  O  O151  1  0.76290229  0.51570211  0.85906921  1
  O  O152  1  0.23041365  0.48773042  0.13511451  1
  O  O153  1  0.22826665  0.49242407  0.63290901  1
  O  O154  1  0.30225966  1.00300516  0.12515021  1
  O  O155  1  0.27555456  0.99124441  0.62322668  1
  O  O156  1  0.74283693  0.52109677  0.14762652  1
  O  O157  1  0.75094119  0.49833397  0.62952312  1
  O  O158  1  0.72658679  0.99224908  0.12109257  1
  O  O159  1  0.73966561  0.98622667  0.62162971  1
  O  O160  1  0.00533869  0.38248459  0.26712423  1
  O  O161  1  -0.01023501  0.36130836  0.75707539  1
  O  O162  1  -0.04764011  0.87399344  0.25708264  1
  O  O163  1  0.00431573  0.85537838  0.75154092  1
  O  O164  1  0.49400332  0.36841532  0.24850337  1
  O  O165  1  0.48449930  0.35631974  0.76100339  1
  O  O166  1  0.51907567  0.86458261  0.25227506  1
  O  O167  1  0.49386611  0.84818082  0.75326670  1
  O  O168  1  0.49203847  0.12773931  0.25347544  1
  O  O169  1  0.50516408  0.10992458  0.72594779  1
  O  O170  1  0.49109863  0.65256408  0.26996261  1
  O  O171  1  0.49300267  0.63561255  0.76255302  1
  O  O172  1  0.97618882  0.05334290  0.22624039  1
  O  O173  1  0.97145225  0.14197416  0.76060222  1
  O  O174  1  0.98777413  0.62316483  0.23732802  1
  O  O175  1  0.99151802  0.62828161  0.74911312  1
  O  O176  1  0.37674610  0.24696649  0.02609410  1
  O  O177  1  0.35968261  0.25636988  0.49995563  1
  O  O178  1  0.37435815  0.75743750  0.01231097  1
  O  O179  1  0.37843759  0.74015726  0.50635286  1
  O  O180  1  0.87248416  0.26386944  0.02777666  1
  O  O181  1  0.88069666  0.26262833  0.51608776  1
  O  O182  1  0.85317905  0.75083154  -0.01058004  1
  O  O183  1  0.86897003  0.74972011  0.51483505  1
  O  O184  1  0.13444801  0.23286483  0.50332865  1
  O  O185  1  0.13012422  0.24933020  0.99512764  1
  O  O186  1  0.12530561  0.71953895  0.51764339  1
  O  O187  1  0.12114407  0.74057238  0.99630974  1
  O  O188  1  0.63117314  0.23634975  0.50527494  1
  O  O189  1  0.62792742  0.25893491  1.04256660  1
  O  O190  1  0.63584956  0.75751059  0.49226737  1
  O  O191  1  0.64243564  0.74990605  0.98600494  1
  O  O192  1  0.48153146  0.23740434  0.14607942  1
  O  O193  1  0.51293344  0.23764269  0.62718836  1
  O  O194  1  0.49022987  0.74504885  0.14579113  1
  O  O195  1  0.51836365  0.73894260  0.63697106  1
  O  O196  1  0.97832585  0.25695910  0.13114814  1
  O  O197  1  0.98838863  0.25116761  0.63544002  1
  O  O198  1  0.99714382  0.73611617  0.11736443  1
  O  O199  1  0.99173650  0.73452874  0.64227079  1
  O  O200  1  0.00138397  0.25951133  0.37634416  1
  O  O201  1  -0.02332336  0.25340249  0.87394691  1
  O  O202  1  0.03187525  0.79062312  0.35892847  1
  O  O203  1  -0.00283369  0.75400645  0.86489865  1
  O  O204  1  0.50412493  0.24878444  0.36159910  1
  O  O205  1  0.53175315  0.30706164  0.92177383  1
  O  O206  1  0.51468298  0.76698078  0.37501007  1
  O  O207  1  0.51661683  0.74736765  0.87991242  1
  O  O208  1  0.24437631  0.13698378  0.49152885  1
  O  O209  1  0.21417380  0.06069057  0.99942856  1
  O  O210  1  0.23499166  0.59898660  0.50656585  1
  O  O211  1  0.22728080  0.61866325  1.01646820  1
  O  O212  1  0.74091221  0.11921058  0.50552785  1
  O  O213  1  0.76085169  0.11025218  0.98235321  1
  O  O214  1  0.75770409  0.64256860  0.50402642  1
  O  O215  1  0.75151999  0.63145065  0.98765207  1
  O  O216  1  0.25139817  0.37687367  0.02309230  1
  O  O217  1  0.24088156  0.35459186  0.50061482  1
  O  O218  1  0.29815392  0.88902160  -0.07827430  1
  O  O219  1  0.21499022  0.84077922  0.40362612  1
  O  O220  1  0.72311330  0.38412923  -0.02890640  1
  O  O221  1  0.76954706  0.38277718  0.51298032  1
  O  O222  1  0.74494760  0.87052455  0.01031138  1
  O  O223  1  0.76084649  0.86236994  0.51591624  1
  O  O224  1  0.11872962  0.49177362  0.24211721  1
  O  O225  1  0.11359287  0.49729548  0.74452147  1
  O  O226  1  0.16572800  1.05895084  0.19450406  1
  O  O227  1  0.15706673  0.97380409  0.69281467  1
  O  O228  1  0.64793320  0.50005226  0.28507175  1
  O  O229  1  0.64485134  0.50865366  0.74016164  1
  O  O230  1  0.61918744  0.98711482  0.24477989  1
  O  O231  1  0.62489303  1.00210458  0.73768613  1
  O  O232  1  0.37610790  0.01418631  0.26912128  1
  O  O233  1  0.35867561  -0.00988162  0.73838222  1
  O  O234  1  0.34815136  0.49288059  0.23906645  1
  O  O235  1  0.39104308  0.51662332  0.74514329  1
  O  O236  1  0.81799818  -0.00113053  0.32951871  1
  O  O237  1  0.87552112  0.01739627  0.72216420  1
  O  O238  1  0.86894655  0.52721749  0.25272357  1
  O  O239  1  0.87560043  0.51046423  0.75877360  1
  O  O240  1  0.11371013  0.37236974  0.36571003  1
  O  O241  1  0.12575751  0.34732645  0.87777292  1
  O  O242  1  0.09561516  0.93851024  0.31830298  1
  O  O243  1  0.11302919  0.85131390  0.88162272  1
  O  O244  1  0.69550928  0.34855167  0.37609880  1
  O  O245  1  0.66544903  0.32786764  0.83819213  1
  O  O246  1  0.64170303  0.88248225  0.36386970  1
  O  O247  1  0.63166426  0.86038720  0.86727687  1
  O  O248  1  0.37791934  0.13530770  0.15217495  1
  O  O249  1  0.39320419  0.13297470  0.61337226  1
  O  O250  1  0.38802515  0.64504374  0.12951375  1
  O  O251  1  0.38016079  0.63649278  0.63212633  1
  O  O252  1  0.87213831  0.15869092  0.12884621  1
  O  O253  1  0.86259761  0.14534143  0.63157412  1
  O  O254  1  0.88472685  0.62434514  0.11682696  1
  O  O255  1  0.88225409  0.62792605  0.63428254  1
  O  O256  1  0.25736070  0.25011810  0.14112406  1
  O  O257  1  0.24237971  0.24270825  0.62191781  1
  O  O258  1  0.26684789  0.74658342  0.13628081  1
  O  O259  1  0.25842067  0.74830354  0.62324180  1
  O  O260  1  0.76959700  0.28001970  0.12665942  1
  O  O261  1  0.75323865  0.26884797  0.63592746  1
  O  O262  1  0.74572090  0.76366555  0.11364189  1
  O  O263  1  0.75478095  0.75657584  0.62124244  1
  O  O264  1  0.24857757  0.23661018  0.37446640  1
  O  O265  1  0.24597499  0.23468786  0.86850125  1
  O  O266  1  0.28896429  0.67677347  0.37271106  1
  O  O267  1  0.23383761  0.75116235  0.86566782  1
  O  O268  1  0.78493665  0.20142679  0.35837262  1
  O  O269  1  0.78199662  0.23692918  0.89579949  1
  O  O270  1  0.73895852  0.75131006  0.38985784  1
  O  O271  1  0.74266320  0.73840442  0.87543445  1
  O  O272  1  -0.02893445  0.12171695  -0.02574547  1
  O  O273  1  0.01036576  0.12225944  0.49021099  1
  O  O274  1  0.00430664  0.61664534  0.01015249  1
  O  O275  1  0.00253486  0.60740445  0.51224394  1
  O  O276  1  0.48423716  0.12151264  0.02659159  1
  O  O277  1  0.51807935  0.11607292  0.51032663  1
  O  O278  1  0.50566305  0.63061548  0.01700358  1
  O  O279  1  0.47019809  0.57813377  0.45779783  1
  O  O280  1  0.48882153  0.35475252  0.49180469  1
  O  O281  1  0.46619070  0.39928604  1.05274790  1
  O  O282  1  0.50876030  0.88887804  0.49985573  1
  O  O283  1  0.51987814  0.87509665  1.00087814  1
  O  O284  1  0.99804477  0.37925295  0.49026099  1
  O  O285  1  1.00327318  0.39413087  1.00416586  1
  O  O286  1  0.98317711  0.86098392  0.50736629  1
  O  O287  1  0.99255898  0.86882931  0.98616556  1
  O  O288  1  0.46596487  0.52875193  0.40490107  1
  O  O289  1  0.56058199  0.45421769  0.85925542  1
  O  O290  1  0.49423700  1.00673647  0.38751088  1
  O  O291  1  0.50307411  0.98786294  0.85960615  1
  O  O292  1  1.00190771  0.49420290  0.38959876  1
  O  O293  1  0.98577084  0.50637000  0.88759711  1
  O  O294  1  0.88808620  1.01955747  0.34740651  1
  O  O295  1  1.02501255  0.97816484  0.86773837  1
  O  O296  1  -0.01007822  0.02427808  0.06311646  1
  O  O297  1  0.03423145  -0.02563355  0.63844559  1
  O  O298  1  0.00105660  0.50638045  0.11661777  1
  O  O299  1  0.00222948  0.50595500  0.62392733  1
  O  O300  1  0.49653671  0.00534377  0.13478920  1
  O  O301  1  0.51385527  -0.00274933  0.61491019  1
  O  O302  1  0.49881648  0.53271471  0.15714829  1
  O  O303  1  0.52716321  0.48839116  0.62084092  1
  O  O304  1  0.22920309  0.37950929  0.24745933  1
  O  O305  1  0.26636522  0.44741510  0.80822242  1
  O  O306  1  0.24825973  0.91531511  0.24355203  1
  O  O307  1  0.25967645  0.88700079  0.74392519  1
  O  O308  1  0.77417090  0.40489481  0.24973006  1
  O  O309  1  0.76425193  0.39633561  0.73311668  1
  O  O310  1  0.74206384  0.87098265  0.23354475  1
  O  O311  1  0.75841564  0.86869054  0.73451869  1
  O  O312  1  0.27369997  0.12203290  0.26794756  1
  O  O313  1  0.24171340  0.09588395  0.72522789  1
  O  O314  1  0.23253296  0.60737340  0.24216473  1
  O  O315  1  0.26808774  0.62444832  0.74737923  1
  O  O316  1  0.74029782  0.14577663  0.18297426  1
  O  O317  1  0.75757735  0.13540954  0.76067480  1
  O  O318  1  0.76174630  0.62529448  0.26585771  1
  O  O319  1  0.76034480  0.61921839  0.75021371  1
  O  O320  1  0.38027695  0.12550792  0.37713492  1
  O  O321  1  0.44943944  0.00937750  0.90342372  1
  O  O322  1  0.34603770  0.63236811  0.37550224  1
  O  O323  1  0.37299749  0.63049233  0.86544737  1
  O  O324  1  0.85082023  0.16459339  0.36112527  1
  O  O325  1  0.85899612  0.10375200  0.85782389  1
  O  O326  1  0.89543538  0.64992859  0.37355873  1
  O  O327  1  0.86637894  0.62416540  0.86680905  1
  O  O328  1  0.11951490  0.37855038  0.13642796  1
  O  O329  1  0.11141444  0.38252671  0.62908560  1
  O  O330  1  0.06302332  0.89281110  0.15982767  1
  O  O331  1  0.08143538  0.92870945  0.60669174  1
  O  O332  1  0.62777410  0.45244629  0.03842956  1
  O  O333  1  0.64592333  0.38788207  0.61358633  1
  O  O334  1  0.62825265  0.88412796  0.13600261  1
  O  O335  1  0.63727496  0.88372375  0.62674687  1
  O  O336  1  0.12160896  0.26105310  0.24022813  1
  O  O337  1  0.10219838  0.24254506  0.76688256  1
  O  O338  1  0.12619710  0.77916067  0.24302400  1
  O  O339  1  0.11242452  0.73194916  0.76393965  1
  O  O340  1  0.61214731  0.25711621  0.23717957  1
  O  O341  1  0.60406339  0.25951062  0.75341211  1
  O  O342  1  0.62664174  0.76101989  0.26965741  1
  O  O343  1  0.61772692  0.73807523  0.76466797  1
  O  O344  1  0.37867977  0.24476729  0.25894531  1
  O  O345  1  0.43724858  0.18916606  0.85617130  1
  O  O346  1  0.38262477  0.77312158  0.27205190  1
  O  O347  1  0.38903550  0.73487875  0.73871477  1
  O  O348  1  0.86503253  0.25854015  0.23778690  1
  O  O349  1  0.87465753  0.25397842  0.73990024  1
  O  O350  1  0.86547814  0.73390308  0.24162561  1
  O  O351  1  0.88130170  0.74191477  0.74436344  1
  O  O352  1  0.37063138  0.46183930  0.54264163  1
  O  O353  1  0.35248036  0.49863427  1.00756357  1
  O  O354  1  0.39426177  1.00829939  0.49290099  1
  O  O355  1  0.31232559  0.92803009  0.98857095  1
  O  O356  1  0.89192236  0.48433946  0.51027048  1
  O  O357  1  0.87918458  0.50372144  0.98915470  1
  O  O358  1  0.87991734  0.98491376  0.51150962  1
  O  O359  1  0.93840954  1.06102204  1.02005135  1
  O  O360  1  0.15177414  0.00725654  0.00296930  1
  O  O361  1  0.13531840  0.01939034  0.49006983  1
  O  O362  1  0.11132983  0.50703506  0.00766987  1
  O  O363  1  0.11022032  0.49795106  0.51291490  1
  O  O364  1  0.61189390  -0.00099351  0.01603414  1
  O  O365  1  0.61955108  0.00362902  0.49909471  1
  O  O366  1  0.70089113  0.44868252  0.00673540  1
  O  O367  1  0.62900143  0.49879979  0.49461156  1
  O  O368  1  0.35393489  0.35966401  0.13380872  1
  O  O369  1  0.37185219  0.39846145  0.60089453  1
  O  O370  1  0.38517630  0.85953390  0.13239881  1
  O  O371  1  0.39139681  0.84324368  0.62384499  1
  O  O372  1  0.88663337  0.36762751  0.13583736  1
  O  O373  1  0.87183679  0.36699311  0.61863499  1
  O  O374  1  0.85672955  0.90696621  0.12713866  1
  O  O375  1  0.86807698  0.86451200  0.62125690  1
  O  O376  1  0.14054775  0.11662766  0.35847493  1
  O  O377  1  0.11288811  0.14148771  0.87946486  1
  O  O378  1  0.11902196  0.62197470  0.39362774  1
  O  O379  1  0.11818038  0.63284872  0.89376849  1
  O  O380  1  0.63141092  0.12476308  0.38905175  1
  O  O381  1  0.64002754  0.14981930  0.87907326  1
  O  O382  1  0.61740754  0.64085038  0.37676563  1
  O  O383  1  0.64079766  0.62129448  0.87288958  1
