# generated using pymatgen
data_VZnO4
_symmetry_space_group_name_H-M   'P 1'
_cell_length_a   16.90992914
_cell_length_b   17.04050422
_cell_length_c   17.03721947
_cell_angle_alpha   90.00944566
_cell_angle_beta   90.25349761
_cell_angle_gamma   89.95573109
_symmetry_Int_Tables_number   1
_chemical_formula_structural   VZnO4
_chemical_formula_sum   'V64 Zn64 O256'
_cell_volume   4909.28857135
_cell_formula_units_Z   64
loop_
 _symmetry_equiv_pos_site_id
 _symmetry_equiv_pos_as_xyz
  1  'x, y, z'
loop_
 _atom_site_type_symbol
 _atom_site_label
 _atom_site_symmetry_multiplicity
 _atom_site_fract_x
 _atom_site_fract_y
 _atom_site_fract_z
 _atom_site_occupancy
  V  V0  1  -0.01117515  0.01781298  0.49853685  1
  V  V1  1  0.38685027  0.11281741  0.24078458  1
  V  V2  1  0.23831826  0.49483741  0.70003554  1
  V  V3  1  0.38709616  0.52248865  0.37397287  1
  V  V4  1  0.75155063  0.74877764  -0.01578331  1
  V  V5  1  0.61087441  0.74443624  0.86746628  1
  V  V6  1  0.37305359  0.50420405  0.90354734  1
  V  V7  1  0.38781433  0.75701726  0.11869173  1
  V  V8  1  0.87539260  0.01726739  0.88086021  1
  V  V9  1  0.25917343  0.01648524  0.73612860  1
  V  V10  1  0.22997793  0.34740054  0.59648324  1
  V  V11  1  0.74308730  0.74813175  0.51312434  1
  V  V12  1  0.13345969  0.76519620  0.87871131  1
  V  V13  1  0.62808859  0.61033485  -0.01145888  1
  V  V14  1  0.15287736  0.35230257  0.78590017  1
  V  V15  1  0.73050746  0.13973813  0.37788269  1
  V  V16  1  0.87914224  0.23016193  0.12293574  1
  V  V17  1  0.64062447  0.50338300  0.12633255  1
  V  V18  1  0.88590692  0.87196420  -0.00792005  1
  V  V19  1  0.86939933  0.24239791  0.62734797  1
  V  V20  1  0.37459806  0.36262074  0.48616783  1
  V  V21  1  0.40288446  0.24723146  0.62033619  1
  V  V22  1  0.24503235  0.53186183  0.26317649  1
  V  V23  1  0.15027471  0.13019442  0.01054814  1
  V  V24  1  0.62841737  0.87001091  0.26457577  1
  V  V25  1  0.75558507  0.02976091  0.74533545  1
  V  V26  1  0.58719430  0.38933415  0.75631297  1
  V  V27  1  0.00938267  0.50041209  -0.02272705  1
  V  V28  1  0.86230006  0.74973861  0.13351726  1
  V  V29  1  0.61403587  0.25031812  0.86111067  1
  V  V30  1  0.25066771  0.87705058  0.15136078  1
  V  V31  1  0.00150238  0.74768312  0.24723220  1
  V  V32  1  -0.00874526  0.88042008  0.36158906  1
  V  V33  1  0.66018451  0.86976149  0.75330043  1
  V  V34  1  0.39939956  0.12501476  0.74063026  1
  V  V35  1  0.88474849  0.62445795  0.74744696  1
  V  V36  1  -0.01132524  0.34504754  0.88118516  1
  V  V37  1  0.24193712  0.61530902  0.91908749  1
  V  V38  1  0.00280095  0.24659341  0.25386633  1
  V  V39  1  0.62861728  -0.04037329  0.10709177  1
  V  V40  1  0.76505442  0.37337933  0.11345051  1
  V  V41  1  0.74011304  0.63053964  0.36555409  1
  V  V42  1  0.86768511  0.50888255  0.36729024  1
  V  V43  1  0.75449983  0.38524636  0.64320209  1
  V  V44  1  0.50926537  0.36742340  0.37466722  1
  V  V45  1  0.86212693  0.87930037  0.51174124  1
  V  V46  1  0.47447115  0.62307054  0.61932348  1
  V  V47  1  0.63648415  0.37405104  0.25071801  1
  V  V48  1  0.45269243  0.74724567  0.74384535  1
  V  V49  1  0.50325926  0.24567269  0.23276942  1
  V  V50  1  0.00578174  0.61799485  0.11736251  1
  V  V51  1  0.85406763  0.37911401  0.49229152  1
  V  V52  1  0.62826715  0.14384715  0.01622355  1
  V  V53  1  0.62115632  0.51163600  0.61766401  1
  V  V54  1  0.25103565  0.76704497  0.00926225  1
  V  V55  1  0.00761135  0.37961487  0.37554921  1
  V  V56  1  0.25637904  0.37609798  0.15616478  1
  V  V57  1  0.10212638  -0.01084656  0.63710526  1
  V  V58  1  0.85159342  0.00606140  0.35481833  1
  V  V59  1  0.50413777  0.74782124  0.26207375  1
  V  V60  1  0.49710365  -0.02183424  -0.01544856  1
  V  V61  1  0.12509281  0.74748931  0.38852975  1
  V  V62  1  0.26944816  0.13631607  0.38159982  1
  V  V63  1  0.49670941  0.61474944  0.12502742  1
  Zn  Zn64  1  0.19613103  0.18802839  0.21431155  1
  Zn  Zn65  1  0.24383289  0.19158147  0.82303008  1
  Zn  Zn66  1  0.18016516  0.69940858  0.18890986  1
  Zn  Zn67  1  0.24569919  0.67733959  0.75093370  1
  Zn  Zn68  1  0.70725466  0.19430707  0.19332968  1
  Zn  Zn69  1  0.68275334  0.21206604  0.68705275  1
  Zn  Zn70  1  0.68442599  0.68866666  0.18616324  1
  Zn  Zn71  1  0.69630530  0.68297044  0.69109000  1
  Zn  Zn72  1  0.31486573  0.30325245  0.29362624  1
  Zn  Zn73  1  0.40839040  0.30869556  0.82713359  1
  Zn  Zn74  1  0.30098851  0.74339347  0.29471992  1
  Zn  Zn75  1  0.27647724  0.83337143  0.77348798  1
  Zn  Zn76  1  0.81725120  0.31097617  0.30543098  1
  Zn  Zn77  1  0.81057097  0.29514873  0.81178994  1
  Zn  Zn78  1  0.80755822  0.81138640  0.32109085  1
  Zn  Zn79  1  0.86840854  0.83238167  0.78203404  1
  Zn  Zn80  1  0.21433180  0.41080491  0.38217337  1
  Zn  Zn81  1  0.18842979  0.43535731  0.96948074  1
  Zn  Zn82  1  0.16237648  0.95394208  0.42911719  1
  Zn  Zn83  1  0.23837732  0.92654234  0.90788946  1
  Zn  Zn84  1  0.68300961  0.45049279  0.43809504  1
  Zn  Zn85  1  0.71309059  0.39833625  0.90673662  1
  Zn  Zn86  1  0.68029192  0.93932843  0.44286582  1
  Zn  Zn87  1  0.69769758  0.93100099  0.92500551  1
  Zn  Zn88  1  0.33180091  0.04698785  0.07578110  1
  Zn  Zn89  1  0.26043774  0.13430626  0.59444949  1
  Zn  Zn90  1  0.30921244  0.55679210  0.08344726  1
  Zn  Zn91  1  0.31430192  0.53850169  0.54021620  1
  Zn  Zn92  1  0.79917351  0.06086473  0.05066593  1
  Zn  Zn93  1  0.80038859  0.06356996  0.55571493  1
  Zn  Zn94  1  0.80378885  0.53112790  0.00031105  1
  Zn  Zn95  1  0.80755258  0.55763594  0.55561700  1
  Zn  Zn96  1  0.43879405  0.44613127  0.20499965  1
  Zn  Zn97  1  0.42126780  0.44715024  0.67390560  1
  Zn  Zn98  1  0.45501243  0.93617761  0.18613419  1
  Zn  Zn99  1  0.42166334  0.93561904  0.81897362  1
  Zn  Zn100  1  0.93913154  0.44233951  0.19766372  1
  Zn  Zn101  1  0.97781242  0.37582466  0.66700591  1
  Zn  Zn102  1  0.80461568  0.92704040  0.17770994  1
  Zn  Zn103  1  0.92537710  0.96356487  0.68767299  1
  Zn  Zn104  1  0.04457083  0.07434106  0.32218292  1
  Zn  Zn105  1  0.04561518  -0.08166962  0.81886592  1
  Zn  Zn106  1  0.05055744  0.57041740  0.32250263  1
  Zn  Zn107  1  0.04812567  0.51308141  0.76924486  1
  Zn  Zn108  1  0.60923904  0.07777572  0.26864699  1
  Zn  Zn109  1  0.57320544  0.05219517  0.80516829  1
  Zn  Zn110  1  0.56484209  0.55795958  0.30647371  1
  Zn  Zn111  1  0.54633692  0.56663104  0.80341624  1
  Zn  Zn112  1  0.45478226  0.18432885  0.42495790  1
  Zn  Zn113  1  0.47004743  0.15944527  0.91773396  1
  Zn  Zn114  1  0.56948695  0.68692997  0.44245716  1
  Zn  Zn115  1  0.43769006  0.66342481  0.93282057  1
  Zn  Zn116  1  0.90794521  0.19761461  0.42600267  1
  Zn  Zn117  1  0.94566251  0.18230201  0.95993457  1
  Zn  Zn118  1  0.92040509  0.70089417  0.43245432  1
  Zn  Zn119  1  0.95228404  0.69428124  0.94305783  1
  Zn  Zn120  1  0.06170278  0.32160545  0.07348732  1
  Zn  Zn121  1  0.03931205  0.28208096  0.52827005  1
  Zn  Zn122  1  0.06858327  0.82195046  0.06973590  1
  Zn  Zn123  1  0.05312706  0.82959125  0.55010876  1
  Zn  Zn124  1  0.57632752  0.31295468  0.06528178  1
  Zn  Zn125  1  0.57141304  0.32887523  0.56392374  1
  Zn  Zn126  1  0.55602921  0.80266779  0.04598182  1
  Zn  Zn127  1  0.57246145  0.78780842  0.59212065  1
  O  O128  1  0.15309096  0.12999046  0.11487446  1
  O  O129  1  0.04756914  0.15500339  0.73172759  1
  O  O130  1  0.10260434  0.64525044  0.13037781  1
  O  O131  1  0.10102225  0.56396613  0.54867760  1
  O  O132  1  0.63304195  0.14142896  0.11616701  1
  O  O133  1  0.63346731  0.17111640  0.57812024  1
  O  O134  1  0.62520505  0.61243464  0.11929360  1
  O  O135  1  0.62856231  0.61161581  0.63632055  1
  O  O136  1  0.39407614  0.36350352  0.37712726  1
  O  O137  1  0.37928928  0.41023117  0.87266801  1
  O  O138  1  0.39101803  0.81992608  0.44767958  1
  O  O139  1  0.33074626  0.88453870  0.85825356  1
  O  O140  1  0.85686086  0.38964372  0.38242268  1
  O  O141  1  0.89072960  0.35807639  0.86609667  1
  O  O142  1  0.87358921  0.88904180  0.37921426  1
  O  O143  1  0.87277200  0.85862269  0.89221455  1
  O  O144  1  0.20824979  0.03091222  0.35402644  1
  O  O145  1  0.22752371  0.01525440  0.83125660  1
  O  O146  1  0.27317393  0.51252789  0.37683027  1
  O  O147  1  0.25256309  0.51169389  0.90812650  1
  O  O148  1  0.75100234  -0.00013353  0.37394697  1
  O  O149  1  0.76756849  -0.00896411  0.85884057  1
  O  O150  1  0.75627793  0.52037885  0.38563296  1
  O  O151  1  0.75019495  0.50038261  0.90697444  1
  O  O152  1  0.24868246  0.50265946  0.16122863  1
  O  O153  1  0.24091324  0.46816201  0.59547191  1
  O  O154  1  0.27183289  0.97518473  0.13701343  1
  O  O155  1  0.19456969  1.04570146  0.63820207  1
  O  O156  1  0.74161766  0.49546887  0.11689758  1
  O  O157  1  0.73433316  0.49325641  0.62228785  1
  O  O158  1  0.73030343  0.99198468  0.11625848  1
  O  O159  1  0.76089851  1.00675238  0.64739748  1
  O  O160  1  -0.00393215  0.37209469  0.26740115  1
  O  O161  1  0.04237617  0.36388764  0.78711833  1
  O  O162  1  -0.01350822  0.87164451  0.26310443  1
  O  O163  1  -0.03426118  0.87619971  0.74854293  1
  O  O164  1  0.51204095  0.36710712  0.25395798  1
  O  O165  1  0.48598764  0.38330789  0.74752601  1
  O  O166  1  0.51106499  0.85515842  0.24752402  1
  O  O167  1  0.47164166  0.84398984  0.75859387  1
  O  O168  1  0.51095978  0.14091543  0.24942325  1
  O  O169  1  0.49857735  0.10636943  0.73368123  1
  O  O170  1  0.52049615  0.63839129  0.23140923  1
  O  O171  1  0.48976875  0.64054837  0.73316554  1
  O  O172  1  0.98530856  0.14668362  0.26420644  1
  O  O173  1  0.98762280  0.13903747  0.76766568  1
  O  O174  1  0.99214294  0.64561369  0.24887589  1
  O  O175  1  0.98900854  0.62118978  0.73906192  1
  O  O176  1  0.41325289  0.34180247  0.01687249  1
  O  O177  1  0.39773880  0.25860109  0.49897186  1
  O  O178  1  0.37202081  0.73925891  0.01611119  1
  O  O179  1  0.34631527  0.79398546  0.49779379  1
  O  O180  1  0.89136374  0.25632170  0.02577967  1
  O  O181  1  0.86612436  0.27082450  0.50736975  1
  O  O182  1  0.86515551  0.74953119  0.00051935  1
  O  O183  1  0.85849109  0.77088836  0.49885529  1
  O  O184  1  0.08167541  0.19385306  0.47758746  1
  O  O185  1  0.13547751  0.23404945  1.01705264  1
  O  O186  1  0.12153948  0.76948914  0.48701980  1
  O  O187  1  0.14225174  0.76188298  0.99624707  1
  O  O188  1  0.62909130  0.22325748  0.52491267  1
  O  O189  1  0.61790129  0.24539384  0.98547606  1
  O  O190  1  0.63347528  0.76367561  0.50136791  1
  O  O191  1  0.62871614  0.73936583  0.98237453  1
  O  O192  1  0.50479159  0.25771940  0.13405979  1
  O  O193  1  0.50202981  0.25570415  0.61742062  1
  O  O194  1  0.49543604  0.74233072  0.12403349  1
  O  O195  1  0.47813652  0.74408080  0.63844817  1
  O  O196  1  0.99135653  0.25650929  0.13960707  1
  O  O197  1  0.97515656  0.27347953  0.62454776  1
  O  O198  1  0.99621937  0.76145520  0.14243736  1
  O  O199  1  1.00069242  0.72202073  0.58842659  1
  O  O200  1  -0.02147368  0.26907157  0.36407707  1
  O  O201  1  0.00321368  0.24735735  0.88789024  1
  O  O202  1  -0.01311114  0.76656243  0.36605405  1
  O  O203  1  0.03525678  0.74522232  0.87899127  1
  O  O204  1  0.51660939  0.26434398  0.36312998  1
  O  O205  1  0.50698571  0.26077125  0.87674272  1
  O  O206  1  0.50456585  0.73687876  0.35960549  1
  O  O207  1  0.50533203  0.73227934  0.85873582  1
  O  O208  1  0.26104087  0.12051416  0.48002085  1
  O  O209  1  0.25580117  0.13248309  1.01749614  1
  O  O210  1  0.24315066  0.63298464  0.49904881  1
  O  O211  1  0.24444485  0.63419192  1.01995807  1
  O  O212  1  0.74431630  0.11876994  0.47778495  1
  O  O213  1  0.71711578  0.10913518  0.98465273  1
  O  O214  1  0.75428900  0.64366193  0.50027144  1
  O  O215  1  0.73295185  0.63127927  1.00391512  1
  O  O216  1  0.23913629  0.37677274  0.05070016  1
  O  O217  1  0.26943004  0.36347800  0.48315320  1
  O  O218  1  0.26032410  0.86762877  0.01311831  1
  O  O219  1  0.27417874  0.91069068  0.46743057  1
  O  O220  1  0.74849177  0.37521383  0.01638070  1
  O  O221  1  0.75001441  0.38155428  0.50424146  1
  O  O222  1  0.75068806  0.85112891  -0.00562031  1
  O  O223  1  0.75370133  0.87082664  0.49731877  1
  O  O224  1  0.14649241  0.52368483  0.28303217  1
  O  O225  1  0.15585105  0.47390799  0.76403176  1
  O  O226  1  0.08874990  1.00602687  0.21754427  1
  O  O227  1  0.08511582  0.99275130  0.73526987  1
  O  O228  1  0.62553899  0.48995061  0.23222054  1
  O  O229  1  0.60920018  0.49205489  0.74225311  1
  O  O230  1  0.61217489  0.97097641  0.22374855  1
  O  O231  1  0.65253596  0.97844574  0.76404562  1
  O  O232  1  0.40839525  0.01479215  0.25138737  1
  O  O233  1  0.36983888  0.01526844  0.73937297  1
  O  O234  1  0.37057954  0.51660534  0.26849154  1
  O  O235  1  0.33378656  0.49145700  0.73541134  1
  O  O236  1  0.86074441  -0.00956930  0.25688910  1
  O  O237  1  0.86474110  0.02778715  0.76356488  1
  O  O238  1  0.86425767  0.49964756  0.26933004  1
  O  O239  1  0.87678798  0.52531741  0.77255928  1
  O  O240  1  0.10595773  0.38140927  0.39069935  1
  O  O241  1  0.18126231  0.36303106  0.87987867  1
  O  O242  1  0.09708847  0.87428639  0.37740514  1
  O  O243  1  0.13321662  0.87227087  0.88032418  1
  O  O244  1  0.62228721  0.39032353  0.35712400  1
  O  O245  1  0.60394662  0.38601529  0.85689005  1
  O  O246  1  0.62074151  0.88214448  0.36193956  1
  O  O247  1  0.62668100  0.85272948  0.86084715  1
  O  O248  1  0.38311644  0.12351701  0.14098738  1
  O  O249  1  0.38323776  0.14429366  0.61795450  1
  O  O250  1  0.39459612  0.62948936  0.12476036  1
  O  O251  1  0.37594721  0.60912911  0.60776570  1
  O  O252  1  0.86502498  0.13044929  0.11596296  1
  O  O253  1  0.86531953  0.14592564  0.60775083  1
  O  O254  1  0.89819905  0.65305058  0.11961079  1
  O  O255  1  0.87333779  0.60396888  0.64688891  1
  O  O256  1  0.25950492  0.27640712  0.18212314  1
  O  O257  1  0.26898748  0.25306954  0.60178880  1
  O  O258  1  0.26691422  0.75482469  0.12398531  1
  O  O259  1  0.22880769  0.68415903  0.54912263  1
  O  O260  1  0.76789379  0.26494853  0.12751125  1
  O  O261  1  0.75513606  0.27630095  0.62598865  1
  O  O262  1  0.76034612  0.73776944  0.11618373  1
  O  O263  1  0.74478809  0.74926830  0.61272331  1
  O  O264  1  0.25413505  0.23497196  0.36692331  1
  O  O265  1  0.32504047  0.24409841  0.88000663  1
  O  O266  1  0.22560749  0.74842656  0.37533367  1
  O  O267  1  0.25684612  0.74314491  0.90938451  1
  O  O268  1  0.75575421  0.23762352  0.36707331  1
  O  O269  1  0.71756048  0.28533311  0.87410439  1
  O  O270  1  0.75239393  0.73500605  0.38592969  1
  O  O271  1  0.73834890  0.73746229  0.88671555  1
  O  O272  1  0.04572892  0.12316809  0.00422808  1
  O  O273  1  -0.02158785  0.11564450  0.48128099  1
  O  O274  1  0.00409560  0.61667650  0.00879744  1
  O  O275  1  -0.01641221  0.66970440  0.53807154  1
  O  O276  1  0.53390968  0.10024561  -0.01198213  1
  O  O277  1  0.51428501  0.10200401  0.49781142  1
  O  O278  1  0.51861338  0.63259211  0.01728411  1
  O  O279  1  0.50883450  0.64447026  0.52774543  1
  O  O280  1  0.51105683  0.37205963  0.47791534  1
  O  O281  1  0.47869628  0.37303356  1.00801560  1
  O  O282  1  0.43192311  0.90734552  0.58895554  1
  O  O283  1  0.49342296  0.87720473  0.98692223  1
  O  O284  1  0.97724683  0.37144532  0.47965487  1
  O  O285  1  1.01959915  0.38005475  0.97764850  1
  O  O286  1  0.97620070  0.88710437  0.48853238  1
  O  O287  1  0.98588736  0.86565227  1.00452402  1
  O  O288  1  0.49268513  0.48455964  0.35932494  1
  O  O289  1  0.46531949  0.54824984  0.88001892  1
  O  O290  1  0.55104663  1.04496066  0.45998194  1
  O  O291  1  0.50510755  0.99166474  0.87530472  1
  O  O292  1  0.98134308  0.49034211  0.37226292  1
  O  O293  1  1.01370970  0.50389714  0.87693054  1
  O  O294  1  0.98358749  0.99514829  0.37841859  1
  O  O295  1  0.97216316  0.99017664  0.87420911  1
  O  O296  1  0.04055102  -0.00216372  0.16270735  1
  O  O297  1  -0.00576371  0.01516287  0.60918194  1
  O  O298  1  -0.00070072  0.52229201  0.14443947  1
  O  O299  1  0.00568339  0.47918015  0.67216359  1
  O  O300  1  0.52107955  -0.01492893  0.10156993  1
  O  O301  1  0.45469436  -0.02423308  0.56620731  1
  O  O302  1  0.50705076  0.51296014  0.13278709  1
  O  O303  1  0.50382592  0.51729680  0.62957861  1
  O  O304  1  0.24939596  0.40038846  0.27040024  1
  O  O305  1  0.23036634  0.36895652  0.70301698  1
  O  O306  1  0.26672898  0.85202224  0.24688118  1
  O  O307  1  0.25039177  0.92021476  0.70583904  1
  O  O308  1  0.73909973  0.37503508  0.23934665  1
  O  O309  1  0.75804710  0.38606632  0.74178500  1
  O  O310  1  0.73369604  0.86580109  0.24958343  1
  O  O311  1  0.75917403  0.85921707  0.74864256  1
  O  O312  1  0.28036012  0.12187998  0.25710663  1
  O  O313  1  0.27763100  0.12937666  0.73159694  1
  O  O314  1  0.25539847  0.63621449  0.25198208  1
  O  O315  1  0.21923424  0.59380959  0.68725256  1
  O  O316  1  0.72363890  0.11203336  0.26478929  1
  O  O317  1  0.72774166  0.12538511  0.74459732  1
  O  O318  1  0.74477638  0.63220541  0.26693596  1
  O  O319  1  0.77923329  0.63251008  0.75577355  1
  O  O320  1  0.37629683  0.12490967  0.36817404  1
  O  O321  1  0.38976966  0.13288666  0.84405782  1
  O  O322  1  0.39619390  0.61588527  0.39418787  1
  O  O323  1  0.33897510  0.62208256  0.87536386  1
  O  O324  1  0.85728137  0.10969060  0.36760791  1
  O  O325  1  0.87534725  0.11335569  0.90752678  1
  O  O326  1  0.86777053  0.61450705  0.38335442  1
  O  O327  1  0.89586124  0.64675260  0.84986839  1
  O  O328  1  0.14016828  0.37513530  0.13425504  1
  O  O329  1  0.13390298  0.33820919  0.57689220  1
  O  O330  1  0.15022153  0.86464623  0.13488795  1
  O  O331  1  0.11305008  0.89139427  0.62135640  1
  O  O332  1  0.63475844  0.38744753  0.12865926  1
  O  O333  1  0.62987274  0.38867290  0.64122338  1
  O  O334  1  0.62997157  0.86038179  0.11730527  1
  O  O335  1  0.61704354  0.86154114  0.66292772  1
  O  O336  1  0.10424108  0.24288789  0.25346817  1
  O  O337  1  0.15970760  0.25339865  0.77388133  1
  O  O338  1  0.10467042  0.75613078  0.26562548  1
  O  O339  1  0.17946829  0.76536259  0.77891821  1
  O  O340  1  0.62223787  0.27044943  0.24005792  1
  O  O341  1  0.61467519  0.27685829  0.75302543  1
  O  O342  1  0.61713242  0.76008818  0.24515938  1
  O  O343  1  0.63715568  0.74525528  0.76590666  1
  O  O344  1  0.40162718  0.23884987  0.25413812  1
  O  O345  1  0.39243225  0.24270273  0.72725355  1
  O  O346  1  0.39715927  0.74173179  0.23637825  1
  O  O347  1  0.34964425  0.73845570  0.74715679  1
  O  O348  1  0.88210581  0.25751853  0.23081197  1
  O  O349  1  0.86602718  0.24629010  0.72895535  1
  O  O350  1  0.87543994  0.76052488  0.23741621  1
  O  O351  1  0.88349931  0.72901895  0.73121301  1
  O  O352  1  0.38558517  0.47399406  0.47986801  1
  O  O353  1  0.37599757  0.50657327  1.00386412  1
  O  O354  1  0.33144596  0.92400637  0.42280749  1
  O  O355  1  0.40048400  1.00852201  0.99676843  1
  O  O356  1  0.87109360  0.48705577  0.49287643  1
  O  O357  1  0.90902473  0.49717065  1.00686464  1
  O  O358  1  0.87338088  0.99465363  0.49056843  1
  O  O359  1  0.86024106  0.97843037  0.99010651  1
  O  O360  1  0.14942865  0.02668241  0.00474387  1
  O  O361  1  0.09449267  0.00371642  0.50532670  1
  O  O362  1  0.10637749  0.50043627  0.01300929  1
  O  O363  1  0.05153971  0.51355410  0.53485881  1
  O  O364  1  0.62178861  -0.02649730  0.00032566  1
  O  O365  1  0.60293444  0.00534869  0.50594929  1
  O  O366  1  0.62051020  0.51004805  0.01298213  1
  O  O367  1  0.61681510  0.49845170  0.51870349  1
  O  O368  1  0.35808915  0.39178168  0.14958661  1
  O  O369  1  0.38026605  0.36492563  0.59934221  1
  O  O370  1  0.38006700  0.85802751  0.12859722  1
  O  O371  1  0.35715805  0.89421534  0.59780209  1
  O  O372  1  0.86236407  0.39080480  0.12894215  1
  O  O373  1  0.85922905  0.38378138  0.61416117  1
  O  O374  1  0.86552315  0.85762135  0.10656676  1
  O  O375  1  0.87201241  0.89007387  0.60864588  1
  O  O376  1  0.15604305  0.09824949  0.34978457  1
  O  O377  1  0.16374414  0.14165680  0.90799586  1
  O  O378  1  0.09379679  0.65135744  0.39051944  1
  O  O379  1  0.15783456  0.64219174  0.86766602  1
  O  O380  1  0.62767074  0.12753670  0.37342110  1
  O  O381  1  0.61840851  0.15106651  0.85309007  1
  O  O382  1  0.63411536  0.61664611  0.37885149  1
  O  O383  1  0.61726694  0.62640026  0.88414637  1
