# generated using pymatgen
data_VZnO4
_symmetry_space_group_name_H-M   'P 1'
_cell_length_a   16.95665334
_cell_length_b   16.96962311
_cell_length_c   17.01770793
_cell_angle_alpha   89.63150470
_cell_angle_beta   90.32781762
_cell_angle_gamma   89.99091407
_symmetry_Int_Tables_number   1
_chemical_formula_structural   VZnO4
_chemical_formula_sum   'V64 Zn64 O256'
_cell_volume   4896.63018538
_cell_formula_units_Z   64
loop_
 _symmetry_equiv_pos_site_id
 _symmetry_equiv_pos_as_xyz
  1  'x, y, z'
loop_
 _atom_site_type_symbol
 _atom_site_label
 _atom_site_symmetry_multiplicity
 _atom_site_fract_x
 _atom_site_fract_y
 _atom_site_fract_z
 _atom_site_occupancy
  V  V0  1  0.37128736  0.50258613  0.35899790  1
  V  V1  1  0.35041007  0.13213010  0.29252609  1
  V  V2  1  0.36378046  0.75669922  0.13743351  1
  V  V3  1  -0.00415033  -0.00860249  0.00520945  1
  V  V4  1  0.13790470  0.48874010  0.09845050  1
  V  V5  1  0.87442659  0.49661799  0.39132261  1
  V  V6  1  0.64678088  0.14470680  -0.02195302  1
  V  V7  1  0.23455169  0.86292546  0.62121235  1
  V  V8  1  0.60397179  0.74258545  0.85985138  1
  V  V9  1  0.74811112  0.63077243  0.87197561  1
  V  V10  1  0.62613305  0.49163040  0.13399174  1
  V  V11  1  0.75492617  0.13019477  0.40030088  1
  V  V12  1  0.50982497  0.14591332  0.62570774  1
  V  V13  1  0.22824514  0.21721768  -0.01076151  1
  V  V14  1  0.50209623  0.01699854  0.00370809  1
  V  V15  1  0.13079431  0.11464887  0.50099187  1
  V  V16  1  0.49657765  0.88797748  0.88024771  1
  V  V17  1  0.38219742  0.87000265  0.51172561  1
  V  V18  1  0.25239032  0.73189991  -0.00904425  1
  V  V19  1  0.74549622  0.87020383  0.10746845  1
  V  V20  1  0.75303565  0.26458642  0.02154441  1
  V  V21  1  0.75915628  0.63514785  0.34208601  1
  V  V22  1  0.74895048  0.38663523  0.61639020  1
  V  V23  1  0.10673159  0.62030602  -0.02054863  1
  V  V24  1  0.35800136  0.89635361  0.00634331  1
  V  V25  1  0.51737475  -0.00656078  0.49778287  1
  V  V26  1  0.88337771  0.13177336  0.24895091  1
  V  V27  1  0.51013308  0.34545021  0.82425339  1
  V  V28  1  0.26594185  0.52179490  0.75868490  1
  V  V29  1  0.12536807  0.50350441  0.62567328  1
  V  V30  1  0.62104192  0.63329422  0.00585907  1
  V  V31  1  0.76299196  0.49797255  0.76456849  1
  V  V32  1  0.49092173  0.63396140  0.14389168  1
  V  V33  1  0.52848051  0.25044695  0.28553165  1
  V  V34  1  0.12710777  0.76949971  0.86628649  1
  V  V35  1  0.25217092  0.36507215  0.64281552  1
  V  V36  1  0.86331577  0.38225041  -0.03530607  1
  V  V37  1  0.47392101  0.51564860  -0.00312535  1
  V  V38  1  0.49593338  0.52132474  0.49575047  1
  V  V39  1  0.63150315  0.90458564  0.75630075  1
  V  V40  1  0.49191311  0.86629651  0.36286765  1
  V  V41  1  0.62190602  0.73853189  0.39137420  1
  V  V42  1  0.78913987  0.85289389  0.59388116  1
  V  V43  1  0.09463031  0.24711908  0.38700173  1
  V  V44  1  0.11272823  -0.00860548  0.63699468  1
  V  V45  1  -0.00623562  0.76205599  0.75309351  1
  V  V46  1  0.88178796  -0.02516692  0.37863209  1
  V  V47  1  0.61042578  0.52131226  0.64234306  1
  V  V48  1  0.24575068  0.72909557  0.49497389  1
  V  V49  1  0.74685290  -0.00198502  0.25762545  1
  V  V50  1  0.37154748  0.37349863  0.49999092  1
  V  V51  1  0.27318012  0.00070461  0.73974369  1
  V  V52  1  -0.00471269  0.62129360  0.63027309  1
  V  V53  1  0.61745015  0.02483715  0.14012662  1
  V  V54  1  -0.01750351  0.24724460  0.77530172  1
  V  V55  1  0.11628571  0.75294033  0.35420528  1
  V  V56  1  0.11696362  0.38947658  0.25628623  1
  V  V57  1  0.00734974  -0.02947489  0.48857182  1
  V  V58  1  0.38549311  0.35961377  0.03342934  1
  V  V59  1  0.22078312  -0.02013540  0.24386334  1
  V  V60  1  -0.01045641  0.61848229  0.12172525  1
  V  V61  1  0.24233475  0.61907645  0.34276080  1
  V  V62  1  0.62001013  0.85843153  0.24296646  1
  V  V63  1  0.87728223  0.10666852  0.71360204  1
  Zn  Zn64  1  0.28868825  0.29418179  0.17819728  1
  Zn  Zn65  1  0.19342164  0.17151480  0.68620504  1
  Zn  Zn66  1  0.17154133  0.68976497  0.16986704  1
  Zn  Zn67  1  0.19127655  0.69027739  0.68840087  1
  Zn  Zn68  1  0.70740078  0.19472751  0.21410769  1
  Zn  Zn69  1  0.69219893  0.18540891  0.67365007  1
  Zn  Zn70  1  0.69392665  0.68608750  0.17329725  1
  Zn  Zn71  1  0.68252329  0.68445313  0.68001886  1
  Zn  Zn72  1  0.27591455  0.31440185  0.34672943  1
  Zn  Zn73  1  0.29986165  0.36689320  0.86189044  1
  Zn  Zn74  1  0.28467550  0.83304150  0.31024961  1
  Zn  Zn75  1  0.30495906  0.84013348  0.82391111  1
  Zn  Zn76  1  0.88058577  0.28826808  0.35954396  1
  Zn  Zn77  1  0.79015935  0.29607759  0.78926927  1
  Zn  Zn78  1  0.80501989  0.80988505  0.30834901  1
  Zn  Zn79  1  0.79033969  0.79046519  0.76359986  1
  Zn  Zn80  1  0.17538667  0.43154212  0.43875225  1
  Zn  Zn81  1  0.26991551  0.51098795  0.97400725  1
  Zn  Zn82  1  0.19308747  0.93163468  0.42882440  1
  Zn  Zn83  1  0.18335134  0.96594798  0.91908239  1
  Zn  Zn84  1  0.69620542  0.47294882  0.44339217  1
  Zn  Zn85  1  0.66377995  0.44255966  0.93944076  1
  Zn  Zn86  1  0.69578555  0.91921677  0.43181052  1
  Zn  Zn87  1  0.72719388  0.86378438  0.90573383  1
  Zn  Zn88  1  0.28554455  0.10850081  0.09648656  1
  Zn  Zn89  1  0.34229287  0.07874236  0.49425977  1
  Zn  Zn90  1  0.31274952  0.55233801  0.17326998  1
  Zn  Zn91  1  0.28557995  0.52545952  0.53973113  1
  Zn  Zn92  1  0.80848103  0.05633026  0.07479541  1
  Zn  Zn93  1  0.81619873  0.03813081  0.56982012  1
  Zn  Zn94  1  0.80677783  0.55210873  0.04957156  1
  Zn  Zn95  1  0.83661514  0.52638556  0.59369226  1
  Zn  Zn96  1  0.45272446  0.43000246  0.19165892  1
  Zn  Zn97  1  0.42844773  0.44208894  0.68192003  1
  Zn  Zn98  1  0.43725204  0.93968445  0.18205352  1
  Zn  Zn99  1  0.45524499  0.94339918  0.68193679  1
  Zn  Zn100  1  0.97576731  0.41175854  0.11201394  1
  Zn  Zn101  1  0.94025867  0.43773578  0.70671176  1
  Zn  Zn102  1  0.92711499  0.93527117  0.18586141  1
  Zn  Zn103  1  0.93234532  0.92624484  0.67568883  1
  Zn  Zn104  1  0.06444457  0.06321812  0.31805906  1
  Zn  Zn105  1  0.04613034  0.05663512  0.81701135  1
  Zn  Zn106  1  0.06435381  0.54803198  0.29944585  1
  Zn  Zn107  1  0.10406560  0.58508540  0.78986754  1
  Zn  Zn108  1  0.55767253  0.07453947  0.33897535  1
  Zn  Zn109  1  0.55434445  0.08122780  0.80460609  1
  Zn  Zn110  1  0.56429081  0.56020632  0.31525742  1
  Zn  Zn111  1  0.53249180  0.57233606  0.81882201  1
  Zn  Zn112  1  0.45259618  0.19773958  0.45905984  1
  Zn  Zn113  1  0.48701546  0.22099117  0.95109466  1
  Zn  Zn114  1  0.42381409  0.69125603  0.41983510  1
  Zn  Zn115  1  0.45058551  0.71825365  0.97480745  1
  Zn  Zn116  1  0.94561877  0.14983503  0.43888605  1
  Zn  Zn117  1  0.92210765  0.18130358  0.94701847  1
  Zn  Zn118  1  0.96387225  0.64405246  0.42046420  1
  Zn  Zn119  1  0.95534815  0.64483480  0.86533010  1
  Zn  Zn120  1  0.05141371  0.30542700  -0.03513769  1
  Zn  Zn121  1  0.09697936  0.29365604  0.59381726  1
  Zn  Zn122  1  0.05882074  0.79849716  0.05840782  1
  Zn  Zn123  1  0.06014444  0.78802418  0.55698482  1
  Zn  Zn124  1  0.59029875  0.28115034  0.11912365  1
  Zn  Zn125  1  0.54444533  0.34995193  0.60766090  1
  Zn  Zn126  1  0.56081917  0.81843283  0.06457601  1
  Zn  Zn127  1  0.59262435  0.84157803  0.55532999  1
  O  O128  1  0.08343623  0.19040770  0.14753098  1
  O  O129  1  0.12955544  0.09545024  0.61384671  1
  O  O130  1  0.11761421  0.62437078  0.09160864  1
  O  O131  1  0.12057552  0.61138048  0.63959048  1
  O  O132  1  0.62200010  0.11955164  0.16091132  1
  O  O133  1  0.61083717  0.13217048  0.61491672  1
  O  O134  1  0.61180204  0.62883937  0.11605493  1
  O  O135  1  0.62921668  0.61570213  0.60866066  1
  O  O136  1  0.35177093  0.39772362  0.38445815  1
  O  O137  1  0.41721634  0.36935064  0.85444665  1
  O  O138  1  0.39351085  0.85486593  0.36150148  1
  O  O139  1  0.39040100  0.88213613  0.89512380  1
  O  O140  1  0.87619646  0.39810708  0.37766188  1
  O  O141  1  0.85475003  0.35565607  0.86986679  1
  O  O142  1  0.87220904  0.87612153  0.37111409  1
  O  O143  1  0.85691353  0.82577593  0.91853663  1
  O  O144  1  0.26618664  -0.05164422  0.34559728  1
  O  O145  1  0.25497597  -0.04770630  0.82919254  1
  O  O146  1  0.25368829  0.51661491  0.37382433  1
  O  O147  1  0.26783583  0.48796132  0.85794220  1
  O  O148  1  0.76097529  -0.01049725  0.37046575  1
  O  O149  1  0.80230137  0.05523551  0.88426450  1
  O  O150  1  0.76446461  0.52659273  0.37010336  1
  O  O151  1  0.72605507  0.51750780  0.86722114  1
  O  O152  1  0.24167038  0.51185030  0.09777372  1
  O  O153  1  0.24254525  0.49753702  0.64067893  1
  O  O154  1  0.23568104  1.02842605  0.15436813  1
  O  O155  1  0.22989214  0.97771423  0.63914615  1
  O  O156  1  0.72386848  0.50941265  0.11538160  1
  O  O157  1  0.73527964  0.51487571  0.65632007  1
  O  O158  1  0.72957638  0.99738288  0.13862838  1
  O  O159  1  0.76893410  0.94798402  0.62160583  1
  O  O160  1  0.03123157  0.37189089  0.20502733  1
  O  O161  1  -0.01384738  0.34740550  0.75653514  1
  O  O162  1  -0.03887179  0.82719472  0.23621760  1
  O  O163  1  0.00348113  0.85975179  0.73923462  1
  O  O164  1  0.49202431  0.35231182  0.26292565  1
  O  O165  1  0.51083345  0.37359632  0.72226758  1
  O  O166  1  0.51080892  0.87587286  0.25180646  1
  O  O167  1  0.50839959  0.89498199  0.77403674  1
  O  O168  1  0.49104820  0.14957324  0.28142258  1
  O  O169  1  0.48903548  0.11829027  0.72257249  1
  O  O170  1  0.50927587  0.63688950  0.23987874  1
  O  O171  1  0.45735334  0.64626851  0.76049997  1
  O  O172  1  0.98243166  0.11679476  0.26366609  1
  O  O173  1  0.97393230  0.12813576  0.77451517  1
  O  O174  1  1.00979216  0.61339545  0.21980365  1
  O  O175  1  1.00566419  0.63361967  0.76174854  1
  O  O176  1  0.40067508  0.26387009  0.00820895  1
  O  O177  1  0.36188278  0.27746281  0.47886357  1
  O  O178  1  0.35644267  0.77293037  0.00269044  1
  O  O179  1  0.35477638  0.76218276  0.48382948  1
  O  O180  1  0.85434164  0.25282186  0.00463323  1
  O  O181  1  0.91659973  0.27589064  0.56035041  1
  O  O182  1  0.86862174  0.78273701  -0.02292422  1
  O  O183  1  0.82991794  0.70050358  0.52523062  1
  O  O184  1  0.10941790  0.21636331  0.51395700  1
  O  O185  1  0.12730989  0.23010716  0.99237667  1
  O  O186  1  0.14339527  0.74705999  0.48504850  1
  O  O187  1  0.13769464  0.73985393  0.99099278  1
  O  O188  1  0.64671862  0.30862462  0.42970316  1
  O  O189  1  0.57851388  0.20815907  1.02562771  1
  O  O190  1  0.62379182  0.74937666  0.48920394  1
  O  O191  1  0.61222259  0.73785457  0.99597571  1
  O  O192  1  0.49372367  0.26464027  0.17737524  1
  O  O193  1  0.50740418  0.24701145  0.61753134  1
  O  O194  1  0.47927996  0.74477345  0.11319977  1
  O  O195  1  0.50874374  0.75207591  0.63318156  1
  O  O196  1  1.01869788  0.22025467  0.13661520  1
  O  O197  1  1.04276336  0.22653465  0.67658619  1
  O  O198  1  0.99322609  0.71910530  0.09392997  1
  O  O199  1  1.01625109  0.73144896  0.64673148  1
  O  O200  1  -0.01131296  0.25392192  0.40849957  1
  O  O201  1  -0.00876149  0.24376988  0.88151873  1
  O  O202  1  0.02003722  0.73219883  0.37915371  1
  O  O203  1  0.01792436  0.75250748  0.86306731  1
  O  O204  1  0.51344706  0.25905585  0.38753453  1
  O  O205  1  0.51612153  0.24404832  0.84516979  1
  O  O206  1  0.51485429  0.74998213  0.37097087  1
  O  O207  1  0.50080656  0.76822855  0.88559515  1
  O  O208  1  0.23105526  0.10163350  0.49433189  1
  O  O209  1  0.25446472  0.11777898  0.98418184  1
  O  O210  1  0.25650836  0.63092790  0.50033047  1
  O  O211  1  0.26704784  0.63691727  0.98028062  1
  O  O212  1  0.75747782  0.10005537  0.49633399  1
  O  O213  1  0.74192114  0.13327736  1.02291609  1
  O  O214  1  0.77570333  0.65246505  0.53313506  1
  O  O215  1  0.72439451  0.62040820  0.98800418  1
  O  O216  1  0.30449791  0.39519516  -0.01737779  1
  O  O217  1  0.26214200  0.40531480  0.51659827  1
  O  O218  1  0.26049604  0.90967935  -0.00639906  1
  O  O219  1  0.26631769  0.87789783  0.51530987  1
  O  O220  1  0.75448378  0.37099881  -0.00158892  1
  O  O221  1  0.75182223  0.40823883  0.51721661  1
  O  O222  1  0.72980500  0.89495626  0.00963067  1
  O  O223  1  0.75590922  0.84662054  0.49788537  1
  O  O224  1  0.13375309  0.48843607  0.20898146  1
  O  O225  1  0.15222573  0.49616774  0.74514573  1
  O  O226  1  0.12213065  0.98755164  0.26454539  1
  O  O227  1  0.09978189  0.99447644  0.73382884  1
  O  O228  1  0.61697924  0.50212470  0.23474257  1
  O  O229  1  0.59780141  0.52696632  0.74109827  1
  O  O230  1  0.62897619  0.99196202  0.24953581  1
  O  O231  1  0.62691419  1.00255189  0.75638146  1
  O  O232  1  0.38339284  0.03295261  0.23008788  1
  O  O233  1  0.37177696  0.00241610  0.72932748  1
  O  O234  1  0.37276716  0.49484926  0.25527947  1
  O  O235  1  0.36476785  0.51534325  0.73259964  1
  O  O236  1  0.86581189  -0.00625677  0.26214012  1
  O  O237  1  0.88976488  0.00669186  0.73805758  1
  O  O238  1  0.87486235  0.48020025  0.23317703  1
  O  O239  1  0.86195472  0.50153530  0.77181986  1
  O  O240  1  0.09879504  0.43622842  0.34703025  1
  O  O241  1  0.10550506  0.38582820  0.88221470  1
  O  O242  1  0.13127744  0.85086204  0.37136484  1
  O  O243  1  0.12471992  0.86634430  0.88695520  1
  O  O244  1  0.65620223  0.36346019  0.38284525  1
  O  O245  1  0.58531585  0.39102385  0.87695129  1
  O  O246  1  0.62117822  0.85211019  0.35851251  1
  O  O247  1  0.61170352  0.85859891  0.86739526  1
  O  O248  1  0.38017043  0.10336404  0.18221388  1
  O  O249  1  0.42421131  0.13610689  0.55500911  1
  O  O250  1  0.38286116  0.64208396  0.13823853  1
  O  O251  1  0.45463210  0.70917788  0.61140932  1
  O  O252  1  0.86805489  0.11807946  0.14954529  1
  O  O253  1  0.89715708  0.10923875  0.61458520  1
  O  O254  1  0.89145356  0.59625712  0.10725619  1
  O  O255  1  0.89674171  0.60900714  0.64568858  1
  O  O256  1  0.26235668  0.22856964  0.09143365  1
  O  O257  1  0.23107735  0.26444368  0.63288494  1
  O  O258  1  0.25809754  0.74239778  0.10497026  1
  O  O259  1  0.24106716  0.75286971  0.60390888  1
  O  O260  1  0.71176709  0.25929358  0.11708614  1
  O  O261  1  0.73868764  0.28787178  0.62424823  1
  O  O262  1  0.74000301  0.76974466  0.11349336  1
  O  O263  1  0.74922065  0.77350096  0.65647389  1
  O  O264  1  0.17692846  0.31011700  0.41326618  1
  O  O265  1  0.25845060  0.26673914  0.90572572  1
  O  O266  1  0.24292485  0.73228347  0.37383648  1
  O  O267  1  0.24445043  0.76774866  0.89017163  1
  O  O268  1  0.78483943  0.22758030  0.40014521  1
  O  O269  1  0.69644923  0.24216958  0.94036677  1
  O  O270  1  0.73120876  0.74237285  0.36268754  1
  O  O271  1  0.71979905  0.74064680  0.86992009  1
  O  O272  1  -0.01363414  0.09801420  -0.00316720  1
  O  O273  1  0.01960297  0.08829103  0.49434323  1
  O  O274  1  0.00767726  0.61165656  -0.03420563  1
  O  O275  1  -0.00251766  0.63130612  0.53041010  1
  O  O276  1  0.47144028  0.10793471  -0.01540131  1
  O  O277  1  0.53341389  0.08512335  0.46212196  1
  O  O278  1  0.50194072  0.62659333  0.01442801  1
  O  O279  1  0.48578521  0.62062291  0.48998575  1
  O  O280  1  0.47551106  0.39125299  0.51342836  1
  O  O281  1  0.47660184  0.40758226  1.01547903  1
  O  O282  1  0.48933787  0.85921726  0.48450020  1
  O  O283  1  0.50492731  0.89097093  0.99393602  1
  O  O284  1  0.96575263  0.33013132  0.55975071  1
  O  O285  1  0.96317733  0.36443855  1.00565980  1
  O  O286  1  1.01375813  0.87136204  0.49188370  1
  O  O287  1  0.99411539  0.88799297  1.00317819  1
  O  O288  1  0.47763921  0.51013557  0.37466218  1
  O  O289  1  0.47275537  0.52257228  0.89743691  1
  O  O290  1  0.51045356  0.96775994  0.37573165  1
  O  O291  1  0.51252693  0.99425657  0.89325696  1
  O  O292  1  0.96476368  0.54033991  0.36262360  1
  O  O293  1  1.05836919  0.43878114  0.86273112  1
  O  O294  1  0.99024177  0.98548020  0.37708848  1
  O  O295  1  0.99006025  0.98708018  0.90095054  1
  O  O296  1  -0.00374599  -0.00805546  0.11100327  1
  O  O297  1  0.01261477  -0.02267909  0.60330174  1
  O  O298  1  0.02667656  0.51272329  0.09353905  1
  O  O299  1  0.01691803  0.50570655  0.64792040  1
  O  O300  1  0.51358212  -0.00060044  0.11870132  1
  O  O301  1  0.50477620  0.00423110  0.59904890  1
  O  O302  1  0.49916991  0.52244826  0.12791620  1
  O  O303  1  0.50595920  0.51059059  0.60809109  1
  O  O304  1  0.21689829  0.35464087  0.24561647  1
  O  O305  1  0.26775623  0.37589731  0.74129458  1
  O  O306  1  0.23620523  0.88207886  0.21540277  1
  O  O307  1  0.27459712  0.85560530  0.71336505  1
  O  O308  1  0.83311744  0.42231853  0.20715588  1
  O  O309  1  0.73993387  0.39879754  0.75099230  1
  O  O310  1  0.73349155  0.88015273  0.24475667  1
  O  O311  1  0.73371940  0.88542756  0.79096217  1
  O  O312  1  0.26022856  0.09149614  0.29259672  1
  O  O313  1  0.24285691  0.09602454  0.75099174  1
  O  O314  1  0.24446481  0.62205025  0.24109611  1
  O  O315  1  0.25303447  0.62238266  0.75756447  1
  O  O316  1  0.76381643  0.10883872  0.26578179  1
  O  O317  1  0.77499089  0.11361061  0.71256161  1
  O  O318  1  0.76678529  0.63562273  0.24327023  1
  O  O319  1  0.74038395  0.62361536  0.76726870  1
  O  O320  1  0.37928348  0.12523470  0.39173981  1
  O  O321  1  0.36358105  0.13559691  0.85861331  1
  O  O322  1  0.35639244  0.61623057  0.36297374  1
  O  O323  1  0.40199536  0.68439769  0.80192988  1
  O  O324  1  0.86792884  0.09919860  0.37209472  1
  O  O325  1  0.84391537  0.11483441  0.87068986  1
  O  O326  1  0.85214618  0.65149480  0.37788665  1
  O  O327  1  0.84484076  0.63821059  0.88867104  1
  O  O328  1  0.13132344  0.39426002  0.07473389  1
  O  O329  1  0.14100926  0.38833839  0.63188463  1
  O  O330  1  0.10298808  0.88057410  0.11373355  1
  O  O331  1  0.13149070  0.87150279  0.61915167  1
  O  O332  1  0.60846429  0.39499710  0.11613104  1
  O  O333  1  0.63608250  0.41687505  0.61636668  1
  O  O334  1  0.62535629  0.88417270  0.13559999  1
  O  O335  1  0.61763310  0.87008669  0.66289316  1
  O  O336  1  0.09426403  0.27306307  0.29187236  1
  O  O337  1  0.09644116  0.22307899  0.74307836  1
  O  O338  1  0.12444370  0.74676631  0.25305445  1
  O  O339  1  0.13406688  0.75857522  0.76363491  1
  O  O340  1  0.62865698  0.25265371  0.26968710  1
  O  O341  1  0.69678411  0.23639850  0.77455387  1
  O  O342  1  0.62358207  0.75969615  0.23590004  1
  O  O343  1  0.60320799  0.73248103  0.76174410  1
  O  O344  1  0.32887319  0.23613387  0.27712438  1
  O  O345  1  0.36317801  0.18361641  0.80516829  1
  O  O346  1  0.35457159  0.76689553  0.23313125  1
  O  O347  1  0.37588591  0.74807138  0.76567472  1
  O  O348  1  0.86980137  0.23158926  0.26142745  1
  O  O349  1  0.88041826  0.23055884  0.74842106  1
  O  O350  1  0.90662886  0.77537712  0.24211444  1
  O  O351  1  0.89377812  0.75051588  0.76498150  1
  O  O352  1  0.38277438  0.50265727  0.48448214  1
  O  O353  1  0.37905576  0.53109748  1.01996308  1
  O  O354  1  0.39543296  0.97367710  0.48841922  1
  O  O355  1  0.39168525  0.99144623  1.02110268  1
  O  O356  1  0.87518810  0.51498767  0.48852163  1
  O  O357  1  0.85841791  0.48164640  0.97322245  1
  O  O358  1  0.89345937  0.98664499  0.48646357  1
  O  O359  1  0.88900114  0.99692629  1.01336936  1
  O  O360  1  0.09860276  0.00150407  0.00889840  1
  O  O361  1  0.12040119  -0.00881000  0.49318013  1
  O  O362  1  0.14532986  0.52394371  -0.01903619  1
  O  O363  1  0.12976906  0.50010854  0.52477059  1
  O  O364  1  0.61110523  0.04052353  0.02447870  1
  O  O365  1  0.61239754  -0.05304326  0.50234667  1
  O  O366  1  0.60191160  0.51830882  0.00870969  1
  O  O367  1  0.59473975  0.50451349  0.47517091  1
  O  O368  1  0.36633150  0.37184346  0.13491702  1
  O  O369  1  0.35981276  0.37426495  0.61401621  1
  O  O370  1  0.37824583  0.86654727  0.11351876  1
  O  O371  1  0.39363127  0.86716111  0.60998808  1
  O  O372  1  0.86312476  0.38422776  0.14289046  1
  O  O373  1  0.85154977  0.41330656  0.63478847  1
  O  O374  1  0.84351981  0.88774384  0.12564392  1
  O  O375  1  0.88987668  0.84765976  0.60396240  1
  O  O376  1  0.11815827  0.14241906  0.38531098  1
  O  O377  1  0.13377596  0.06237746  0.88439985  1
  O  O378  1  0.13932056  0.62348345  0.36005056  1
  O  O379  1  0.13684980  0.64674091  0.88099780  1
  O  O380  1  0.65772350  0.12169795  0.37303134  1
  O  O381  1  0.62402247  0.11459205  0.88667972  1
  O  O382  1  0.64034810  0.63385786  0.36735857  1
  O  O383  1  0.60740578  0.63525436  0.88757097  1
