# generated using pymatgen
data_VZnO4
_symmetry_space_group_name_H-M   'P 1'
_cell_length_a   17.06064957
_cell_length_b   17.10148235
_cell_length_c   16.95613916
_cell_angle_alpha   90.48382294
_cell_angle_beta   90.49364263
_cell_angle_gamma   90.00062592
_symmetry_Int_Tables_number   1
_chemical_formula_structural   VZnO4
_chemical_formula_sum   'V64 Zn64 O256'
_cell_volume   4946.80380917
_cell_formula_units_Z   64
loop_
 _symmetry_equiv_pos_site_id
 _symmetry_equiv_pos_as_xyz
  1  'x, y, z'
loop_
 _atom_site_type_symbol
 _atom_site_label
 _atom_site_symmetry_multiplicity
 _atom_site_fract_x
 _atom_site_fract_y
 _atom_site_fract_z
 _atom_site_occupancy
  V  V0  1  0.25018827  0.87641977  0.61156225  1
  V  V1  1  0.88832811  0.48888069  0.86452710  1
  V  V2  1  0.75653460  0.00658269  0.75397496  1
  V  V3  1  0.61918715  0.26809893  0.37853439  1
  V  V4  1  0.04347556  0.76773555  0.74312982  1
  V  V5  1  0.87121625  0.26326258  0.12780273  1
  V  V6  1  0.49460116  0.49275546  0.50223697  1
  V  V7  1  -0.00285714  0.87396528  0.89197114  1
  V  V8  1  0.15126254  0.76054715  0.36665348  1
  V  V9  1  0.00591817  0.25584825  0.73144544  1
  V  V10  1  0.38180143  -0.01173211  0.86707101  1
  V  V11  1  0.35862724  0.58909808  0.77912032  1
  V  V12  1  0.75042315  0.26542326  -0.00214037  1
  V  V13  1  0.50411193  0.49393485  -0.03981463  1
  V  V14  1  0.38598352  0.76243432  0.62765634  1
  V  V15  1  0.73822369  0.01874191  0.24232119  1
  V  V16  1  0.49747632  -0.01285243  -0.00751138  1
  V  V17  1  -0.00056326  -0.00201778  0.48966085  1
  V  V18  1  0.35069909  0.73333506  0.12279481  1
  V  V19  1  0.60913812  0.50226482  0.16459171  1
  V  V20  1  0.84980406  0.64912479  0.74736592  1
  V  V21  1  0.61155828  0.13615173  -0.00737658  1
  V  V22  1  0.75672334  0.48757999  0.73220731  1
  V  V23  1  0.15557450  0.49549400  0.60012420  1
  V  V24  1  0.85883625  0.73750771  0.13741280  1
  V  V25  1  0.12479620  0.64542347  0.50025609  1
  V  V26  1  0.76492558  0.25425794  0.51262359  1
  V  V27  1  -0.00655227  0.86891327  0.36382479  1
  V  V28  1  0.25010152  0.60745308  0.36863295  1
  V  V29  1  0.13372468  0.00946450  0.60266436  1
  V  V30  1  0.12728109  0.24151508  0.42458056  1
  V  V31  1  0.62157034  0.86455388  0.24017876  1
  V  V32  1  0.15136689  0.50819988  0.15013863  1
  V  V33  1  0.88803859  0.40092246  0.51997684  1
  V  V34  1  0.36324403  0.38255402  -0.01175498  1
  V  V35  1  0.35399330  0.25295512  0.10738720  1
  V  V36  1  0.61568272  0.00101313  0.63360371  1
  V  V37  1  0.48815242  0.62013555  0.63580476  1
  V  V38  1  0.35039691  0.25805906  0.61911854  1
  V  V39  1  0.13421280  0.89258905  0.23645120  1
  V  V40  1  0.61034664  0.26027639  0.86139665  1
  V  V41  1  -0.02513123  0.09763011  0.63853581  1
  V  V42  1  -0.00394825  0.35387528  0.37416399  1
  V  V43  1  0.24808832  0.00038566  0.74832282  1
  V  V44  1  0.62658820  0.61967515  -0.03379374  1
  V  V45  1  0.62568574  0.63234043  0.50084330  1
  V  V46  1  0.49495771  0.13407529  0.62826413  1
  V  V47  1  0.50770041  0.85784738  0.37047930  1
  V  V48  1  0.37397007  0.87596043  0.48314790  1
  V  V49  1  0.14244998  0.59729541  -0.00478638  1
  V  V50  1  0.24869624  0.11995102  0.38074078  1
  V  V51  1  0.50903237  0.25675987  0.22429792  1
  V  V52  1  0.72449490  0.47442745  0.33257927  1
  V  V53  1  0.76371406  0.12748288  0.87204681  1
  V  V54  1  0.63235306  0.12671675  0.49395522  1
  V  V55  1  0.61653814  0.01360766  0.12164999  1
  V  V56  1  0.37361179  0.13367482  0.75413256  1
  V  V57  1  0.88659123  0.12890973  0.23895271  1
  V  V58  1  0.62110414  0.37731697  0.73141523  1
  V  V59  1  0.86513530  0.00624463  0.37229909  1
  V  V60  1  0.61458409  0.86194924  0.75851474  1
  V  V61  1  0.75023081  0.87322393  0.61640134  1
  V  V62  1  0.49732761  0.00755534  0.48438556  1
  V  V63  1  0.38581501  0.61574372  0.25760308  1
  Zn  Zn64  1  0.20841842  0.15192836  0.16341995  1
  Zn  Zn65  1  0.17863477  0.18211190  0.68997174  1
  Zn  Zn66  1  0.18384721  0.68858526  0.19214693  1
  Zn  Zn67  1  0.20715960  0.69727977  0.68574302  1
  Zn  Zn68  1  0.68080142  0.19719642  0.18536468  1
  Zn  Zn69  1  0.68669630  0.18506637  0.68716688  1
  Zn  Zn70  1  0.64589922  0.70331081  0.12407696  1
  Zn  Zn71  1  0.69099400  0.67922669  0.66427409  1
  Zn  Zn72  1  0.37139048  0.14016320  0.25634869  1
  Zn  Zn73  1  0.43269668  0.41431834  0.79937163  1
  Zn  Zn74  1  0.31778341  0.81922882  0.29185616  1
  Zn  Zn75  1  0.44198268  0.80211458  0.80643229  1
  Zn  Zn76  1  0.81207138  0.29501957  0.33534655  1
  Zn  Zn77  1  0.81547333  0.31562617  0.80629838  1
  Zn  Zn78  1  0.81008329  0.83486869  0.28814220  1
  Zn  Zn79  1  0.82442668  0.84847271  0.80959014  1
  Zn  Zn80  1  0.13320491  0.46035893  0.40291569  1
  Zn  Zn81  1  0.16032808  0.39233137  1.03040195  1
  Zn  Zn82  1  0.18817082  0.94225630  0.42209097  1
  Zn  Zn83  1  0.17235859  0.97036655  0.92934640  1
  Zn  Zn84  1  0.68938568  0.44869159  0.54425178  1
  Zn  Zn85  1  0.69619386  0.44388243  0.91453999  1
  Zn  Zn86  1  0.68124733  0.94173930  0.42914715  1
  Zn  Zn87  1  0.67186527  0.95001794  0.92479503  1
  Zn  Zn88  1  0.33644027  0.05452467  0.06612248  1
  Zn  Zn89  1  0.31951786  0.06641630  0.55198698  1
  Zn  Zn90  1  0.32181950  0.55111635  0.06884889  1
  Zn  Zn91  1  0.31506653  0.58693521  0.53837983  1
  Zn  Zn92  1  0.79634663  0.08071294  0.06701829  1
  Zn  Zn93  1  0.80290537  0.03826720  0.55701225  1
  Zn  Zn94  1  0.82420959  0.57736268  0.00924521  1
  Zn  Zn95  1  0.82852111  0.58925365  0.55610219  1
  Zn  Zn96  1  0.42577848  0.42607523  0.19178045  1
  Zn  Zn97  1  0.35871225  0.46364789  0.63240800  1
  Zn  Zn98  1  0.45113548  0.93837388  0.18232137  1
  Zn  Zn99  1  0.43807231  0.94124017  0.68241567  1
  Zn  Zn100  1  0.84600340  0.44444057  0.22903076  1
  Zn  Zn101  1  0.96205551  0.44705904  0.70084774  1
  Zn  Zn102  1  0.93485861  0.93728619  0.19411849  1
  Zn  Zn103  1  0.95415365  0.89389303  0.66218035  1
  Zn  Zn104  1  0.06795564  0.06819459  0.31130160  1
  Zn  Zn105  1  0.04322136  -0.00782642  0.78126766  1
  Zn  Zn106  1  0.00752609  0.52324674  0.27502360  1
  Zn  Zn107  1  0.06340076  0.56508369  0.79889150  1
  Zn  Zn108  1  0.55483343  0.08380942  0.30824717  1
  Zn  Zn109  1  0.56106801  0.07172239  0.81291488  1
  Zn  Zn110  1  0.55845797  0.56971749  0.33143916  1
  Zn  Zn111  1  0.56753168  0.57209024  0.78410182  1
  Zn  Zn112  1  0.42824667  0.19937562  0.43512484  1
  Zn  Zn113  1  0.43214294  0.19978205  0.93087172  1
  Zn  Zn114  1  0.43537436  0.68382363  0.44197204  1
  Zn  Zn115  1  0.43008077  0.66763710  0.94478501  1
  Zn  Zn116  1  0.94136698  0.17468808  0.44118383  1
  Zn  Zn117  1  0.92815085  0.28738875  0.92099513  1
  Zn  Zn118  1  0.95886335  0.65578805  0.39786733  1
  Zn  Zn119  1  0.98380431  0.67022026  0.89074864  1
  Zn  Zn120  1  0.01075065  0.37749251  0.16814532  1
  Zn  Zn121  1  0.06467070  0.32740021  0.57620913  1
  Zn  Zn122  1  0.11099857  0.81663665  0.04183087  1
  Zn  Zn123  1  0.06333467  0.81712864  0.54833776  1
  Zn  Zn124  1  0.58328225  0.33990514  0.05882332  1
  Zn  Zn125  1  0.55911302  0.31014372  0.56255978  1
  Zn  Zn126  1  0.56696968  0.79435799  -0.05767919  1
  Zn  Zn127  1  0.56479238  0.81878697  0.56341295  1
  O  O128  1  0.09274495  0.16391098  0.11559838  1
  O  O129  1  0.11482254  0.10534553  0.62332152  1
  O  O130  1  0.13536607  0.61114802  0.12233335  1
  O  O131  1  0.14331792  0.65163168  0.59983483  1
  O  O132  1  0.62731032  0.11949911  0.10845444  1
  O  O133  1  0.60904414  0.11909043  0.62139402  1
  O  O134  1  0.63793567  0.59062379  0.12141982  1
  O  O135  1  0.58470508  0.63103864  0.67089591  1
  O  O136  1  0.38740687  0.37085853  0.37839582  1
  O  O137  1  0.38087695  0.37364808  0.88878897  1
  O  O138  1  0.39166082  0.87556834  0.37778004  1
  O  O139  1  0.38188600  0.89235004  0.86106618  1
  O  O140  1  0.89207560  0.35547874  0.39660544  1
  O  O141  1  0.87849666  0.38532632  0.88124449  1
  O  O142  1  0.88384763  0.89562706  0.34919330  1
  O  O143  1  0.89887552  0.89401549  0.88354689  1
  O  O144  1  0.23889737  0.02036388  0.36297794  1
  O  O145  1  0.26043580  -0.00388123  0.85520379  1
  O  O146  1  0.23291080  0.50996247  0.37321464  1
  O  O147  1  0.18240146  0.41102844  0.83932098  1
  O  O148  1  0.75905312  -0.00054564  0.35967412  1
  O  O149  1  0.73601296  0.01713750  0.86365670  1
  O  O150  1  0.71854992  0.47757327  0.43235760  1
  O  O151  1  0.77709868  0.49824603  0.85725605  1
  O  O152  1  0.25018787  0.49481306  0.14262812  1
  O  O153  1  0.25501792  0.51945923  0.61457419  1
  O  O154  1  0.31563204  0.99616418  0.16463749  1
  O  O155  1  0.24253204  1.00255654  0.61278335  1
  O  O156  1  0.79270769  0.48518319  0.07755826  1
  O  O157  1  0.75210287  0.49676493  0.63172055  1
  O  O158  1  0.73508526  1.00621300  0.13464143  1
  O  O159  1  0.73110106  1.00245604  0.64132266  1
  O  O160  1  -0.00313402  0.33532874  0.27629420  1
  O  O161  1  0.02856976  0.34647969  0.69192363  1
  O  O162  1  0.00972356  0.88304863  0.25895298  1
  O  O163  1  0.00721692  0.88049785  0.76488497  1
  O  O164  1  0.49382437  0.35128383  0.25365622  1
  O  O165  1  0.52247770  0.37910382  0.73900433  1
  O  O166  1  0.50889287  0.88242260  0.26316755  1
  O  O167  1  0.50953019  0.87738150  0.74681294  1
  O  O168  1  0.48704410  0.15062738  0.25350789  1
  O  O169  1  0.48760729  0.11916542  0.73501241  1
  O  O170  1  0.48420986  0.63169600  0.27142157  1
  O  O171  1  0.45277770  0.62640242  0.74444703  1
  O  O172  1  0.98422692  0.11711301  0.24228655  1
  O  O173  1  0.99335036  0.08049219  0.73654612  1
  O  O174  1  0.97215645  0.62390252  0.29494428  1
  O  O175  1  1.02680040  0.66701982  0.75074976  1
  O  O176  1  0.38082467  0.27137485  -0.00080816  1
  O  O177  1  0.37191287  0.24502909  0.52131295  1
  O  O178  1  0.36731897  0.71522874  0.02464992  1
  O  O179  1  0.38402109  0.77488369  0.50055935  1
  O  O180  1  0.85950157  0.25456714  0.00803263  1
  O  O181  1  0.85810404  0.22305058  0.49952265  1
  O  O182  1  0.88729763  0.76609086  0.04571408  1
  O  O183  1  0.84429766  0.78152296  0.48142395  1
  O  O184  1  0.11724514  0.23922064  0.52529741  1
  O  O185  1  0.09124111  0.20655327  1.05604210  1
  O  O186  1  0.12421524  0.75575700  0.47649678  1
  O  O187  1  0.10253588  0.70539978  1.00278216  1
  O  O188  1  0.62900860  0.23643892  0.50089193  1
  O  O189  1  0.63308417  0.25130486  0.98047051  1
  O  O190  1  0.61280615  0.73265168  0.51388894  1
  O  O191  1  0.61047047  0.71772330  1.01436591  1
  O  O192  1  0.53927584  0.26056209  0.12860380  1
  O  O193  1  0.49707290  0.23321779  0.62205043  1
  O  O194  1  0.45702709  0.78879422  0.12195675  1
  O  O195  1  0.48740042  0.75924047  0.62541727  1
  O  O196  1  0.96888779  0.27854785  0.12051022  1
  O  O197  1  0.97923812  0.20567687  0.64309870  1
  O  O198  1  0.95248940  0.71600842  0.17211252  1
  O  O199  1  1.00889607  0.78991095  0.64290164  1
  O  O200  1  0.01549626  0.24304701  0.39630395  1
  O  O201  1  0.04529326  0.29770204  0.93163636  1
  O  O202  1  -0.01711727  0.77228650  0.37422228  1
  O  O203  1  0.01557563  0.77340640  0.85603970  1
  O  O204  1  0.51866631  0.24859840  0.39225751  1
  O  O205  1  0.51241557  0.25612614  0.86657456  1
  O  O206  1  0.50156544  0.76159614  0.37872216  1
  O  O207  1  0.48499040  0.74349531  0.88584676  1
  O  O208  1  0.24917650  0.11607576  0.48364627  1
  O  O209  1  0.22068467  0.08142588  1.05817500  1
  O  O210  1  0.24319011  0.64050498  0.47430318  1
  O  O211  1  0.24154649  0.60026286  0.99935482  1
  O  O212  1  0.73129836  0.11526408  0.50820893  1
  O  O213  1  0.73439186  0.12882603  0.98301332  1
  O  O214  1  0.71703248  0.62598332  0.55247063  1
  O  O215  1  0.72709999  0.61643064  0.97877400  1
  O  O216  1  0.26287246  0.38730613  -0.00895679  1
  O  O217  1  0.33487575  0.38636320  0.42397108  1
  O  O218  1  0.26192493  0.81805752  -0.05984119  1
  O  O219  1  0.26988511  0.89285679  0.49586333  1
  O  O220  1  0.74092031  0.36219181  -0.01072756  1
  O  O221  1  0.78034869  0.35836526  0.51604424  1
  O  O222  1  0.74927049  0.87121264  -0.01989264  1
  O  O223  1  0.73338447  0.89843539  0.51870179  1
  O  O224  1  0.12008753  0.51416340  0.24621169  1
  O  O225  1  0.11543471  0.51732380  0.70432860  1
  O  O226  1  0.11709256  0.99259270  0.24195825  1
  O  O227  1  0.14737450  0.99870795  0.72881241  1
  O  O228  1  0.63545737  0.50631885  0.27206091  1
  O  O229  1  0.64231447  0.48330141  0.75460926  1
  O  O230  1  0.62900995  1.02220519  0.24173336  1
  O  O231  1  0.61955853  1.00015136  0.74314813  1
  O  O232  1  0.37216330  0.01507200  0.22095014  1
  O  O233  1  0.37358181  0.00882766  0.75553261  1
  O  O234  1  0.37958783  0.51577705  0.25157173  1
  O  O235  1  0.35898643  0.48831143  0.74979464  1
  O  O236  1  0.85877179  0.01195320  0.24365693  1
  O  O237  1  0.85048475  -0.00825759  0.75700899  1
  O  O238  1  0.79789274  0.53339278  0.30367811  1
  O  O239  1  0.86072467  0.50049934  0.74329251  1
  O  O240  1  0.11331900  0.34631252  0.40045487  1
  O  O241  1  0.19087004  0.22201441  0.93724034  1
  O  O242  1  0.11302466  0.87107945  0.36689287  1
  O  O243  1  0.19098631  0.86391417  0.97140055  1
  O  O244  1  0.62248033  0.36318931  0.37809766  1
  O  O245  1  0.63378165  0.36138438  0.85858751  1
  O  O246  1  0.61432285  0.87555612  0.36138315  1
  O  O247  1  0.62042161  0.86804700  0.86595107  1
  O  O248  1  0.37833796  0.15362705  0.09185252  1
  O  O249  1  0.38576367  0.12358013  0.62802334  1
  O  O250  1  0.36574040  0.62688985  0.14661685  1
  O  O251  1  0.37857518  0.65672647  0.60986174  1
  O  O252  1  0.86920225  0.13912927  0.13280557  1
  O  O253  1  0.87814854  0.08478331  0.62902872  1
  O  O254  1  0.84840591  0.63710732  0.11232221  1
  O  O255  1  0.87991943  0.63319032  0.65191175  1
  O  O256  1  0.25389031  0.24792472  0.11366357  1
  O  O257  1  0.25269700  0.24048359  0.63075697  1
  O  O258  1  0.25122442  0.75309922  0.12373694  1
  O  O259  1  0.26249110  0.77543059  0.61295771  1
  O  O260  1  0.74283252  0.24144599  0.10051613  1
  O  O261  1  0.74603311  0.23694838  0.61023207  1
  O  O262  1  0.75697196  0.74523258  0.11314423  1
  O  O263  1  0.74022890  0.77589922  0.62546518  1
  O  O264  1  0.22556090  0.24051980  0.40061581  1
  O  O265  1  0.19876805  0.16000405  0.90105403  1
  O  O266  1  0.24838864  0.77307940  0.37413182  1
  O  O267  1  0.24638918  0.75148494  0.91465781  1
  O  O268  1  0.73113665  0.24827834  0.40153935  1
  O  O269  1  0.75345400  0.24116334  0.87925706  1
  O  O270  1  0.81557995  0.72512984  0.44259643  1
  O  O271  1  0.76579258  0.81466899  0.93379130  1
  O  O272  1  -0.00101041  0.09166092  -0.02140471  1
  O  O273  1  -0.01156013  0.09973626  0.51704708  1
  O  O274  1  0.02998502  0.66417958  -0.00018378  1
  O  O275  1  0.02608744  0.63688917  0.48758454  1
  O  O276  1  0.51100853  0.13032960  -0.01478365  1
  O  O277  1  0.50281908  0.11521965  0.50914675  1
  O  O278  1  0.50994315  0.59481609  -0.00632187  1
  O  O279  1  0.50246973  0.62722511  0.52147892  1
  O  O280  1  0.50562004  0.39418507  0.51384450  1
  O  O281  1  0.51073560  0.39624182  0.99259846  1
  O  O282  1  0.50141447  0.88856044  0.48359411  1
  O  O283  1  0.50947969  0.89145768  0.98902789  1
  O  O284  1  0.98823744  0.37060996  0.50425891  1
  O  O285  1  1.05625100  0.35472688  0.98265869  1
  O  O286  1  1.00013867  0.88898929  0.47942560  1
  O  O287  1  1.01609290  0.85446773  0.98900539  1
  O  O288  1  0.49514727  0.50916022  0.40361570  1
  O  O289  1  0.49795777  0.49855724  0.85760828  1
  O  O290  1  0.50540570  1.00610862  0.38407506  1
  O  O291  1  0.49012982  1.00759923  0.87941128  1
  O  O292  1  1.02074429  0.45940647  0.37166540  1
  O  O293  1  0.98561591  0.48134188  0.81469059  1
  O  O294  1  0.98999123  0.99906014  0.37572525  1
  O  O295  1  1.06649711  0.95914446  0.88677465  1
  O  O296  1  -0.05604360  -0.01787393  0.08449263  1
  O  O297  1  0.01644018  -0.01289894  0.61198290  1
  O  O298  1  -0.05198067  0.46890730  0.19493428  1
  O  O299  1  0.05040127  0.51443165  0.64606755  1
  O  O300  1  0.49942699  0.00570531  0.10045808  1
  O  O301  1  0.50475413  0.00706992  0.61460896  1
  O  O302  1  0.51057385  0.49766679  0.15769462  1
  O  O303  1  0.47858611  0.52136081  0.63429839  1
  O  O304  1  0.26165249  0.36272140  0.27797460  1
  O  O305  1  0.19533947  0.35458485  0.79613092  1
  O  O306  1  0.23403358  0.88463742  0.25369097  1
  O  O307  1  0.26722946  0.90098655  0.71528472  1
  O  O308  1  0.76183959  0.38673709  0.28826274  1
  O  O309  1  0.74834722  0.38129554  0.74319006  1
  O  O310  1  0.72349964  0.89646767  0.25206765  1
  O  O311  1  0.73169916  0.89304882  0.74919962  1
  O  O312  1  0.25570478  0.14308008  0.26121728  1
  O  O313  1  0.26526159  0.10902212  0.73643474  1
  O  O314  1  0.25617082  0.63194350  0.26744046  1
  O  O315  1  0.27550746  0.63213572  0.74332645  1
  O  O316  1  0.75219346  0.11880686  0.24669953  1
  O  O317  1  0.74664724  0.11819068  0.75989730  1
  O  O318  1  0.77330138  0.50755058  0.14602624  1
  O  O319  1  0.75039764  0.61380050  0.74346612  1
  O  O320  1  0.35718462  0.13729984  0.37408425  1
  O  O321  1  0.37995886  0.12484037  0.85746527  1
  O  O322  1  0.35993706  0.62876789  0.37202975  1
  O  O323  1  0.36083749  0.60076463  0.87783357  1
  O  O324  1  0.87897236  0.11024151  0.35721666  1
  O  O325  1  0.85782709  0.12088505  0.88170111  1
  O  O326  1  0.85599082  0.64963778  0.45215679  1
  O  O327  1  0.89810785  0.61615604  0.83915983  1
  O  O328  1  0.11550516  0.40211626  0.13494687  1
  O  O329  1  0.15568015  0.39842282  0.59066370  1
  O  O330  1  0.11723634  0.86765236  0.14000290  1
  O  O331  1  0.14751543  0.88817233  0.60258436  1
  O  O332  1  0.64198592  0.41748808  0.12041183  1
  O  O333  1  0.63357848  0.37284685  0.62798566  1
  O  O334  1  0.60980535  0.90534311  0.14337717  1
  O  O335  1  0.62585404  0.88770442  0.63609311  1
  O  O336  1  0.20441977  0.33373561  0.24582934  1
  O  O337  1  0.09477673  0.21756496  0.76001684  1
  O  O338  1  0.12841563  0.76310660  0.26410556  1
  O  O339  1  0.14212732  0.77353110  0.74241084  1
  O  O340  1  0.61642812  0.24022870  0.26924949  1
  O  O341  1  0.63160693  0.26111808  0.75377040  1
  O  O342  1  0.62751760  0.76853888  0.21868328  1
  O  O343  1  0.62810118  0.76803822  0.74244788  1
  O  O344  1  0.39425958  0.25210432  0.20751546  1
  O  O345  1  0.37169632  0.23031154  0.73621809  1
  O  O346  1  0.37052405  0.73805757  0.23686833  1
  O  O347  1  0.36844716  0.77239797  0.72552474  1
  O  O348  1  0.86246827  0.23275037  0.24603692  1
  O  O349  1  0.92757144  0.26128276  0.80112834  1
  O  O350  1  0.82374472  0.72907841  0.24017066  1
  O  O351  1  0.84663833  0.74856375  0.76398250  1
  O  O352  1  0.38767364  0.50144736  0.52195104  1
  O  O353  1  0.39557055  0.48774848  1.00342447  1
  O  O354  1  0.39379312  0.99149354  0.49962792  1
  O  O355  1  0.38606796  1.00167809  0.97949375  1
  O  O356  1  0.87784561  0.49826762  0.50321684  1
  O  O357  1  0.90729884  0.52543484  0.95835750  1
  O  O358  1  0.87470609  0.99884048  0.47518288  1
  O  O359  1  0.88231829  0.99028373  1.04101033  1
  O  O360  1  0.16203981  0.03552766  0.02969291  1
  O  O361  1  0.11697292  0.00023418  0.49867663  1
  O  O362  1  0.11594111  0.50325949  0.03151400  1
  O  O363  1  0.13369966  0.52826641  0.50141669  1
  O  O364  1  0.61056592  0.01311511  -0.00119663  1
  O  O365  1  0.61219614  0.00980129  0.50797639  1
  O  O366  1  0.61553432  0.50632304  -0.03269124  1
  O  O367  1  0.59853967  0.52347795  0.53079041  1
  O  O368  1  0.37905849  0.36442294  0.10582055  1
  O  O369  1  0.36768519  0.35386455  0.63866451  1
  O  O370  1  0.40110853  0.84623768  0.12115785  1
  O  O371  1  0.37431536  0.87858159  0.60453849  1
  O  O372  1  0.83860972  0.35260339  0.14920024  1
  O  O373  1  0.89386948  0.39622683  0.61994324  1
  O  O374  1  0.86694503  0.84092392  0.16348709  1
  O  O375  1  0.84884676  0.89351182  0.62836470  1
  O  O376  1  0.12947627  0.13896851  0.37425616  1
  O  O377  1  0.03235771  0.13603830  0.93338864  1
  O  O378  1  0.14375549  0.65110318  0.37410455  1
  O  O379  1  0.11817322  0.58820716  0.89490148  1
  O  O380  1  0.62290490  0.12137227  0.39416069  1
  O  O381  1  0.62695012  0.14511520  0.87367837  1
  O  O382  1  0.63417931  0.62374754  0.40182439  1
  O  O383  1  0.61370832  0.63633377  0.86849769  1
