# generated using pymatgen
data_VZnO4
_symmetry_space_group_name_H-M   'P 1'
_cell_length_a   16.85997745
_cell_length_b   16.88199423
_cell_length_c   16.94924300
_cell_angle_alpha   89.65248529
_cell_angle_beta   90.55258259
_cell_angle_gamma   89.97638918
_symmetry_Int_Tables_number   1
_chemical_formula_structural   VZnO4
_chemical_formula_sum   'V64 Zn64 O256'
_cell_volume   4823.95012010
_cell_formula_units_Z   64
loop_
 _symmetry_equiv_pos_site_id
 _symmetry_equiv_pos_as_xyz
  1  'x, y, z'
loop_
 _atom_site_type_symbol
 _atom_site_label
 _atom_site_symmetry_multiplicity
 _atom_site_fract_x
 _atom_site_fract_y
 _atom_site_fract_z
 _atom_site_occupancy
  V  V0  1  0.00386793  0.01471090  0.47568257  1
  V  V1  1  0.12698249  0.02636539  0.63441109  1
  V  V2  1  0.63017558  0.88231456  0.75060449  1
  V  V3  1  -0.03411769  0.24841741  0.24633383  1
  V  V4  1  0.87690148  0.87535403  0.50565431  1
  V  V5  1  0.24995315  0.60656327  0.87415910  1
  V  V6  1  0.19118209  0.18200989  0.41431875  1
  V  V7  1  0.48914590  0.61126307  0.10867600  1
  V  V8  1  0.62984933  0.88324636  0.25283053  1
  V  V9  1  0.11083380  0.62594450  -0.00087474  1
  V  V10  1  0.86171463  0.37244820  0.51193172  1
  V  V11  1  -0.01314889  0.38466273  0.37855533  1
  V  V12  1  0.74658070  0.37929234  0.13885839  1
  V  V13  1  0.11438199  0.76434765  0.86375692  1
  V  V14  1  0.77250776  0.12562956  0.87868122  1
  V  V15  1  0.23845763  0.37828035  0.11782401  1
  V  V16  1  0.61938910  0.52505630  0.62414496  1
  V  V17  1  0.56920447  0.11819190  0.13261831  1
  V  V18  1  0.49332333  0.86196591  0.37417601  1
  V  V19  1  -0.00064488  0.64387576  0.61524087  1
  V  V20  1  0.88178451  0.38728668  0.00157705  1
  V  V21  1  0.25144450  0.75877152  0.00157396  1
  V  V22  1  0.62600412  0.50392165  0.09498320  1
  V  V23  1  0.49167604  0.14802357  0.63237071  1
  V  V24  1  0.38652980  0.37490905  0.48440642  1
  V  V25  1  0.12889860  0.62836474  0.48584941  1
  V  V26  1  0.73855373  0.87833063  0.11280553  1
  V  V27  1  0.75502456  0.50348913  0.74436638  1
  V  V28  1  0.36806849  0.02818152  0.91386166  1
  V  V29  1  -0.02769287  0.12238240  0.12585979  1
  V  V30  1  0.49419515  0.51767830  0.49394234  1
  V  V31  1  0.26279565  0.00821566  0.74688385  1
  V  V32  1  0.14400117  -0.00008385  0.12851060  1
  V  V33  1  0.49521996  0.25131173  0.77815786  1
  V  V34  1  0.00232121  0.74551838  0.25019940  1
  V  V35  1  -0.00838339  0.36767973  0.85995612  1
  V  V36  1  0.63143329  0.13533985  0.51002562  1
  V  V37  1  0.88651048  0.63470860  0.74875874  1
  V  V38  1  0.49852007  -0.00183685  0.50543763  1
  V  V39  1  0.47473924  0.86336259  0.88165987  1
  V  V40  1  0.50997198  0.38851224  0.88109615  1
  V  V41  1  0.13926739  0.35779124  0.74868128  1
  V  V42  1  0.73699092  0.62623870  0.38884297  1
  V  V43  1  0.88340946  0.88603978  -0.00474561  1
  V  V44  1  0.73801152  0.35546764  0.63455490  1
  V  V45  1  0.11070983  0.47795846  0.61678057  1
  V  V46  1  0.11376986  0.37070279  0.25031208  1
  V  V47  1  0.12095992  0.12664744  -0.00229289  1
  V  V48  1  0.24692195  0.24420736  -0.00527624  1
  V  V49  1  0.10839810  0.51230032  0.12275540  1
  V  V50  1  0.86450289  0.61784829  0.25573461  1
  V  V51  1  0.75301788  0.63036115  0.88126683  1
  V  V52  1  0.12654723  0.87611220  0.25406394  1
  V  V53  1  0.35825942  0.74190991  0.63037630  1
  V  V54  1  0.50407069  0.73616508  0.24457121  1
  V  V55  1  0.37362770  0.01223600  0.36163331  1
  V  V56  1  0.26071840  0.50695658  0.25489624  1
  V  V57  1  0.26589364  0.37305502  0.61567958  1
  V  V58  1  0.37593917  0.25957064  0.15175148  1
  V  V59  1  0.37751858  0.77284922  0.11836674  1
  V  V60  1  0.61886553  0.75041574  0.88544392  1
  V  V61  1  0.37431477  0.38646580  -0.00835777  1
  V  V62  1  0.74201214  0.25875957  -0.00641533  1
  V  V63  1  0.87104394  0.74112784  0.11427611  1
  Zn  Zn64  1  0.18350792  0.18650574  0.19445083  1
  Zn  Zn65  1  0.31793709  0.18886895  0.68136373  1
  Zn  Zn66  1  0.19400845  0.69154114  0.18751201  1
  Zn  Zn67  1  0.17085793  0.67300497  0.69505350  1
  Zn  Zn68  1  0.77316871  0.17766257  0.17724144  1
  Zn  Zn69  1  0.67070213  0.17133246  0.70526874  1
  Zn  Zn70  1  0.68798067  0.68415375  0.17959866  1
  Zn  Zn71  1  0.67137538  0.68246455  0.71289797  1
  Zn  Zn72  1  0.30130452  0.34068803  0.31860574  1
  Zn  Zn73  1  0.31487332  0.30920396  0.81500036  1
  Zn  Zn74  1  0.33546833  0.86634949  0.26246176  1
  Zn  Zn75  1  0.28101977  0.81355483  0.81171741  1
  Zn  Zn76  1  0.81371899  0.44484913  0.32104969  1
  Zn  Zn77  1  0.79559493  0.32890525  0.82848437  1
  Zn  Zn78  1  0.80710333  0.79805461  0.30862187  1
  Zn  Zn79  1  0.81407664  0.80646496  0.80545167  1
  Zn  Zn80  1  0.18405760  0.43978138  0.43825471  1
  Zn  Zn81  1  0.15556844  0.43732836  0.93067938  1
  Zn  Zn82  1  0.16859003  0.98829219  0.41078200  1
  Zn  Zn83  1  0.18970604  0.94684150  0.93382633  1
  Zn  Zn84  1  0.68452854  0.44579772  0.45078133  1
  Zn  Zn85  1  0.69415516  0.44363912  0.93327087  1
  Zn  Zn86  1  0.67430845  0.89797931  0.44754991  1
  Zn  Zn87  1  0.72976047  0.91913714  0.89535325  1
  Zn  Zn88  1  0.31812500  0.07512777  0.08784527  1
  Zn  Zn89  1  0.31332683  0.05481612  0.55123919  1
  Zn  Zn90  1  0.30023059  0.56515406  0.05985902  1
  Zn  Zn91  1  0.30216607  0.55065509  0.56228303  1
  Zn  Zn92  1  0.78240617  0.05040186  0.04303087  1
  Zn  Zn93  1  0.80056260  0.03893521  0.49290597  1
  Zn  Zn94  1  0.81652375  0.55803407  0.06350472  1
  Zn  Zn95  1  0.82253394  0.55525142  0.56245167  1
  Zn  Zn96  1  0.44152612  0.42855162  0.17951082  1
  Zn  Zn97  1  0.45830388  0.42399309  0.68021095  1
  Zn  Zn98  1  0.46638588  0.95446814  0.18135884  1
  Zn  Zn99  1  0.43067269  0.92182282  0.70023723  1
  Zn  Zn100  1  0.93344805  0.44046751  0.17928058  1
  Zn  Zn101  1  0.92998047  0.43167267  0.68452045  1
  Zn  Zn102  1  0.94227945  0.92620038  0.17550917  1
  Zn  Zn103  1  1.00262919  0.85791406  0.61467730  1
  Zn  Zn104  1  0.04995664  0.06288017  0.29666189  1
  Zn  Zn105  1  0.15061706  0.15347212  0.78420107  1
  Zn  Zn106  1  0.05765059  0.56185947  0.30412978  1
  Zn  Zn107  1  0.06722730  0.54488042  0.81057698  1
  Zn  Zn108  1  0.61926367  0.09451977  0.30141780  1
  Zn  Zn109  1  0.52353331  0.04085557  0.79939910  1
  Zn  Zn110  1  0.55460653  0.57262594  0.31836752  1
  Zn  Zn111  1  0.58282682  0.54527858  0.82970185  1
  Zn  Zn112  1  0.35651987  0.19383380  0.42658984  1
  Zn  Zn113  1  0.44977321  0.20037196  0.97677788  1
  Zn  Zn114  1  0.45606714  0.71353875  0.45620500  1
  Zn  Zn115  1  0.43265711  0.68254913  0.93486091  1
  Zn  Zn116  1  1.00035779  0.22676001  0.46412048  1
  Zn  Zn117  1  0.93454485  0.20139018  0.94732749  1
  Zn  Zn118  1  0.92970763  0.68866854  0.43118972  1
  Zn  Zn119  1  0.93546640  0.68908187  0.93144586  1
  Zn  Zn120  1  0.05612058  0.30388585  0.06792100  1
  Zn  Zn121  1  0.14097613  0.23109262  0.60086137  1
  Zn  Zn122  1  0.05858967  0.81294500  0.06406884  1
  Zn  Zn123  1  0.06289263  0.81691473  0.43004190  1
  Zn  Zn124  1  0.56003650  0.30680564  0.07500934  1
  Zn  Zn125  1  0.56372607  0.31896135  0.55857134  1
  Zn  Zn126  1  0.56312682  0.81115842  0.05724634  1
  Zn  Zn127  1  0.53761211  0.84584251  0.58164033  1
  O  O128  1  0.12385286  0.11201584  0.12787748  1
  O  O129  1  0.09968081  0.12251827  0.61690722  1
  O  O130  1  0.12740629  0.61793520  0.11730953  1
  O  O131  1  0.10597669  0.60916893  0.62340423  1
  O  O132  1  0.67285732  0.11919764  0.13133318  1
  O  O133  1  0.59998125  0.12250192  0.62594258  1
  O  O134  1  0.61824866  0.60551811  0.12894379  1
  O  O135  1  0.62882293  0.62562131  0.62382049  1
  O  O136  1  0.38313546  0.38679860  0.38584231  1
  O  O137  1  0.36934581  0.37803097  0.88973412  1
  O  O138  1  0.39119132  0.85593668  0.36587645  1
  O  O139  1  0.37678458  0.84441340  0.87251057  1
  O  O140  1  0.87697583  0.37693501  0.39383505  1
  O  O141  1  0.88662745  0.37956143  0.87965873  1
  O  O142  1  0.87309777  0.89524299  0.33334873  1
  O  O143  1  0.84753934  0.86994092  0.89749481  1
  O  O144  1  0.27499867  -0.00750831  0.37118959  1
  O  O145  1  0.27073720  0.00733720  0.87007358  1
  O  O146  1  0.24605727  0.48502998  0.35333508  1
  O  O147  1  0.23623284  0.50693620  0.88900353  1
  O  O148  1  0.83794884  -0.03666529  0.30636586  1
  O  O149  1  0.74343104  0.03088061  0.91564397  1
  O  O150  1  0.74140124  0.50872662  0.37610048  1
  O  O151  1  0.73775864  0.51469317  0.85287579  1
  O  O152  1  0.23680386  0.48984478  0.12935193  1
  O  O153  1  0.23632846  0.47953457  0.62646016  1
  O  O154  1  0.24353132  1.00252924  0.13829113  1
  O  O155  1  0.23677594  1.01161794  0.62694011  1
  O  O156  1  0.73373592  0.49477919  0.11656422  1
  O  O157  1  0.73947829  0.50355650  0.63289984  1
  O  O158  1  0.75335673  0.97706756  0.12800336  1
  O  O159  1  0.83438215  0.99202292  0.71337291  1
  O  O160  1  -0.00308847  0.36587662  0.24222200  1
  O  O161  1  -0.00466754  0.36570204  0.75709011  1
  O  O162  1  0.01114581  0.86098124  0.24196368  1
  O  O163  1  -0.02926394  0.88388953  0.77590767  1
  O  O164  1  0.54086147  0.40938036  0.26418167  1
  O  O165  1  0.49034372  0.36403759  0.77214541  1
  O  O166  1  0.51064416  0.86316244  0.25387381  1
  O  O167  1  0.50634274  0.87429763  0.77310681  1
  O  O168  1  0.54952243  0.14710735  0.22772750  1
  O  O169  1  0.48869279  0.13212775  0.73856361  1
  O  O170  1  0.50005386  0.63100747  0.23397852  1
  O  O171  1  0.41779224  0.56825406  0.76426441  1
  O  O172  1  0.98730502  0.13876573  0.23980097  1
  O  O173  1  1.00927766  0.13693425  0.77191485  1
  O  O174  1  0.98852565  0.63709554  0.24713397  1
  O  O175  1  0.99035600  0.61322276  0.74888007  1
  O  O176  1  0.35756442  0.26685164  0.01839920  1
  O  O177  1  0.39504615  0.27269422  0.49504974  1
  O  O178  1  0.36215078  0.74500841  0.00817122  1
  O  O179  1  0.36273735  0.74721933  0.52726294  1
  O  O180  1  0.86101972  0.27205351  0.00113016  1
  O  O181  1  0.91252627  0.28261826  0.51525231  1
  O  O182  1  0.87541278  0.74749979  0.01181873  1
  O  O183  1  0.87218733  0.78505852  0.45880516  1
  O  O184  1  0.12054544  0.22791705  0.47780796  1
  O  O185  1  0.13642288  0.23984839  1.01422583  1
  O  O186  1  0.11659811  0.73040982  0.48687433  1
  O  O187  1  0.13200901  0.74021690  1.00729646  1
  O  O188  1  0.62284258  0.23582500  0.50764655  1
  O  O189  1  0.64301935  0.27331562  0.99899501  1
  O  O190  1  0.67965678  0.77034586  0.51918777  1
  O  O191  1  0.62634474  0.74419481  0.98589899  1
  O  O192  1  0.47103869  0.30947702  0.15115956  1
  O  O193  1  0.49576921  0.24871597  0.63127280  1
  O  O194  1  0.48852578  0.73762175  0.12056708  1
  O  O195  1  0.46391122  0.74916789  0.63929224  1
  O  O196  1  0.99220427  0.23774778  0.13728212  1
  O  O197  1  0.90119983  0.19905168  0.64981010  1
  O  O198  1  0.98048107  0.75432162  0.13314952  1
  O  O199  1  1.01019508  0.74186820  0.63040077  1
  O  O200  1  -0.01072152  0.26474311  0.35042723  1
  O  O201  1  0.00804432  0.27147868  0.89056603  1
  O  O202  1  -0.00042136  0.75031650  0.35531838  1
  O  O203  1  0.01449719  0.74887111  0.87622497  1
  O  O204  1  0.54636182  0.31090222  0.37188517  1
  O  O205  1  0.49244711  0.25793535  0.88087032  1
  O  O206  1  0.49219001  0.74001973  0.34792231  1
  O  O207  1  0.50817962  0.74982099  0.87738990  1
  O  O208  1  0.25780981  0.13167754  0.47704930  1
  O  O209  1  0.24175208  0.13998766  1.01574737  1
  O  O210  1  0.22893213  0.61738959  0.50637300  1
  O  O211  1  0.23570611  0.63416046  0.99486106  1
  O  O212  1  0.72832300  0.11053624  0.53531730  1
  O  O213  1  0.75517594  0.15243957  0.99527650  1
  O  O214  1  0.76509360  0.61871202  0.48786237  1
  O  O215  1  0.75724681  0.61486723  0.97837407  1
  O  O216  1  0.23754261  0.36775309  0.00840687  1
  O  O217  1  0.27039718  0.38526548  0.50664977  1
  O  O218  1  0.24428150  0.85755514  -0.00475193  1
  O  O219  1  0.28225345  0.87995941  0.48485074  1
  O  O220  1  0.76173233  0.37420185  -0.00986689  1
  O  O221  1  0.75315459  0.36900221  0.51802482  1
  O  O222  1  0.74293252  0.87426638  0.01208705  1
  O  O223  1  0.77823254  0.92213282  0.47768106  1
  O  O224  1  0.12600235  0.49488552  0.23364259  1
  O  O225  1  0.11911793  0.46968244  0.73335059  1
  O  O226  1  0.11907364  0.98724610  0.23842996  1
  O  O227  1  0.14322915  1.03400268  0.74006467  1
  O  O228  1  0.59524682  0.46061996  0.27338115  1
  O  O229  1  0.63754753  0.51180800  0.73485919  1
  O  O230  1  0.62507051  0.98268705  0.25889125  1
  O  O231  1  0.61212078  0.98445638  0.76285235  1
  O  O232  1  0.38586388  -0.02374982  0.26044797  1
  O  O233  1  0.36437600  0.00698066  0.73310809  1
  O  O234  1  0.35910745  0.48334030  0.24009177  1
  O  O235  1  0.37516731  0.51364283  0.74049587  1
  O  O236  1  0.87169409  -0.00319114  0.24546765  1
  O  O237  1  0.97550390  0.07615045  0.75108260  1
  O  O238  1  0.87327769  0.51373449  0.24276152  1
  O  O239  1  0.86095702  0.50911763  0.74288401  1
  O  O240  1  0.11631898  0.38068089  0.35177219  1
  O  O241  1  0.13551426  0.35333220  0.84925412  1
  O  O242  1  0.12691049  0.88491029  0.35912969  1
  O  O243  1  0.12769496  0.86382809  0.88255227  1
  O  O244  1  0.67597716  0.34053429  0.38491423  1
  O  O245  1  0.60913746  0.38120997  0.88238390  1
  O  O246  1  0.61476426  0.86020276  0.35903380  1
  O  O247  1  0.62275157  0.85987956  0.87618671  1
  O  O248  1  0.37852937  0.15852753  0.13509348  1
  O  O249  1  0.38872346  0.12560303  0.61015013  1
  O  O250  1  0.38798939  0.61402243  0.12007889  1
  O  O251  1  0.36553247  0.63826383  0.63222391  1
  O  O252  1  0.87063911  0.12303408  0.12073422  1
  O  O253  1  0.85041020  0.04553645  0.66740046  1
  O  O254  1  0.86462236  0.63504962  0.13323989  1
  O  O255  1  0.89296586  0.62052685  0.63386607  1
  O  O256  1  0.25043240  0.26545518  0.12856088  1
  O  O257  1  0.25231668  0.26443375  0.61463587  1
  O  O258  1  0.26637950  0.74852758  0.11514990  1
  O  O259  1  0.25366383  0.73459820  0.62731012  1
  O  O260  1  0.74604220  0.27482845  0.11530811  1
  O  O261  1  0.73322694  0.25807573  0.65108058  1
  O  O262  1  0.76272689  0.75909407  0.13023437  1
  O  O263  1  0.73077003  0.75626215  0.56986748  1
  O  O264  1  0.25581000  0.26313934  0.39116642  1
  O  O265  1  0.25305456  0.24932417  0.89609775  1
  O  O266  1  0.28970676  0.70727578  0.37533767  1
  O  O267  1  0.23348291  0.73925724  0.88915417  1
  O  O268  1  0.77967873  0.15674718  0.35264606  1
  O  O269  1  0.75010499  0.24318904  0.88304488  1
  O  O270  1  0.74903434  0.72841218  0.37348841  1
  O  O271  1  0.74351542  0.73538987  0.87229929  1
  O  O272  1  0.01139933  0.13775071  0.01919073  1
  O  O273  1  -0.00897701  0.11411545  0.48461090  1
  O  O274  1  0.01146512  0.63020260  -0.00082374  1
  O  O275  1  -0.00383142  0.63214999  0.51224003  1
  O  O276  1  0.52856859  0.18727501  0.06073029  1
  O  O277  1  0.51047539  0.10159907  0.52099775  1
  O  O278  1  0.49940722  0.62371398  0.01058191  1
  O  O279  1  0.49170614  0.61895664  0.50526216  1
  O  O280  1  0.49028767  0.39507044  0.51498792  1
  O  O281  1  0.48245529  0.37104331  0.99107661  1
  O  O282  1  0.50727270  0.82196620  0.47427499  1
  O  O283  1  0.49850799  0.86918070  0.98083257  1
  O  O284  1  1.02189152  0.37563041  0.46929861  1
  O  O285  1  0.98343046  0.37214316  1.01113638  1
  O  O286  1  0.99335855  0.88186199  0.49532896  1
  O  O287  1  0.98290923  0.87018205  0.99667471  1
  O  O288  1  0.49786875  0.50950057  0.39431306  1
  O  O289  1  0.49666969  0.48925579  0.87274890  1
  O  O290  1  0.49107769  0.96912228  0.39001901  1
  O  O291  1  0.45649373  0.98204656  0.87378295  1
  O  O292  1  0.99198733  0.48236381  0.35364940  1
  O  O293  1  1.03800287  0.46038874  0.88678712  1
  O  O294  1  0.99967262  0.99812760  0.37692768  1
  O  O295  1  0.98919790  0.93877964  0.81918337  1
  O  O296  1  -0.00400397  0.02164208  0.13335390  1
  O  O297  1  0.05172965  -0.04506856  0.64328857  1
  O  O298  1  0.00943960  0.50543743  0.12455470  1
  O  O299  1  0.00894425  0.48823365  0.62367789  1
  O  O300  1  0.52578682  0.02498623  0.11958179  1
  O  O301  1  0.47634264  -0.04814418  0.59700863  1
  O  O302  1  0.51194625  0.50309922  0.12236841  1
  O  O303  1  0.51586658  0.50733946  0.63207915  1
  O  O304  1  0.22888603  0.38311542  0.23529954  1
  O  O305  1  0.24446267  0.36310051  0.73667316  1
  O  O306  1  0.22540949  0.85887622  0.24052041  1
  O  O307  1  0.24327428  0.90733826  0.75722803  1
  O  O308  1  0.75633860  0.38191534  0.23649821  1
  O  O309  1  0.75156038  0.39138313  0.74408203  1
  O  O310  1  0.73177613  0.86282640  0.24465926  1
  O  O311  1  0.73537745  0.88536496  0.77463488  1
  O  O312  1  0.20917750  0.16119365  0.30455129  1
  O  O313  1  0.25852602  0.12378299  0.75427510  1
  O  O314  1  0.24857544  0.60736320  0.24320052  1
  O  O315  1  0.23150349  0.61670185  0.77366283  1
  O  O316  1  0.73464791  0.13358916  0.28091067  1
  O  O317  1  0.73882845  0.12397731  0.78273482  1
  O  O318  1  0.76000597  0.62686102  0.25518492  1
  O  O319  1  0.76478176  0.62060047  0.74785049  1
  O  O320  1  0.38879488  0.11199079  0.35664705  1
  O  O321  1  0.39190592  0.12561138  0.91114841  1
  O  O322  1  0.34396712  0.66059090  0.39032519  1
  O  O323  1  0.35119246  0.62247239  0.88629652  1
  O  O324  1  0.82412440  0.10118440  0.38029405  1
  O  O325  1  0.87356400  0.12941720  0.87830208  1
  O  O326  1  0.86953539  0.62099457  0.35967599  1
  O  O327  1  0.86559110  0.62792663  0.86008692  1
  O  O328  1  0.12380714  0.38721565  0.12438299  1
  O  O329  1  0.13157021  0.37209663  0.62004734  1
  O  O330  1  0.11623823  0.89654041  0.12300603  1
  O  O331  1  0.21741870  0.85254996  0.50419007  1
  O  O332  1  0.63311080  0.39295020  0.11966630  1
  O  O333  1  0.63751691  0.38444200  0.62433742  1
  O  O334  1  0.63018170  0.86888104  0.13272353  1
  O  O335  1  0.62305493  0.86561632  0.65034590  1
  O  O336  1  0.11411248  0.27147831  0.23522352  1
  O  O337  1  0.12128730  0.25420559  0.72415071  1
  O  O338  1  0.11073462  0.75619963  0.23538275  1
  O  O339  1  0.13069660  0.75480484  0.76445065  1
  O  O340  1  0.61762861  0.29850572  0.35091873  1
  O  O341  1  0.59421276  0.24037494  0.76085891  1
  O  O342  1  0.60678837  0.75001196  0.23342062  1
  O  O343  1  0.62436919  0.76498847  0.76700573  1
  O  O344  1  0.35719307  0.26769805  0.24896571  1
  O  O345  1  0.38703220  0.24716539  0.75368039  1
  O  O346  1  0.38640610  0.75910031  0.22487949  1
  O  O347  1  0.34877192  0.74357834  0.73654478  1
  O  O348  1  0.86777587  0.24629945  0.24027282  1
  O  O349  1  0.89044951  0.21909896  0.71800522  1
  O  O350  1  0.88258506  0.73947446  0.24127485  1
  O  O351  1  0.87703388  0.73516303  0.74470311  1
  O  O352  1  0.38755506  0.49628335  0.51168155  1
  O  O353  1  0.36407529  0.48393528  1.00654642  1
  O  O354  1  0.38720715  1.00263769  0.47802093  1
  O  O355  1  0.36046495  1.00303863  1.00998349  1
  O  O356  1  0.88854279  0.47100101  0.51828380  1
  O  O357  1  0.87417705  0.48912411  0.99481225  1
  O  O358  1  0.90316364  0.99224580  0.51266349  1
  O  O359  1  0.87433610  0.98486196  1.00761940  1
  O  O360  1  0.13671177  0.01724922  0.01331648  1
  O  O361  1  0.10910442  -0.00101634  0.50919931  1
  O  O362  1  0.12628991  0.51411459  0.01467405  1
  O  O363  1  0.12252624  0.50214789  0.51337619  1
  O  O364  1  0.59026221  0.04971082  -0.03375149  1
  O  O365  1  0.59612619  -0.03627711  0.50116031  1
  O  O366  1  0.62242257  0.50846683  -0.00352398  1
  O  O367  1  0.61067360  0.50238445  0.51615296  1
  O  O368  1  0.34785085  0.37821105  0.11555738  1
  O  O369  1  0.36650238  0.37843729  0.62983868  1
  O  O370  1  0.39056911  0.87128120  0.11778417  1
  O  O371  1  0.35553087  0.84761512  0.63759177  1
  O  O372  1  0.85457320  0.39002298  0.11263879  1
  O  O373  1  0.85097653  0.36954297  0.62703298  1
  O  O374  1  0.86392993  0.86358560  0.11226038  1
  O  O375  1  0.87920140  0.85584955  0.60320593  1
  O  O376  1  0.12791731  0.09764322  0.37819723  1
  O  O377  1  0.12237417  0.12787741  0.89873234  1
  O  O378  1  0.11768530  0.60686722  0.38845705  1
  O  O379  1  0.12421854  0.62709810  0.88911609  1
  O  O380  1  0.62464580  0.10653109  0.41256446  1
  O  O381  1  0.58108449  0.09869490  0.91191977  1
  O  O382  1  0.63506918  0.62294781  0.37812705  1
  O  O383  1  0.63818054  0.63791175  0.85947735  1
