# generated using pymatgen
data_VZnO4
_symmetry_space_group_name_H-M   'P 1'
_cell_length_a   17.10883366
_cell_length_b   17.09102158
_cell_length_c   17.18236047
_cell_angle_alpha   89.92901112
_cell_angle_beta   89.81001377
_cell_angle_gamma   89.91310558
_symmetry_Int_Tables_number   1
_chemical_formula_structural   VZnO4
_chemical_formula_sum   'V64 Zn64 O256'
_cell_volume   5024.21290510
_cell_formula_units_Z   64
loop_
 _symmetry_equiv_pos_site_id
 _symmetry_equiv_pos_as_xyz
  1  'x, y, z'
loop_
 _atom_site_type_symbol
 _atom_site_label
 _atom_site_symmetry_multiplicity
 _atom_site_fract_x
 _atom_site_fract_y
 _atom_site_fract_z
 _atom_site_occupancy
  V  V0  1  0.38711527  0.61686703  0.23510399  1
  V  V1  1  0.87180929  0.13462659  0.75159891  1
  V  V2  1  0.24078899  0.26442183  -0.00567002  1
  V  V3  1  0.00371379  0.24322871  0.24020621  1
  V  V4  1  0.01165392  0.25640573  0.76609316  1
  V  V5  1  0.14816415  0.37431731  0.24781465  1
  V  V6  1  -0.01057256  0.62594856  0.61859581  1
  V  V7  1  0.63289528  0.60675263  0.01888004  1
  V  V8  1  0.12789024  0.76945797  0.37521496  1
  V  V9  1  0.14006388  0.12930653  0.50027725  1
  V  V10  1  0.12198688  0.53445204  0.15757727  1
  V  V11  1  0.13206231  0.49333485  0.62329207  1
  V  V12  1  0.72343723  -0.01197015  0.24972280  1
  V  V13  1  0.64978666  0.05339491  0.62856172  1
  V  V14  1  0.20973737  0.76537084  0.02688846  1
  V  V15  1  0.59528355  0.12090322  0.47887667  1
  V  V16  1  0.38748992  0.48531707  0.88155640  1
  V  V17  1  0.00159048  0.49922299  0.49726083  1
  V  V18  1  0.14105492  0.63224910  0.50483211  1
  V  V19  1  -0.02284468  0.87688786  0.85815617  1
  V  V20  1  0.26658980  0.64013507  0.87151162  1
  V  V21  1  0.74696273  0.60681476  0.83589189  1
  V  V22  1  0.50475911  0.37838933  0.38788723  1
  V  V23  1  0.87820068  0.00688307  0.87547261  1
  V  V24  1  -0.00338296  0.50402839  -0.03263513  1
  V  V25  1  0.51153021  0.26038067  0.23877588  1
  V  V26  1  0.64098355  0.46056482  0.60978954  1
  V  V27  1  0.10958751  0.62537444  -0.01732013  1
  V  V28  1  0.36916010  0.50045487  0.37569594  1
  V  V29  1  0.89089883  0.52638413  0.36154882  1
  V  V30  1  -0.01502166  0.88248765  0.36665359  1
  V  V31  1  0.11591235  0.74380777  0.85233870  1
  V  V32  1  0.51399274  0.84543240  0.38991163  1
  V  V33  1  0.73532649  0.63684503  0.38065092  1
  V  V34  1  0.36266588  0.37742309  0.52237457  1
  V  V35  1  0.49364356  0.63381406  0.65590263  1
  V  V36  1  0.74169790  0.12739703  0.88769051  1
  V  V37  1  0.12386277  0.38527760  0.76345208  1
  V  V38  1  0.47254783  0.91411692  0.88437590  1
  V  V39  1  0.75770706  0.86361486  0.12306696  1
  V  V40  1  0.26441472  0.50227947  0.74534344  1
  V  V41  1  0.38466662  0.13866951  0.22945412  1
  V  V42  1  0.27188858  0.12839007  0.37315426  1
  V  V43  1  0.14058336  0.25474891  0.38389015  1
  V  V44  1  0.13455833  0.87843869  0.73992235  1
  V  V45  1  -0.00207620  -0.00594755  0.50456107  1
  V  V46  1  0.34952761  0.75542065  0.63343550  1
  V  V47  1  0.75195891  0.25536416  0.02839990  1
  V  V48  1  0.87844051  0.25737264  0.59697379  1
  V  V49  1  0.76935182  0.76890178  0.49437448  1
  V  V50  1  0.38260344  0.76964401  0.12845757  1
  V  V51  1  0.62718669  0.11427250  0.03121000  1
  V  V52  1  0.01150148  0.13300636  0.62452884  1
  V  V53  1  0.37278995  0.87578481  0.50689444  1
  V  V54  1  0.63417852  0.74445616  0.85033403  1
  V  V55  1  0.78918367  0.10298154  0.36935362  1
  V  V56  1  0.00119779  0.37218602  0.37574549  1
  V  V57  1  0.51354523  0.47249776  0.01470196  1
  V  V58  1  0.24973821  0.62784151  0.35713498  1
  V  V59  1  0.89007888  0.74087498  0.15171791  1
  V  V60  1  -0.02475733  0.75202091  0.72661365  1
  V  V61  1  0.49005520  0.52419171  0.50530161  1
  V  V62  1  0.14212426  -0.00315155  0.62210938  1
  V  V63  1  0.88681023  0.37920064  0.01793264  1
  Zn  Zn64  1  0.20101783  0.20642088  0.19960716  1
  Zn  Zn65  1  0.18228964  0.18879901  0.69609693  1
  Zn  Zn66  1  0.09291845  0.71545508  0.17892708  1
  Zn  Zn67  1  0.17975388  0.67677368  0.69510820  1
  Zn  Zn68  1  0.70098638  0.18235811  0.20863353  1
  Zn  Zn69  1  0.67646124  0.25613930  0.57002748  1
  Zn  Zn70  1  0.72293547  0.66476713  0.17768940  1
  Zn  Zn71  1  0.67733226  0.67782619  0.67758460  1
  Zn  Zn72  1  0.32575433  0.30835628  0.31902589  1
  Zn  Zn73  1  0.31552804  0.32256209  0.80540125  1
  Zn  Zn74  1  0.32417077  0.79016942  0.31554620  1
  Zn  Zn75  1  0.31567022  0.82274378  0.81358065  1
  Zn  Zn76  1  0.82567171  0.29433989  0.32281919  1
  Zn  Zn77  1  0.82107430  0.43769168  0.82344619  1
  Zn  Zn78  1  0.81139391  0.81478708  0.31900703  1
  Zn  Zn79  1  0.75440637  0.75707013  0.97314443  1
  Zn  Zn80  1  0.18986045  0.44198591  0.43901620  1
  Zn  Zn81  1  0.19262136  0.45334757  0.92728656  1
  Zn  Zn82  1  0.23829141  0.91929273  0.37537291  1
  Zn  Zn83  1  0.14684450  0.92268772  0.94017141  1
  Zn  Zn84  1  0.70648645  0.44500405  0.36407242  1
  Zn  Zn85  1  0.72478120  0.45934351  0.96390577  1
  Zn  Zn86  1  0.68120990  0.94681902  0.44547121  1
  Zn  Zn87  1  0.63687381  0.91124812  0.97140329  1
  Zn  Zn88  1  0.29936368  0.09378927  0.05566194  1
  Zn  Zn89  1  0.29670533  0.01580715  0.52151906  1
  Zn  Zn90  1  0.32228059  0.50523640  0.08627840  1
  Zn  Zn91  1  0.32314383  0.57173027  0.57235679  1
  Zn  Zn92  1  0.80472064  0.03798396  0.06728712  1
  Zn  Zn93  1  0.82168165  0.07862879  0.56081935  1
  Zn  Zn94  1  0.83778595  0.60896755  0.02846674  1
  Zn  Zn95  1  0.80804667  0.55988805  0.54782669  1
  Zn  Zn96  1  0.43595639  0.42481463  0.19657173  1
  Zn  Zn97  1  0.45802744  0.44316900  0.68757049  1
  Zn  Zn98  1  0.36343787  0.93455833  0.23413738  1
  Zn  Zn99  1  0.49494098  0.78594778  0.74835214  1
  Zn  Zn100  1  0.95735340  0.44097085  0.18934321  1
  Zn  Zn101  1  0.94514562  0.42825977  0.67547523  1
  Zn  Zn102  1  0.90383339  0.93567114  0.20138429  1
  Zn  Zn103  1  0.94393975  0.95300323  0.68895619  1
  Zn  Zn104  1  0.05940262  0.06908678  0.32690655  1
  Zn  Zn105  1  0.06452884  0.06044934  0.80579393  1
  Zn  Zn106  1  0.07546623  0.56045462  0.32032928  1
  Zn  Zn107  1  -0.06957626  0.56461346  0.78785498  1
  Zn  Zn108  1  0.53421699  0.05021180  0.29347678  1
  Zn  Zn109  1  0.56440728  0.07063615  0.81724855  1
  Zn  Zn110  1  0.53822519  0.62922743  0.34999714  1
  Zn  Zn111  1  0.60615686  0.51363670  0.80067231  1
  Zn  Zn112  1  0.43662266  0.20558971  0.45567683  1
  Zn  Zn113  1  0.45148896  0.08858426  0.96672921  1
  Zn  Zn114  1  0.41609249  0.70781927  0.43875427  1
  Zn  Zn115  1  0.49529414  0.62415923  0.87770613  1
  Zn  Zn116  1  0.95344778  0.17814692  0.42992693  1
  Zn  Zn117  1  0.90390174  0.21952807  0.91667727  1
  Zn  Zn118  1  0.94590729  0.70088950  0.44727366  1
  Zn  Zn119  1  0.92157154  0.69248773  0.90966262  1
  Zn  Zn120  1  0.06223058  0.33064607  0.06842986  1
  Zn  Zn121  1  0.06873665  0.31517160  0.55784595  1
  Zn  Zn122  1  0.02479793  0.79861598  0.03829081  1
  Zn  Zn123  1  0.07158866  0.81275246  0.55960690  1
  Zn  Zn124  1  0.54056788  0.27102414  0.02950714  1
  Zn  Zn125  1  0.65937658  0.26286298  0.36823233  1
  Zn  Zn126  1  0.52974543  0.76144350  -0.00746144  1
  Zn  Zn127  1  0.55980488  0.79294889  0.55894360  1
  O  O128  1  0.15185615  0.11252800  0.13965766  1
  O  O129  1  0.12834029  0.12150044  0.61942670  1
  O  O130  1  0.11364529  0.63076814  0.08212448  1
  O  O131  1  0.12142821  0.61641563  0.61503841  1
  O  O132  1  0.63399914  0.11820339  0.12845471  1
  O  O133  1  0.63365583  0.14927454  0.59666313  1
  O  O134  1  0.64347030  0.61272025  0.11733254  1
  O  O135  1  0.59204980  0.61709454  0.63608299  1
  O  O136  1  0.37535816  0.39593838  0.37896358  1
  O  O137  1  0.37998549  0.38789541  0.87067053  1
  O  O138  1  0.38973472  0.82725759  0.40218048  1
  O  O139  1  0.37756856  0.88212780  0.88571672  1
  O  O140  1  0.90349891  0.38316152  0.37416458  1
  O  O141  1  0.83408731  0.41506416  0.93280517  1
  O  O142  1  0.88984001  0.87623151  0.38468315  1
  O  O143  1  0.87599361  0.89951925  0.84568488  1
  O  O144  1  0.25556215  0.03111458  0.36686643  1
  O  O145  1  0.17162632  0.03536198  0.92491904  1
  O  O146  1  0.26082399  0.51847951  0.38296130  1
  O  O147  1  0.27290044  0.51590886  0.87500003  1
  O  O148  1  0.74598575  0.00128082  0.35907497  1
  O  O149  1  0.77200276  0.02915013  0.86664049  1
  O  O150  1  0.78326939  0.52683461  0.37974752  1
  O  O151  1  0.72045284  0.49666854  0.84552543  1
  O  O152  1  0.21092251  0.51968615  0.11276066  1
  O  O153  1  0.24777525  0.51376780  0.64257480  1
  O  O154  1  0.19961991  1.06307883  0.10676985  1
  O  O155  1  0.23932905  1.00680330  0.62369789  1
  O  O156  1  0.70842886  0.39736483  0.17993233  1
  O  O157  1  0.73163825  0.50279400  0.60715778  1
  O  O158  1  0.72656673  0.96361873  0.13354265  1
  O  O159  1  0.74751031  1.03837530  0.63597058  1
  O  O160  1  0.02067831  0.36996061  0.26606767  1
  O  O161  1  0.01567687  0.36450887  0.74461183  1
  O  O162  1  -0.01396719  0.89644240  0.26724364  1
  O  O163  1  -0.00353018  0.86374683  0.73731795  1
  O  O164  1  0.49484085  0.36759464  0.27262427  1
  O  O165  1  0.47348354  0.34743144  0.75377539  1
  O  O166  1  0.47346648  0.89095825  0.29251753  1
  O  O167  1  0.51348572  0.88448016  0.79926904  1
  O  O168  1  0.49535205  0.14844964  0.24314398  1
  O  O169  1  0.46074552  0.16690737  0.80415122  1
  O  O170  1  0.48526632  0.62016650  0.25133285  1
  O  O171  1  0.48734558  0.62595235  0.75269755  1
  O  O172  1  1.02012939  0.14396474  0.25549887  1
  O  O173  1  1.02411287  0.14402526  0.74020600  1
  O  O174  1  1.08102991  0.61120914  0.22100006  1
  O  O175  1  0.99471692  0.63783315  0.72742625  1
  O  O176  1  0.34048732  0.26981927  0.00873273  1
  O  O177  1  0.37238065  0.27874444  0.50777348  1
  O  O178  1  0.30398675  0.74193707  0.06553017  1
  O  O179  1  0.36612712  0.75432218  0.52717280  1
  O  O180  1  0.88389265  0.27610149  0.01285465  1
  O  O181  1  0.88906082  0.23892037  0.49968096  1
  O  O182  1  0.85843528  0.71999564  -0.00269018  1
  O  O183  1  0.86913496  0.76072594  0.50538188  1
  O  O184  1  0.12868655  0.24016488  0.49490758  1
  O  O185  1  0.13379925  0.26977738  0.99451614  1
  O  O186  1  0.12530539  0.73570691  0.49400824  1
  O  O187  1  0.10826403  0.74458591  0.97101164  1
  O  O188  1  0.63727604  0.21903538  0.46889759  1
  O  O189  1  0.65148241  0.23292238  1.01389327  1
  O  O190  1  0.65957443  0.73870896  0.52992022  1
  O  O191  1  0.63980006  0.71085307  0.99177819  1
  O  O192  1  0.51355349  0.27612294  0.14249214  1
  O  O193  1  0.51210474  0.29446703  0.70171524  1
  O  O194  1  0.46645023  0.74398802  0.08201345  1
  O  O195  1  0.49932816  0.74277981  0.63972285  1
  O  O196  1  1.01495709  0.25751204  0.14237335  1
  O  O197  1  1.00686014  0.23889779  0.61842366  1
  O  O198  1  0.99042107  0.73701744  0.12550345  1
  O  O199  1  1.00594401  0.73654609  0.62095183  1
  O  O200  1  0.01789822  0.26326796  0.37746198  1
  O  O201  1  0.00277296  0.25106306  0.86347368  1
  O  O202  1  0.01464182  0.77854738  0.39231927  1
  O  O203  1  -0.00756261  0.75451207  0.83987444  1
  O  O204  1  0.50334526  0.27714745  0.39068568  1
  O  O205  1  0.42058574  0.18058376  0.86440896  1
  O  O206  1  0.51492107  0.74132797  0.37518315  1
  O  O207  1  0.52819312  0.73348674  0.87768376  1
  O  O208  1  0.24516437  0.11660115  0.49152732  1
  O  O209  1  0.23382652  0.16197649  0.97795317  1
  O  O210  1  0.23961929  0.62327502  0.50614929  1
  O  O211  1  0.22283481  0.64681374  0.97101943  1
  O  O212  1  0.76916148  0.11429911  0.46612845  1
  O  O213  1  0.74118530  0.10858189  1.00165015  1
  O  O214  1  0.77430569  0.64287074  0.47977536  1
  O  O215  1  0.73452612  0.58135649  0.98449340  1
  O  O216  1  0.23238354  0.36992923  -0.00351418  1
  O  O217  1  0.26396903  0.39378082  0.50591062  1
  O  O218  1  0.22400793  0.85423614  -0.01593096  1
  O  O219  1  0.27300399  0.89954389  0.48231818  1
  O  O220  1  0.74623370  0.35530550  0.03105723  1
  O  O221  1  0.74063155  0.34125721  0.36873039  1
  O  O222  1  0.72934293  0.85884240  0.02339911  1
  O  O223  1  0.75117861  0.86729397  0.49025603  1
  O  O224  1  0.13666218  0.48125978  0.25376616  1
  O  O225  1  0.12977606  0.48972732  0.73626903  1
  O  O226  1  0.14218519  0.99708639  0.25765388  1
  O  O227  1  0.11583324  0.98619297  0.73395324  1
  O  O228  1  0.64526779  0.50952646  0.26715793  1
  O  O229  1  0.58807675  0.46425822  0.70165052  1
  O  O230  1  0.62517661  0.98588661  0.25486305  1
  O  O231  1  0.60920532  1.05757855  0.72047571  1
  O  O232  1  0.39675333  0.03870612  0.24959707  1
  O  O233  1  0.31803488  0.03275256  0.80416353  1
  O  O234  1  0.37719966  0.50987549  0.27114536  1
  O  O235  1  0.36482800  0.49783528  0.75719127  1
  O  O236  1  0.88545091  0.02345231  0.14055667  1
  O  O237  1  0.88522107  0.03102983  0.74653815  1
  O  O238  1  0.90099109  0.50457722  0.26557456  1
  O  O239  1  0.87437628  0.48118140  0.73982217  1
  O  O240  1  0.12952407  0.36968154  0.37282761  1
  O  O241  1  0.12034745  0.39289776  0.86005622  1
  O  O242  1  0.13478629  0.86792355  0.38828087  1
  O  O243  1  0.10173337  0.86737157  0.85046622  1
  O  O244  1  0.59982854  0.40495717  0.38727473  1
  O  O245  1  0.68394891  0.31576685  0.80627197  1
  O  O246  1  0.61028015  0.87174187  0.39166825  1
  O  O247  1  0.65446167  0.83677168  0.88311164  1
  O  O248  1  0.36661865  0.14184049  0.13269511  1
  O  O249  1  0.29222739  0.08573845  0.75987981  1
  O  O250  1  0.37333814  0.59613952  0.14038696  1
  O  O251  1  0.37947382  0.64869038  0.63261468  1
  O  O252  1  0.98648121  0.08630006  0.10606915  1
  O  O253  1  0.89296441  0.13982916  0.63552562  1
  O  O254  1  0.83353846  0.65584019  0.13581655  1
  O  O255  1  0.89348862  0.61497513  0.60942946  1
  O  O256  1  0.23278986  0.24970505  0.09695220  1
  O  O257  1  0.28858050  0.23616697  0.66920743  1
  O  O258  1  0.15657976  0.78484375  0.10871881  1
  O  O259  1  0.25123949  0.74644649  0.64146971  1
  O  O260  1  0.76667726  0.22538022  0.12231318  1
  O  O261  1  0.78038103  0.24923948  0.61288250  1
  O  O262  1  0.71686648  0.78275288  0.16355615  1
  O  O263  1  0.71641873  0.74829633  0.59327612  1
  O  O264  1  0.24526119  0.24454068  0.37975886  1
  O  O265  1  0.25137372  0.27061605  0.89128238  1
  O  O266  1  0.23767697  0.73374064  0.37619218  1
  O  O267  1  0.23720626  0.74230427  0.85284559  1
  O  O268  1  0.75228627  0.19154620  0.32621156  1
  O  O269  1  0.78306575  0.22173048  0.91826745  1
  O  O270  1  0.74943572  0.74940824  0.38686703  1
  O  O271  1  0.73842856  0.71213364  0.86666572  1
  O  O272  1  -0.01157984  0.10639218  0.03756008  1
  O  O273  1  0.02048271  0.11663045  0.50548192  1
  O  O274  1  0.00596885  0.62207674  -0.03495279  1
  O  O275  1  0.01482405  0.62097492  0.50745399  1
  O  O276  1  0.52860646  0.15542370  0.00773177  1
  O  O277  1  0.50084715  0.13105232  0.50782018  1
  O  O278  1  0.53020204  0.59804682  -0.00758419  1
  O  O279  1  0.48910990  0.62371075  0.48942340  1
  O  O280  1  0.47523897  0.40129633  0.48940623  1
  O  O281  1  0.51464325  0.37438459  0.99234347  1
  O  O282  1  0.49458768  0.85629445  0.49392636  1
  O  O283  1  0.52403613  0.87597840  0.96747111  1
  O  O284  1  1.01944313  0.38873579  0.48404053  1
  O  O285  1  0.99298126  0.39298059  0.99703763  1
  O  O286  1  1.00687093  0.89357074  0.51219529  1
  O  O287  1  0.97843802  0.85439698  0.95411590  1
  O  O288  1  0.47964350  0.51212817  0.38852372  1
  O  O289  1  0.48850948  0.50687771  0.86022342  1
  O  O290  1  0.48357042  0.95180555  0.34811071  1
  O  O291  1  0.49132105  1.01873926  0.88208147  1
  O  O292  1  1.00645317  0.49351319  0.38003435  1
  O  O293  1  0.98111728  0.49673671  0.87242499  1
  O  O294  1  1.01529167  0.98806376  0.39436398  1
  O  O295  1  0.99342700  0.98348006  0.85724969  1
  O  O296  1  0.12778319  -0.04893078  0.20332646  1
  O  O297  1  0.01206479  0.01689340  0.62024753  1
  O  O298  1  0.04060933  0.48727341  0.12045587  1
  O  O299  1  0.01207659  0.51008686  0.61526619  1
  O  O300  1  0.51714496  -0.00556312  0.13325836  1
  O  O301  1  0.59693274  -0.06308925  0.64216312  1
  O  O302  1  0.49918469  0.47608721  0.11098372  1
  O  O303  1  0.46596771  0.53073641  0.61174882  1
  O  O304  1  0.24623479  0.36139346  0.25930235  1
  O  O305  1  0.23998631  0.39644814  0.75896934  1
  O  O306  1  0.27673324  0.88303678  0.27748161  1
  O  O307  1  0.22958488  0.87942126  0.75798525  1
  O  O308  1  0.75847168  0.42616512  0.22312176  1
  O  O309  1  0.74510050  0.33445171  0.77170023  1
  O  O310  1  0.79120112  0.89920142  0.24461639  1
  O  O311  1  0.78738550  0.88142376  0.67576719  1
  O  O312  1  0.27658794  0.14918157  0.26404999  1
  O  O313  1  0.21637091  0.11355508  0.77647631  1
  O  O314  1  0.25556022  0.62246624  0.26075920  1
  O  O315  1  0.24126719  0.60869619  0.76728523  1
  O  O316  1  0.75884413  0.07997180  0.23456113  1
  O  O317  1  0.77694537  0.15148535  0.77650237  1
  O  O318  1  0.74982843  0.64147619  0.28146271  1
  O  O319  1  0.75143668  0.61814969  0.73822989  1
  O  O320  1  0.36908365  0.13970873  0.38914494  1
  O  O321  1  0.35146066  0.04907458  0.97491231  1
  O  O322  1  0.36060607  0.62832672  0.36780205  1
  O  O323  1  0.36404021  0.64091402  0.88037957  1
  O  O324  1  0.88897180  0.10939206  0.36463764  1
  O  O325  1  0.90243158  0.11903850  0.85922085  1
  O  O326  1  0.91167672  0.62329989  0.36847965  1
  O  O327  1  0.85179530  0.61006445  0.86103823  1
  O  O328  1  0.13399597  0.36587535  0.15019084  1
  O  O329  1  0.12619268  0.39148709  0.62072116  1
  O  O330  1  0.04112060  0.91557754  0.08233592  1
  O  O331  1  0.12799970  0.88647410  0.62976985  1
  O  O332  1  0.61090264  0.46934772  0.21714934  1
  O  O333  1  0.64843525  0.36327692  0.59256121  1
  O  O334  1  0.56740070  0.84547641  0.16620728  1
  O  O335  1  0.63254311  0.88029490  0.60837397  1
  O  O336  1  0.12420807  0.25933115  0.26656964  1
  O  O337  1  0.12414819  0.27196073  0.74661984  1
  O  O338  1  0.11889614  0.75946938  0.27861973  1
  O  O339  1  0.11502263  0.76457594  0.74075184  1
  O  O340  1  0.61379859  0.24658998  0.26235229  1
  O  O341  1  0.56432493  0.25283960  0.73297812  1
  O  O342  1  0.56324363  0.78805047  0.20899707  1
  O  O343  1  0.62519840  0.75424095  0.75050066  1
  O  O344  1  0.39873080  0.24755578  0.25891315  1
  O  O345  1  0.33606308  0.23947400  0.72894243  1
  O  O346  1  0.37007169  0.72859595  0.22741148  1
  O  O347  1  0.38036382  0.77214007  0.73611714  1
  O  O348  1  0.90557510  0.25791330  0.25888011  1
  O  O349  1  0.90742818  0.24107411  0.74338575  1
  O  O350  1  0.88406199  0.75336077  0.24823331  1
  O  O351  1  0.88128548  0.75318030  0.72404395  1
  O  O352  1  0.37475155  0.50762723  0.49164880  1
  O  O353  1  0.39763076  0.49911191  0.98501985  1
  O  O354  1  0.40080207  0.97472823  0.50613391  1
  O  O355  1  0.46322438  0.99329522  1.08580280  1
  O  O356  1  0.89886052  0.50786704  0.48495799  1
  O  O357  1  0.90902189  0.52074485  1.01672401  1
  O  O358  1  0.90087871  1.01064315  0.51263053  1
  O  O359  1  0.87816070  1.00425452  0.97213130  1
  O  O360  1  0.08226054  -0.03901433  0.03867858  1
  O  O361  1  0.12188729  0.01051973  0.51897473  1
  O  O362  1  0.11020110  0.51824432  -0.02871680  1
  O  O363  1  0.12159611  0.51368632  0.50492238  1
  O  O364  1  0.61715707  0.01801421  0.00223942  1
  O  O365  1  0.63120739  0.02355373  0.51922903  1
  O  O366  1  0.62028154  0.48910946  0.00313435  1
  O  O367  1  0.58997961  0.49892014  0.52430396  1
  O  O368  1  0.35111415  0.40841643  0.13099786  1
  O  O369  1  0.37874952  0.39296389  0.61866102  1
  O  O370  1  0.38198026  0.86716367  0.14135474  1
  O  O371  1  0.36496309  0.86337925  0.61112817  1
  O  O372  1  0.88126126  0.40033733  0.11481101  1
  O  O373  1  0.90106225  0.35432011  0.60649622  1
  O  O374  1  0.86257643  0.84040695  0.11710089  1
  O  O375  1  0.84572310  0.89596814  0.63456720  1
  O  O376  1  0.13562330  0.13719144  0.38496232  1
  O  O377  1  0.11297888  0.08243098  0.91178476  1
  O  O378  1  0.13840467  0.62482967  0.39061903  1
  O  O379  1  0.11880981  0.64329218  0.86075903  1
  O  O380  1  0.59095123  0.09523054  0.38243298  1
  O  O381  1  0.64361216  0.13304248  0.87730897  1
  O  O382  1  0.63955027  0.61441930  0.39161559  1
  O  O383  1  0.63375261  0.61762823  0.84781127  1
