# generated using pymatgen
data_VZnO4
_symmetry_space_group_name_H-M   'P 1'
_cell_length_a   16.94768186
_cell_length_b   16.89715426
_cell_length_c   16.92673353
_cell_angle_alpha   90.11885561
_cell_angle_beta   89.90789252
_cell_angle_gamma   89.93792309
_symmetry_Int_Tables_number   1
_chemical_formula_structural   VZnO4
_chemical_formula_sum   'V64 Zn64 O256'
_cell_volume   4847.24841235
_cell_formula_units_Z   64
loop_
 _symmetry_equiv_pos_site_id
 _symmetry_equiv_pos_as_xyz
  1  'x, y, z'
loop_
 _atom_site_type_symbol
 _atom_site_label
 _atom_site_symmetry_multiplicity
 _atom_site_fract_x
 _atom_site_fract_y
 _atom_site_fract_z
 _atom_site_occupancy
  V  V0  1  0.50146210  0.12042092  0.62188567  1
  V  V1  1  0.11660593  0.36355851  0.75454632  1
  V  V2  1  0.74208736  0.74144830  -0.00909207  1
  V  V3  1  0.37284786  0.25894970  0.62659128  1
  V  V4  1  0.50626287  0.50833439  0.50822452  1
  V  V5  1  0.88663154  -0.01996988  0.87758150  1
  V  V6  1  0.86873789  0.86265800  0.52150943  1
  V  V7  1  0.50769602  0.51432645  0.00472098  1
  V  V8  1  0.25563403  0.38609482  0.64175951  1
  V  V9  1  0.09259883  0.49686410  0.09379647  1
  V  V10  1  0.37257978  0.13903834  0.26869953  1
  V  V11  1  0.24840138  0.50198395  0.22069137  1
  V  V12  1  0.48195585  0.89226466  0.36926675  1
  V  V13  1  0.00136890  0.33779768  0.87494005  1
  V  V14  1  0.14357211  -0.01145582  0.61982939  1
  V  V15  1  0.33708113  0.81384192  0.02814786  1
  V  V16  1  0.49632944  0.64514528  0.61833163  1
  V  V17  1  0.10083152  0.12428667  0.00994375  1
  V  V18  1  -0.02096548  0.63109832  0.62405138  1
  V  V19  1  0.74746559  0.01708939  0.74260265  1
  V  V20  1  0.25721903  0.23135808  -0.00577602  1
  V  V21  1  0.23655623  0.62097840  0.37728392  1
  V  V22  1  0.48423857  0.75190780  0.24810346  1
  V  V23  1  0.50608827  0.62887699  0.13841856  1
  V  V24  1  0.88715129  0.38667065  0.51294513  1
  V  V25  1  0.01183453  0.50465056  0.50052557  1
  V  V26  1  0.12547465  0.76533870  0.36822283  1
  V  V27  1  0.13705468  0.74087875  0.86746650  1
  V  V28  1  0.62400325  0.87133533  0.24874903  1
  V  V29  1  0.62819150  0.75427286  0.39075193  1
  V  V30  1  0.25652308  0.75610360  0.50527474  1
  V  V31  1  0.63798969  0.48355807  0.12885892  1
  V  V32  1  0.75661727  0.87035675  0.11733877  1
  V  V33  1  0.62538643  0.12307287  -0.01437470  1
  V  V34  1  0.37936216  0.38522750  0.48325608  1
  V  V35  1  0.35461984  0.61821165  0.75368698  1
  V  V36  1  0.00118580  0.00207819  0.50972007  1
  V  V37  1  0.75761399  0.24171980  0.50607208  1
  V  V38  1  0.74309619  0.38120586  0.63565916  1
  V  V39  1  0.61907356  0.12087834  0.49464234  1
  V  V40  1  0.62119615  0.00246810  0.13308309  1
  V  V41  1  0.86982863  0.11883408  0.24673369  1
  V  V42  1  0.38057570  0.52150012  0.36621951  1
  V  V43  1  0.49301783  0.38053708  0.87618908  1
  V  V44  1  0.37348586  0.37787152  0.01759085  1
  V  V45  1  0.13194512  0.51666833  0.63289475  1
  V  V46  1  0.01527481  0.75942277  0.74308434  1
  V  V47  1  0.49150513  0.75342345  0.78078179  1
  V  V48  1  0.36915688  0.89371590  0.50585640  1
  V  V49  1  0.75652730  0.25045642  0.00488792  1
  V  V50  1  0.24995483  0.25336120  0.48354995  1
  V  V51  1  0.88092778  0.38838916  -0.00460349  1
  V  V52  1  0.49172604  0.13627480  0.12581741  1
  V  V53  1  0.87685612  0.61737759  0.25248763  1
  V  V54  1  0.63309855  0.25862440  0.86915941  1
  V  V55  1  0.25966962  -0.03321096  0.75682686  1
  V  V56  1  0.50162270  0.25960237  0.74870420  1
  V  V57  1  0.49521175  -0.01257485  -0.02044758  1
  V  V58  1  0.90328216  0.12394237  0.75029229  1
  V  V59  1  0.62585359  0.88215649  0.74760072  1
  V  V60  1  -0.01448074  0.87436540  0.37316643  1
  V  V61  1  0.36179108  0.12348722  0.76147817  1
  V  V62  1  0.62411897  0.27650923  0.37270984  1
  V  V63  1  0.24483412  -0.01206364  0.25244784  1
  Zn  Zn64  1  0.22226530  0.14944214  0.15884549  1
  Zn  Zn65  1  0.07407277  0.17403042  0.67702157  1
  Zn  Zn66  1  0.15316524  0.64925345  0.20155798  1
  Zn  Zn67  1  0.20007312  0.70507638  0.69117154  1
  Zn  Zn68  1  0.67305370  0.20225367  0.18187363  1
  Zn  Zn69  1  0.68779011  0.19029757  0.68357720  1
  Zn  Zn70  1  0.68059832  0.68901898  0.18047284  1
  Zn  Zn71  1  0.64573079  0.68433621  0.69809323  1
  Zn  Zn72  1  0.31035276  0.31773700  0.29182081  1
  Zn  Zn73  1  0.31102737  0.31098400  0.82025633  1
  Zn  Zn74  1  0.30347360  0.81238941  0.30599085  1
  Zn  Zn75  1  0.33494227  0.81566310  0.82372987  1
  Zn  Zn76  1  0.83009318  0.30747653  0.33390643  1
  Zn  Zn77  1  0.81580414  0.30806186  0.81328998  1
  Zn  Zn78  1  0.77530124  0.87532426  0.35047114  1
  Zn  Zn79  1  0.78098921  0.84361948  0.82658442  1
  Zn  Zn80  1  0.19048925  0.43442167  0.44047217  1
  Zn  Zn81  1  0.16895402  0.42426774  0.96020745  1
  Zn  Zn82  1  0.19006319  0.94505228  0.43166475  1
  Zn  Zn83  1  0.19636397  0.92008317  0.94498736  1
  Zn  Zn84  1  0.70155006  0.44623344  0.45195693  1
  Zn  Zn85  1  0.68486225  0.43026699  0.95027223  1
  Zn  Zn86  1  0.69560242  0.95711815  0.47167294  1
  Zn  Zn87  1  0.68243619  0.93479071  0.92921765  1
  Zn  Zn88  1  0.32186612  0.05364383  0.04969164  1
  Zn  Zn89  1  0.30681013  0.07178849  0.56719418  1
  Zn  Zn90  1  0.33153134  0.58795978  0.05532778  1
  Zn  Zn91  1  0.31698232  0.57207283  0.56183174  1
  Zn  Zn92  1  0.80220203  0.05430885  0.05268240  1
  Zn  Zn93  1  0.82013032  0.06536040  0.56714181  1
  Zn  Zn94  1  0.87519241  0.60011972  0.02887459  1
  Zn  Zn95  1  0.80548807  0.56056948  0.55401004  1
  Zn  Zn96  1  0.44474029  0.44459512  0.19024637  1
  Zn  Zn97  1  0.44409174  0.44587780  0.68635907  1
  Zn  Zn98  1  0.42900339  0.94029698  0.17025692  1
  Zn  Zn99  1  0.44375944  0.92968987  0.69120881  1
  Zn  Zn100  1  0.92749464  0.40305863  0.18328135  1
  Zn  Zn101  1  0.93540030  0.29541789  0.67939236  1
  Zn  Zn102  1  0.94146474  0.82148239  0.18430281  1
  Zn  Zn103  1  0.93248251  0.94272653  0.68114617  1
  Zn  Zn104  1  0.04115180  -0.00514011  0.27231167  1
  Zn  Zn105  1  0.07347388  0.03107674  0.81128318  1
  Zn  Zn106  1  0.07344118  0.50426824  0.30569833  1
  Zn  Zn107  1  0.06922275  0.57354999  0.79846861  1
  Zn  Zn108  1  0.55726216  0.07347603  0.31243810  1
  Zn  Zn109  1  0.56041923  0.06711407  0.80256863  1
  Zn  Zn110  1  0.56671416  0.57291931  0.32570398  1
  Zn  Zn111  1  0.48314268  0.56530340  0.81993299  1
  Zn  Zn112  1  0.44585063  0.20295429  0.43421511  1
  Zn  Zn113  1  0.43950297  0.19208264  0.94192269  1
  Zn  Zn114  1  0.43691224  0.69824281  0.43490874  1
  Zn  Zn115  1  0.40961391  0.69768608  0.93851414  1
  Zn  Zn116  1  0.94176837  0.18221576  0.44409260  1
  Zn  Zn117  1  0.93055317  0.16582961  0.92971083  1
  Zn  Zn118  1  0.94497625  0.69418709  0.44474892  1
  Zn  Zn119  1  0.92611420  0.77368588  0.92832323  1
  Zn  Zn120  1  0.08086030  0.30887502  0.05142764  1
  Zn  Zn121  1  0.07467257  0.31700762  0.56058410  1
  Zn  Zn122  1  0.04848943  0.68402307  0.04478950  1
  Zn  Zn123  1  0.06847962  0.81445878  0.55567275  1
  Zn  Zn124  1  0.56314542  0.31407820  0.05979568  1
  Zn  Zn125  1  0.56756334  0.31696390  0.55612343  1
  Zn  Zn126  1  0.56519945  0.80917840  0.05512828  1
  Zn  Zn127  1  0.54580246  0.83282188  0.56543144  1
  O  O128  1  0.12642923  0.11345643  0.10686400  1
  O  O129  1  0.12968694  0.09152688  0.63138504  1
  O  O130  1  0.10914840  0.61236092  0.10517802  1
  O  O131  1  0.14788785  0.61462154  0.63397993  1
  O  O132  1  0.62026870  0.11449075  0.11967300  1
  O  O133  1  0.60600067  0.13616335  0.62067972  1
  O  O134  1  0.61682247  0.60240846  0.14608855  1
  O  O135  1  0.59764533  0.63524532  0.60914984  1
  O  O136  1  0.37792294  0.38906406  0.38297564  1
  O  O137  1  0.39193738  0.38035885  0.87885222  1
  O  O138  1  0.38081296  0.87684073  0.36615902  1
  O  O139  1  0.37749947  0.82108915  0.93293211  1
  O  O140  1  0.89679750  0.34020667  0.42301305  1
  O  O141  1  0.89602347  0.36277206  0.87701239  1
  O  O142  1  0.88505246  0.86570857  0.37915772  1
  O  O143  1  0.88283838  0.87167751  0.87240688  1
  O  O144  1  0.25241166  -0.00299560  0.35400193  1
  O  O145  1  0.25670443  -0.03617206  0.85878514  1
  O  O146  1  0.26669167  0.51469078  0.38650706  1
  O  O147  1  0.24086223  0.52425617  0.90435862  1
  O  O148  1  0.73639073  -0.02106010  0.37008952  1
  O  O149  1  0.76256059  -0.03091872  0.84784375  1
  O  O150  1  0.75627998  0.54366149  0.45445522  1
  O  O151  1  0.74533488  0.51026341  0.87639853  1
  O  O152  1  0.26759926  0.51904367  0.12404944  1
  O  O153  1  0.24681592  0.49106158  0.62012343  1
  O  O154  1  0.26190571  1.03083762  0.14123055  1
  O  O155  1  0.24947527  0.99303977  0.62987785  1
  O  O156  1  0.73373102  0.49000496  0.13416579  1
  O  O157  1  0.76152610  0.48106091  0.62369801  1
  O  O158  1  0.72707569  0.99012843  0.11511298  1
  O  O159  1  0.75763428  0.99993701  0.64364706  1
  O  O160  1  0.02066409  0.31658596  0.21378056  1
  O  O161  1  0.00933281  0.36218602  0.75913918  1
  O  O162  1  -0.00753436  0.88446044  0.26636325  1
  O  O163  1  -0.01226346  0.85356085  0.73117254  1
  O  O164  1  0.54082308  0.42431754  0.25883510  1
  O  O165  1  0.49909257  0.37189938  0.76343849  1
  O  O166  1  0.49754802  0.86753526  0.24692974  1
  O  O167  1  0.45800962  0.85284706  0.77818003  1
  O  O168  1  0.48623744  0.11660339  0.23173096  1
  O  O169  1  0.49560523  0.14161724  0.73764199  1
  O  O170  1  0.50793394  0.64268036  0.24933625  1
  O  O171  1  0.50897114  0.64234167  0.73733511  1
  O  O172  1  0.97109916  0.09344557  0.24113816  1
  O  O173  1  1.00766829  0.11429344  0.75733076  1
  O  O174  1  0.97469068  0.57728501  0.26195253  1
  O  O175  1  1.00052110  0.64099419  0.73146037  1
  O  O176  1  0.36903806  0.26837969  -0.00456912  1
  O  O177  1  0.37854310  0.27315707  0.50737846  1
  O  O178  1  0.33548035  0.70472585  0.03104911  1
  O  O179  1  0.36182226  0.76683831  0.48624566  1
  O  O180  1  0.85419658  0.22966975  -0.01026310  1
  O  O181  1  0.85510030  0.21219663  0.50829482  1
  O  O182  1  0.84942877  0.77943609  0.01168338  1
  O  O183  1  0.87812359  0.76199817  0.50340300  1
  O  O184  1  0.15152060  0.27585712  0.49132259  1
  O  O185  1  0.13347688  0.22492590  0.99213557  1
  O  O186  1  0.14491232  0.75818189  0.48234359  1
  O  O187  1  0.12056102  0.76736430  0.97485080  1
  O  O188  1  0.63461886  0.24510725  0.49246821  1
  O  O189  1  0.63079028  0.24358725  0.98663675  1
  O  O190  1  0.61137308  0.77879170  0.48794052  1
  O  O191  1  0.64030914  0.74003889  1.00923120  1
  O  O192  1  0.51781962  0.23343405  0.12431374  1
  O  O193  1  0.49022105  0.26232687  0.63452688  1
  O  O194  1  0.51043143  0.73728923  0.13417327  1
  O  O195  1  0.48418415  0.74497575  0.61629131  1
  O  O196  1  1.04128815  0.26655212  0.16144633  1
  O  O197  1  1.01235193  0.24389339  0.61658314  1
  O  O198  1  1.02882682  0.78591298  0.11485297  1
  O  O199  1  1.01198356  0.73509213  0.62448952  1
  O  O200  1  0.01471370  0.24942617  0.38374646  1
  O  O201  1  0.00822536  0.24035042  0.87484918  1
  O  O202  1  0.01662768  0.76530208  0.38870687  1
  O  O203  1  0.00593992  0.74826295  0.84718330  1
  O  O204  1  0.52243434  0.27049786  0.38493953  1
  O  O205  1  0.50666847  0.26391563  0.86849410  1
  O  O206  1  0.50295222  0.76103262  0.35870946  1
  O  O207  1  0.50455889  0.73102803  0.87648668  1
  O  O208  1  0.26302767  0.15545704  0.50413119  1
  O  O209  1  0.26945793  0.13203461  0.98217403  1
  O  O210  1  0.26195037  0.64216671  0.48623588  1
  O  O211  1  0.25234071  0.58257220  0.94823495  1
  O  O212  1  0.72883977  0.12905063  0.51481010  1
  O  O213  1  0.73079579  0.13306682  1.00133757  1
  O  O214  1  0.74628027  0.69286821  0.55711797  1
  O  O215  1  0.77216410  0.64467143  1.01196646  1
  O  O216  1  0.27758302  0.39919289  -0.00073471  1
  O  O217  1  0.26987384  0.37929710  0.50754574  1
  O  O218  1  0.24937303  0.86481539  0.02678512  1
  O  O219  1  0.26092442  0.86796485  0.48679543  1
  O  O220  1  0.77063876  0.36148861  -0.01885454  1
  O  O221  1  0.76906736  0.36435154  0.51147097  1
  O  O222  1  0.73621129  0.87228940  0.01183308  1
  O  O223  1  0.76888535  0.88025757  0.49859519  1
  O  O224  1  0.13863470  0.51052789  0.21166333  1
  O  O225  1  0.12065666  0.49047388  0.73784999  1
  O  O226  1  0.14418276  1.00748433  0.23952719  1
  O  O227  1  0.15270857  0.98457700  0.74425969  1
  O  O228  1  0.59576296  0.48274400  0.24886884  1
  O  O229  1  0.65404115  0.52271250  0.74086650  1
  O  O230  1  0.61339914  0.99763031  0.23624835  1
  O  O231  1  0.63938127  1.00052485  0.75060808  1
  O  O232  1  0.36139720  0.01790249  0.22469518  1
  O  O233  1  0.36351167  0.01421051  0.74254252  1
  O  O234  1  0.37272624  0.50073547  0.26413283  1
  O  O235  1  0.39029797  0.51574808  0.75696755  1
  O  O236  1  0.84161675  0.02016046  0.25652920  1
  O  O237  1  0.87011416  0.00378977  0.75648501  1
  O  O238  1  0.83398780  0.52726294  0.28429706  1
  O  O239  1  0.89783989  0.53244550  0.82486977  1
  O  O240  1  0.12333855  0.41555371  0.35407867  1
  O  O241  1  0.10810358  0.38258028  0.86523004  1
  O  O242  1  0.12765462  0.86616712  0.36218373  1
  O  O243  1  0.10396010  0.83783549  0.92902297  1
  O  O244  1  0.64539970  0.37558056  0.38405961  1
  O  O245  1  0.61806976  0.36232941  0.88166221  1
  O  O246  1  0.60352259  0.87517561  0.35501161  1
  O  O247  1  0.61486386  0.88471052  0.84875432  1
  O  O248  1  0.39364545  0.13396931  0.10749546  1
  O  O249  1  0.38263487  0.14392658  0.63274698  1
  O  O250  1  0.40857769  0.60927152  0.13988216  1
  O  O251  1  0.38016663  0.62099865  0.64386127  1
  O  O252  1  0.86997280  0.11649250  0.14200692  1
  O  O253  1  0.88321226  0.11419282  0.65137179  1
  O  O254  1  0.87964683  0.58875455  0.15155285  1
  O  O255  1  0.88020583  0.62105492  0.62125075  1
  O  O256  1  0.24382648  0.24578703  0.09610912  1
  O  O257  1  0.26517562  0.27438181  0.61630285  1
  O  O258  1  0.16338075  0.77541484  0.12829693  1
  O  O259  1  0.25169120  0.75264446  0.60421276  1
  O  O260  1  0.73874196  0.25441853  0.10339198  1
  O  O261  1  0.74387619  0.25847697  0.61303870  1
  O  O262  1  0.73994674  0.76809460  0.12414257  1
  O  O263  1  0.73921907  0.73140944  0.61972737  1
  O  O264  1  0.26786333  0.26708536  0.38530379  1
  O  O265  1  0.24271288  0.27818566  0.90108858  1
  O  O266  1  0.24083138  0.73781029  0.37046179  1
  O  O267  1  0.23450312  0.76049816  0.86114875  1
  O  O268  1  0.74765442  0.25500047  0.39694971  1
  O  O269  1  0.73479318  0.25033115  0.87687289  1
  O  O270  1  0.72539255  0.77421059  0.37260354  1
  O  O271  1  0.74912836  0.75359257  0.88849206  1
  O  O272  1  0.00105317  0.12883442  0.01053022  1
  O  O273  1  0.00236842  0.10057091  0.49091822  1
  O  O274  1  -0.04684448  0.67217458  -0.01032503  1
  O  O275  1  -0.00276537  0.61692769  0.51212594  1
  O  O276  1  0.51322829  0.12446846  0.00489542  1
  O  O277  1  0.50488481  0.14127965  0.51504647  1
  O  O278  1  0.50476564  0.61622649  0.01190316  1
  O  O279  1  0.47813233  0.61967036  0.51008248  1
  O  O280  1  0.48489341  0.39355419  0.51076647  1
  O  O281  1  0.49415610  0.37593110  0.98925869  1
  O  O282  1  0.48085094  0.88099220  0.47763900  1
  O  O283  1  0.52157249  0.89075346  0.99048965  1
  O  O284  1  0.99842943  0.39607396  0.52610491  1
  O  O285  1  0.99592328  0.35863872  0.98134327  1
  O  O286  1  0.98793822  0.87803646  0.49519938  1
  O  O287  1  0.98603350  0.95490573  1.06578193  1
  O  O288  1  0.48474613  0.51681685  0.38758363  1
  O  O289  1  0.52137837  0.48750799  0.89067078  1
  O  O290  1  0.49395692  0.98974547  0.35855521  1
  O  O291  1  0.50444846  1.00901013  0.88116129  1
  O  O292  1  1.01232354  0.50469947  0.40140734  1
  O  O293  1  0.96417865  0.52620447  0.85572892  1
  O  O294  1  1.01268212  0.97732859  0.38863989  1
  O  O295  1  0.98789359  0.98457940  0.87023356  1
  O  O296  1  0.03098677  -0.02235300  0.11826505  1
  O  O297  1  0.01259926  -0.00643209  0.61459150  1
  O  O298  1  0.00199472  0.47129281  0.13124727  1
  O  O299  1  0.01964481  0.52729768  0.62409259  1
  O  O300  1  0.51152181  0.00891175  0.10634411  1
  O  O301  1  0.48644808  0.02426250  0.62899484  1
  O  O302  1  0.51277634  0.50518214  0.11574020  1
  O  O303  1  0.49860611  0.51320849  0.61298876  1
  O  O304  1  0.25646139  0.40336842  0.24362844  1
  O  O305  1  0.24757338  0.37869604  0.74484584  1
  O  O306  1  0.25743463  0.88786506  0.23653805  1
  O  O307  1  0.28081035  0.87139038  0.73680363  1
  O  O308  1  0.85382004  0.38802704  0.26160492  1
  O  O309  1  0.75788487  0.36481234  0.73592404  1
  O  O310  1  0.72693333  0.87725309  0.23712016  1
  O  O311  1  0.72354868  0.86268746  0.72726293  1
  O  O312  1  0.26828542  0.13190156  0.26128863  1
  O  O313  1  0.26587711  0.13431082  0.75739023  1
  O  O314  1  0.24673919  0.60767811  0.26505579  1
  O  O315  1  0.25556330  0.62381377  0.75334432  1
  O  O316  1  0.76722744  0.14100449  0.24074582  1
  O  O317  1  0.74851150  0.11838548  0.75154930  1
  O  O318  1  0.77897757  0.65364075  0.24154989  1
  O  O319  1  0.69825103  0.58224803  0.73963150  1
  O  O320  1  0.39292810  0.12898130  0.36643159  1
  O  O321  1  0.38695539  0.13429949  0.85843112  1
  O  O322  1  0.37035278  0.62319296  0.36954757  1
  O  O323  1  0.38477500  0.61750500  0.86229864  1
  O  O324  1  0.87641432  0.12355165  0.35192402  1
  O  O325  1  0.87578757  0.10195453  0.85539690  1
  O  O326  1  0.88480083  0.65152518  0.35144416  1
  O  O327  1  0.83750316  0.67328654  0.76683572  1
  O  O328  1  0.14054800  0.40120568  0.08191094  1
  O  O329  1  0.14138853  0.38370328  0.63971474  1
  O  O330  1  0.10655918  0.82312991  0.13470203  1
  O  O331  1  0.12584103  0.88491674  0.62463998  1
  O  O332  1  0.62131262  0.38190181  0.12694670  1
  O  O333  1  0.64159668  0.37690747  0.61864832  1
  O  O334  1  0.61605401  0.88739122  0.13454617  1
  O  O335  1  0.56289196  0.89385873  0.66072072  1
  O  O336  1  0.12338996  0.23268517  0.30910550  1
  O  O337  1  0.13121704  0.26655508  0.74487559  1
  O  O338  1  0.11797091  0.72943739  0.27329085  1
  O  O339  1  0.12204471  0.76109139  0.75421039  1
  O  O340  1  0.63969970  0.25151661  0.27463074  1
  O  O341  1  0.61518196  0.24550711  0.76266123  1
  O  O342  1  0.61512605  0.76457979  0.24935244  1
  O  O343  1  0.59654588  0.76981115  0.74842338  1
  O  O344  1  0.38048687  0.23944119  0.25006275  1
  O  O345  1  0.38231371  0.25031573  0.74558638  1
  O  O346  1  0.38627399  0.75080206  0.24757337  1
  O  O347  1  0.38458148  0.72643868  0.75909283  1
  O  O348  1  0.88724377  0.22364390  0.25373635  1
  O  O349  1  0.88434658  0.22917694  0.76014228  1
  O  O350  1  0.91305529  0.71370090  0.22224750  1
  O  O351  1  0.86670602  0.73831223  0.74857588  1
  O  O352  1  0.37903870  0.49659086  0.49182248  1
  O  O353  1  0.40210455  0.49469912  1.00501026  1
  O  O354  1  0.35794867  0.99320985  0.49666794  1
  O  O355  1  0.39519055  0.99116619  0.99466701  1
  O  O356  1  0.89359963  0.49139549  0.50491584  1
  O  O357  1  0.87831243  0.48810407  0.99662026  1
  O  O358  1  0.89136554  0.98917850  0.51120538  1
  O  O359  1  0.86321918  1.00312504  0.97466061  1
  O  O360  1  0.13036311  0.01875269  -0.02812274  1
  O  O361  1  0.11999732  -0.01107047  0.50939640  1
  O  O362  1  0.08700440  0.50997220  -0.00733828  1
  O  O363  1  0.12043469  0.49296226  0.52145271  1
  O  O364  1  0.62160053  0.01588242  -0.00508871  1
  O  O365  1  0.61267519  0.02008090  0.50509369  1
  O  O366  1  0.61903801  0.49525401  0.01474092  1
  O  O367  1  0.60220424  0.50290688  0.48966811  1
  O  O368  1  0.38902689  0.37734471  0.11716639  1
  O  O369  1  0.36714496  0.37842813  0.63074088  1
  O  O370  1  0.39500496  0.85411711  0.10132679  1
  O  O371  1  0.38436055  0.88111399  0.60308129  1
  O  O372  1  0.88555535  0.35665355  0.08926538  1
  O  O373  1  0.86948236  0.35886779  0.61473155  1
  O  O374  1  0.85433816  0.88085467  0.13917822  1
  O  O375  1  0.87072999  0.86722823  0.62116195  1
  O  O376  1  0.07539979  0.20147664  0.35634569  1
  O  O377  1  0.13317511  0.07688368  0.90827884  1
  O  O378  1  0.13843631  0.61459667  0.38178160  1
  O  O379  1  0.12414629  0.64029228  0.87150293  1
  O  O380  1  0.61380131  0.13280450  0.39138100  1
  O  O381  1  0.61644563  0.13869653  0.88232604  1
  O  O382  1  0.62292011  0.65220063  0.38015078  1
  O  O383  1  0.72978588  0.58245676  0.87526008  1
