# generated using pymatgen
data_VZnO4
_symmetry_space_group_name_H-M   'P 1'
_cell_length_a   16.85618402
_cell_length_b   16.92341219
_cell_length_c   16.95410671
_cell_angle_alpha   89.80998990
_cell_angle_beta   89.89587295
_cell_angle_gamma   90.00668049
_symmetry_Int_Tables_number   1
_chemical_formula_structural   VZnO4
_chemical_formula_sum   'V64 Zn64 O256'
_cell_volume   4836.36422363
_cell_formula_units_Z   64
loop_
 _symmetry_equiv_pos_site_id
 _symmetry_equiv_pos_as_xyz
  1  'x, y, z'
loop_
 _atom_site_type_symbol
 _atom_site_label
 _atom_site_symmetry_multiplicity
 _atom_site_fract_x
 _atom_site_fract_y
 _atom_site_fract_z
 _atom_site_occupancy
  V  V0  1  0.50307836  0.01721268  0.49685289  1
  V  V1  1  0.23598269  0.25791165  0.48650516  1
  V  V2  1  0.01226446  0.21594573  0.23908887  1
  V  V3  1  0.22702957  0.51651178  0.74643900  1
  V  V4  1  0.87623691  0.33892621  0.51981159  1
  V  V5  1  0.00164092  0.89381192  0.87523244  1
  V  V6  1  0.38879401  0.87102636  -0.00826332  1
  V  V7  1  0.00489487  0.36981581  0.89557371  1
  V  V8  1  0.88357440  0.13445487  0.74580783  1
  V  V9  1  0.59597366  0.75582741  0.86306133  1
  V  V10  1  0.87872753  0.52213569  0.89100315  1
  V  V11  1  0.62990960  0.50699075  0.59164535  1
  V  V12  1  0.24645816  0.90663704  0.62672538  1
  V  V13  1  -0.01329853  0.41235091  0.37741489  1
  V  V14  1  0.11976056  0.50875748  0.15938191  1
  V  V15  1  0.01356974  0.00102350  0.02073910  1
  V  V16  1  0.73317505  0.85798810  0.12805950  1
  V  V17  1  0.74392710  0.00090274  0.25550141  1
  V  V18  1  0.13481209  0.74450495  0.86598257  1
  V  V19  1  0.00386556  0.75034389  0.73614249  1
  V  V20  1  0.37199701  0.03806171  0.86244544  1
  V  V21  1  0.62891064  0.00463412  0.62474740  1
  V  V22  1  0.23005581  0.12771672  0.36640014  1
  V  V23  1  0.37874383  0.40154855  0.00493386  1
  V  V24  1  0.37248568  0.00833274  0.36781477  1
  V  V25  1  0.50827462  0.86585429  0.37061694  1
  V  V26  1  0.11669910  0.61674305  -0.00023905  1
  V  V27  1  0.62341479  0.62846029  -0.01177998  1
  V  V28  1  0.37788432  0.12116794  0.23056827  1
  V  V29  1  0.25032869  0.74259306  0.00089857  1
  V  V30  1  0.25295741  0.38342544  0.15278376  1
  V  V31  1  0.74928110  0.75327413  0.55725514  1
  V  V32  1  0.16098032  0.74557422  0.38467213  1
  V  V33  1  0.12520835  0.14787945  0.00797032  1
  V  V34  1  0.62260886  0.24694799  0.87059894  1
  V  V35  1  0.38222381  0.73534500  0.13898156  1
  V  V36  1  0.37387298  0.74741615  0.62354294  1
  V  V37  1  0.75757397  0.11927889  0.88768527  1
  V  V38  1  0.50659310  0.23570641  0.23234826  1
  V  V39  1  0.75565018  0.11359133  0.39857294  1
  V  V40  1  -0.00608386  0.86894992  0.36979165  1
  V  V41  1  0.10543759  0.32397990  0.74976305  1
  V  V42  1  0.49038444  0.13763418  0.64369161  1
  V  V43  1  0.63242878  0.47712115  0.08009137  1
  V  V44  1  0.25985522  0.26403347  -0.00301869  1
  V  V45  1  0.74629779  0.64576121  0.35503143  1
  V  V46  1  0.58945191  0.88316910  0.74983636  1
  V  V47  1  0.87015061  0.88874013  -0.00948411  1
  V  V48  1  0.62116203  0.37068125  0.27655786  1
  V  V49  1  0.87431594  0.87516213  0.53019345  1
  V  V50  1  0.24752593  0.88377934  0.12347035  1
  V  V51  1  0.37083035  0.88777105  0.50728230  1
  V  V52  1  0.62074320  0.22834446  0.39068258  1
  V  V53  1  0.12168442  0.87672911  0.24555106  1
  V  V54  1  0.76126312  0.74443261  -0.03492003  1
  V  V55  1  0.75953902  -0.00895709  0.75683712  1
  V  V56  1  0.00991366  0.00004380  0.50732307  1
  V  V57  1  0.13965432  0.91236446  0.75761503  1
  V  V58  1  0.76556320  0.49145136  0.73535927  1
  V  V59  1  0.59556152  0.12114293  0.00681652  1
  V  V60  1  0.48936338  0.36676653  0.85999029  1
  V  V61  1  0.38985434  0.63072609  0.76778456  1
  V  V62  1  0.88510518  0.74130787  0.12175869  1
  V  V63  1  0.74183631  0.48770121  0.25175425  1
  Zn  Zn64  1  0.19842016  0.18226061  0.17486186  1
  Zn  Zn65  1  0.22210880  0.36328908  0.62604798  1
  Zn  Zn66  1  0.16764879  0.70124120  0.17761475  1
  Zn  Zn67  1  0.20429250  0.70334288  0.67933576  1
  Zn  Zn68  1  0.69360253  0.18430478  0.18989505  1
  Zn  Zn69  1  0.69246270  0.17499329  0.69563449  1
  Zn  Zn70  1  0.74475252  0.63604970  0.13845198  1
  Zn  Zn71  1  0.64449261  0.68581704  0.67670968  1
  Zn  Zn72  1  0.31920908  0.29282739  0.32252175  1
  Zn  Zn73  1  0.29028337  0.35294509  0.82541777  1
  Zn  Zn74  1  0.31557246  0.82980313  0.30230256  1
  Zn  Zn75  1  0.31594551  0.81679537  0.80757623  1
  Zn  Zn76  1  0.82782853  0.27992482  0.33865041  1
  Zn  Zn77  1  0.79590728  0.30099786  0.79934698  1
  Zn  Zn78  1  0.81372055  0.82445258  0.29689344  1
  Zn  Zn79  1  0.79578246  0.78903544  0.75927520  1
  Zn  Zn80  1  0.16813339  0.44166493  0.45553532  1
  Zn  Zn81  1  0.18564556  0.43350387  0.92652003  1
  Zn  Zn82  1  0.18722958  0.94067923  0.42715840  1
  Zn  Zn83  1  0.19885727  0.94527296  0.94054779  1
  Zn  Zn84  1  0.72206801  0.41337859  0.44416988  1
  Zn  Zn85  1  0.70541738  0.43181368  0.90439382  1
  Zn  Zn86  1  0.69224785  0.92717303  0.44401209  1
  Zn  Zn87  1  0.67150970  0.93692018  0.93138269  1
  Zn  Zn88  1  0.30709948  0.06251988  0.04066816  1
  Zn  Zn89  1  0.28781056  0.10869940  0.57795860  1
  Zn  Zn90  1  0.30129586  0.56107148  0.07066845  1
  Zn  Zn91  1  0.34206075  0.53622309  0.61295910  1
  Zn  Zn92  1  0.70931850  0.03714125  0.07288163  1
  Zn  Zn93  1  0.82719830  0.05769424  0.56612109  1
  Zn  Zn94  1  0.92464163  0.54337864  0.08665291  1
  Zn  Zn95  1  0.79685423  0.55237953  0.52106290  1
  Zn  Zn96  1  0.46007212  0.42910720  0.17655200  1
  Zn  Zn97  1  0.46981348  0.45749959  0.72802441  1
  Zn  Zn98  1  0.43636475  0.92292228  0.18638294  1
  Zn  Zn99  1  0.42350114  0.97258950  0.68944292  1
  Zn  Zn100  1  0.91812823  0.35528195  0.19095414  1
  Zn  Zn101  1  0.94448962  0.42474023  0.68858444  1
  Zn  Zn102  1  0.91945391  0.92828685  0.18694047  1
  Zn  Zn103  1  0.95129125  0.95115010  0.69407246  1
  Zn  Zn104  1  0.04704899  0.04835644  0.29988644  1
  Zn  Zn105  1  0.08381550  0.11698437  0.81377490  1
  Zn  Zn106  1  0.05465999  0.58574118  0.35034332  1
  Zn  Zn107  1  0.04443807  0.56466541  0.81030622  1
  Zn  Zn108  1  0.56733047  0.05344965  0.30560853  1
  Zn  Zn109  1  0.55470752  0.06323120  0.82144890  1
  Zn  Zn110  1  0.59401935  0.53204908  0.38481398  1
  Zn  Zn111  1  0.56595761  0.56738493  0.82295421  1
  Zn  Zn112  1  0.43123114  0.19914147  0.42906045  1
  Zn  Zn113  1  0.42987720  0.19928774  0.94599959  1
  Zn  Zn114  1  0.37627538  0.72373677  0.41071164  1
  Zn  Zn115  1  0.43186502  0.67824559  0.94735661  1
  Zn  Zn116  1  0.94856211  0.17843723  0.42335169  1
  Zn  Zn117  1  0.93399006  0.17803033  0.94904600  1
  Zn  Zn118  1  0.90727740  0.68113960  0.45688980  1
  Zn  Zn119  1  0.94932151  0.69875392  0.92698515  1
  Zn  Zn120  1  0.06940949  0.32976638  0.08204706  1
  Zn  Zn121  1  0.05955049  0.31708568  0.53808657  1
  Zn  Zn122  1  0.06310997  0.81241572  0.05701266  1
  Zn  Zn123  1  0.07703101  0.82467950  0.55526841  1
  Zn  Zn124  1  0.56106692  0.30612213  0.04332113  1
  Zn  Zn125  1  0.61317871  0.28733579  0.59673578  1
  Zn  Zn126  1  0.56404096  0.79228303  0.06009467  1
  Zn  Zn127  1  0.55492797  0.82064655  0.56051447  1
  O  O128  1  0.13999214  0.11267504  0.10291638  1
  O  O129  1  0.12698914  0.11891011  0.62386119  1
  O  O130  1  0.13564498  0.61564777  0.10993723  1
  O  O131  1  0.13872012  0.63918771  0.59752200  1
  O  O132  1  0.63854084  0.12613171  0.10616683  1
  O  O133  1  0.61173138  0.10750882  0.63702183  1
  O  O134  1  0.63838494  0.64196928  0.08720348  1
  O  O135  1  0.60298499  0.60283265  0.60851808  1
  O  O136  1  0.32428940  0.45863455  0.38448264  1
  O  O137  1  0.38469778  0.37518398  0.88917744  1
  O  O138  1  0.37832033  0.89237379  0.38369989  1
  O  O139  1  0.36918967  0.87209274  0.89267058  1
  O  O140  1  0.88167526  0.36004764  0.39525629  1
  O  O141  1  0.88342748  0.40035442  0.88032804  1
  O  O142  1  0.89765465  0.84298783  0.37708585  1
  O  O143  1  0.89852508  0.87766102  0.88041791  1
  O  O144  1  0.26796841  0.00566614  0.37086962  1
  O  O145  1  0.29485227  0.00822967  0.93489901  1
  O  O146  1  0.26300912  0.49979239  0.39169496  1
  O  O147  1  0.25574128  0.47143254  0.83635897  1
  O  O148  1  0.73829836  0.00578946  0.36927411  1
  O  O149  1  0.73754481  0.00941071  0.86259173  1
  O  O150  1  0.75164932  0.48226096  0.35104079  1
  O  O151  1  0.77519927  0.50674113  0.85032709  1
  O  O152  1  0.23666341  0.49598579  0.13802006  1
  O  O153  1  0.25019403  0.47796015  0.64787852  1
  O  O154  1  0.25297558  0.98120405  0.10901063  1
  O  O155  1  0.25288493  1.00664018  0.62486794  1
  O  O156  1  0.70956928  0.51182741  0.14193768  1
  O  O157  1  0.73080415  0.49863751  0.61988902  1
  O  O158  1  0.75859041  0.96650010  0.14116373  1
  O  O159  1  0.73341284  1.00612682  0.64084133  1
  O  O160  1  -0.01912095  0.39912698  0.27764835  1
  O  O161  1  0.00755294  0.36701601  0.76296736  1
  O  O162  1  0.00962203  0.86701057  0.25864370  1
  O  O163  1  0.02367396  0.88605725  0.76167122  1
  O  O164  1  0.51647808  0.35609648  0.24703127  1
  O  O165  1  0.47027002  0.34572643  0.76406370  1
  O  O166  1  0.49771040  0.87982089  0.27001536  1
  O  O167  1  0.49139239  0.89307865  0.75039935  1
  O  O168  1  0.49788385  0.12691635  0.24081284  1
  O  O169  1  0.49160430  0.12055046  0.74236849  1
  O  O170  1  0.53421189  0.64655605  0.26342163  1
  O  O171  1  0.49083916  0.63144998  0.75724845  1
  O  O172  1  0.98930664  0.11655970  0.23135350  1
  O  O173  1  0.98094899  0.10916317  0.76688804  1
  O  O174  1  0.98496107  0.69128691  0.36928445  1
  O  O175  1  1.01229460  0.65072782  0.74512034  1
  O  O176  1  0.36373622  0.27063224  0.01008684  1
  O  O177  1  0.34572770  0.27415788  0.43449991  1
  O  O178  1  0.36335214  0.75350710  0.00299564  1
  O  O179  1  0.36963426  0.78107705  0.51076407  1
  O  O180  1  0.86832926  0.23869209  0.03191825  1
  O  O181  1  0.90064581  0.24084210  0.50640833  1
  O  O182  1  0.86996946  0.75942187  -0.01377261  1
  O  O183  1  0.86226194  0.76391050  0.52115728  1
  O  O184  1  0.13337375  0.24707489  0.48766946  1
  O  O185  1  0.12642683  0.25172237  1.01198106  1
  O  O186  1  0.14870134  0.77436773  0.48265408  1
  O  O187  1  0.13510799  0.74407052  0.99157460  1
  O  O188  1  0.61219049  0.24255883  0.48743722  1
  O  O189  1  0.62332766  0.22666123  0.98973727  1
  O  O190  1  0.64987625  0.76427478  0.53362889  1
  O  O191  1  0.63635143  0.75084971  0.97254699  1
  O  O192  1  0.51041688  0.25008895  0.13410337  1
  O  O193  1  0.51469879  0.23415429  0.62409751  1
  O  O194  1  0.48242136  0.74583831  0.12178590  1
  O  O195  1  0.47425471  0.76433331  0.62284674  1
  O  O196  1  0.99376812  0.27679473  0.14871163  1
  O  O197  1  1.06869628  0.16061672  0.61359884  1
  O  O198  1  0.98560215  0.74599410  0.10793289  1
  O  O199  1  1.02415696  0.76919458  0.63938951  1
  O  O200  1  -0.01475557  0.24255918  0.33640344  1
  O  O201  1  -0.02379023  0.27237124  0.89867770  1
  O  O202  1  0.03390918  0.75779058  0.38538163  1
  O  O203  1  0.02433827  0.77061661  0.86851872  1
  O  O204  1  0.51785314  0.23773934  0.35898732  1
  O  O205  1  0.50909583  0.26222705  0.88970612  1
  O  O206  1  0.47977975  0.76857309  0.38691268  1
  O  O207  1  0.49911027  0.75197222  0.87714761  1
  O  O208  1  0.25128748  0.13072899  0.46952561  1
  O  O209  1  0.24802936  0.15918614  1.01403079  1
  O  O210  1  0.17751307  0.59293215  0.54685618  1
  O  O211  1  0.24431181  0.63954757  0.99693076  1
  O  O212  1  0.74957193  0.10665785  0.49774145  1
  O  O213  1  0.75594790  0.10572498  0.98662708  1
  O  O214  1  0.75973697  0.65313432  0.54778262  1
  O  O215  1  0.74818482  0.64609234  0.97390647  1
  O  O216  1  0.25964089  0.38189979  0.00494382  1
  O  O217  1  0.23368016  0.36635721  0.51072953  1
  O  O218  1  0.25264183  0.86095576  0.00978294  1
  O  O219  1  0.26245585  0.90019673  0.51209939  1
  O  O220  1  0.81656600  0.35673650  -0.09583723  1
  O  O221  1  0.76505976  0.33360632  0.51163185  1
  O  O222  1  0.76376251  0.87587928  -0.01799788  1
  O  O223  1  0.76531273  0.87018225  0.51348055  1
  O  O224  1  0.11152486  0.53814187  0.25379018  1
  O  O225  1  0.12715153  0.51557215  0.74765645  1
  O  O226  1  0.12026571  0.97581497  0.24283625  1
  O  O227  1  0.13363917  1.00966701  0.76362480  1
  O  O228  1  0.61699247  0.47648148  0.28255108  1
  O  O229  1  0.65073207  0.53055332  0.74508247  1
  O  O230  1  0.64242754  0.98857358  0.24716665  1
  O  O231  1  0.62015951  0.99187322  0.74771692  1
  O  O232  1  0.38936075  0.00976073  0.25835466  1
  O  O233  1  0.35190323  0.01416265  0.76544400  1
  O  O234  1  0.44790952  0.51518401  0.28070900  1
  O  O235  1  0.38135450  0.52871448  0.72371998  1
  O  O236  1  0.83566215  -0.06112676  0.26407939  1
  O  O237  1  0.86161936  -0.00156905  0.75214293  1
  O  O238  1  0.84588790  0.48316055  0.22450524  1
  O  O239  1  0.86468602  0.50607111  0.72017759  1
  O  O240  1  0.09089426  0.39906604  0.38970543  1
  O  O241  1  0.11033623  0.36836462  0.86364822  1
  O  O242  1  0.12861487  0.86729814  0.35891010  1
  O  O243  1  0.13193065  0.88086870  0.86526251  1
  O  O244  1  0.64022597  0.34869750  0.37551712  1
  O  O245  1  0.62256098  0.35523323  0.88225786  1
  O  O246  1  0.60738354  0.87106438  0.39109931  1
  O  O247  1  0.61427322  0.86795312  0.85944093  1
  O  O248  1  0.36756680  0.11450910  0.13340014  1
  O  O249  1  0.39263683  0.12655713  0.61693908  1
  O  O250  1  0.36564629  0.63627668  0.12591835  1
  O  O251  1  0.35794628  0.64963066  0.60383304  1
  O  O252  1  0.83200081  0.19630016  0.08797083  1
  O  O253  1  0.87411668  0.11878643  0.64600678  1
  O  O254  1  0.86147929  0.63685394  0.11382905  1
  O  O255  1  0.94900635  0.56177588  0.58408248  1
  O  O256  1  0.24247192  0.28229725  0.12100215  1
  O  O257  1  0.26397693  0.22946436  0.58013322  1
  O  O258  1  0.25384419  0.75152321  0.11136876  1
  O  O259  1  0.26798276  0.78691309  0.63065718  1
  O  O260  1  0.79171543  0.24220423  0.13863917  1
  O  O261  1  0.71402461  0.26739214  0.63991974  1
  O  O262  1  0.76040999  0.75562377  0.09061524  1
  O  O263  1  0.74391830  0.75480111  0.66120371  1
  O  O264  1  0.22352013  0.23244911  0.36361724  1
  O  O265  1  0.24759577  0.27031543  0.89793024  1
  O  O266  1  0.26798765  0.75345011  0.37584721  1
  O  O267  1  0.24065996  0.76050875  0.88556188  1
  O  O268  1  0.73525082  0.22245421  0.37400233  1
  O  O269  1  0.73415049  0.22725182  0.87364322  1
  O  O270  1  0.75578904  0.74492753  0.35680795  1
  O  O271  1  0.75560375  0.76126285  0.86531593  1
  O  O272  1  0.01196363  0.11116326  0.00614343  1
  O  O273  1  0.00249481  0.09621039  0.47745579  1
  O  O274  1  0.01596376  0.62876598  -0.00274397  1
  O  O275  1  -0.01936622  0.61988462  0.54024906  1
  O  O276  1  0.49625293  0.12891352  0.01122856  1
  O  O277  1  0.49663794  0.11710679  0.49100817  1
  O  O278  1  0.52213055  0.62347889  -0.01348124  1
  O  O279  1  0.46754656  0.56340488  0.50183139  1
  O  O280  1  0.41514875  0.35169232  0.54932678  1
  O  O281  1  0.48160213  0.38133639  1.00059053  1
  O  O282  1  0.48663093  0.89185468  0.49627563  1
  O  O283  1  0.48583500  0.85465329  0.99766034  1
  O  O284  1  0.98044429  0.38185417  0.49474600  1
  O  O285  1  1.02201857  0.38942985  0.99277170  1
  O  O286  1  0.98877911  0.87479873  0.49430610  1
  O  O287  1  0.99655043  0.88030074  0.99085773  1
  O  O288  1  0.47216394  0.50594487  0.35130224  1
  O  O289  1  0.51673858  0.46887108  0.84162873  1
  O  O290  1  0.49861068  0.99531442  0.38436472  1
  O  O291  1  0.46938050  1.01171194  0.88039934  1
  O  O292  1  0.97688533  0.51426827  0.38846815  1
  O  O293  1  0.98298963  0.48934177  0.86802141  1
  O  O294  1  1.00001443  0.97231642  0.37711047  1
  O  O295  1  1.00955876  0.99161292  0.89140355  1
  O  O296  1  -0.00885685  -0.01564625  0.11734864  1
  O  O297  1  0.00259910  0.00276545  0.60882911  1
  O  O298  1  0.02553061  0.50444971  0.12260507  1
  O  O299  1  0.00171343  0.51222895  0.61433926  1
  O  O300  1  0.46545551  -0.01650094  0.09013261  1
  O  O301  1  0.50211367  0.01470116  0.61113686  1
  O  O302  1  0.54070646  0.48892905  0.12120318  1
  O  O303  1  0.53176833  0.45554265  0.62672199  1
  O  O304  1  0.27505358  0.37133553  0.24931842  1
  O  O305  1  0.21445804  0.34770776  0.74156228  1
  O  O306  1  0.24339334  0.87940750  0.23110966  1
  O  O307  1  0.24610210  0.89097476  0.74551057  1
  O  O308  1  0.71555319  0.37982035  0.22950254  1
  O  O309  1  0.74968256  0.39257879  0.74737318  1
  O  O310  1  0.71779147  0.83395896  0.22245111  1
  O  O311  1  0.74162890  0.89195170  0.75514072  1
  O  O312  1  0.27094081  0.13048133  0.25503022  1
  O  O313  1  0.27884645  0.17597920  0.74125214  1
  O  O314  1  0.36491405  0.59820883  0.30108644  1
  O  O315  1  0.25596953  0.61749323  0.74246035  1
  O  O316  1  0.75897981  0.09976012  0.24052115  1
  O  O317  1  0.75971530  0.11167555  0.76194931  1
  O  O318  1  0.74198883  0.60576860  0.25427572  1
  O  O319  1  0.70645902  0.59614796  0.73835581  1
  O  O320  1  0.37690940  0.11395741  0.36360953  1
  O  O321  1  0.36946861  0.13889375  0.87348529  1
  O  O322  1  0.37977946  0.60867331  0.37291807  1
  O  O323  1  0.37317890  0.62505330  0.86537185  1
  O  O324  1  0.85357235  0.12205090  0.37801731  1
  O  O325  1  0.86133140  0.12599998  0.87311880  1
  O  O326  1  0.82614557  0.60981681  0.41392849  1
  O  O327  1  0.89522961  0.61933673  0.86677452  1
  O  O328  1  0.13807014  0.39734374  0.15034601  1
  O  O329  1  0.10300312  0.33645169  0.64217354  1
  O  O330  1  0.13594218  0.85582087  0.13467185  1
  O  O331  1  0.14110423  0.89040195  0.64301803  1
  O  O332  1  0.64788621  0.37938335  0.06854717  1
  O  O333  1  0.60084912  0.40374544  0.63537903  1
  O  O334  1  0.63988845  0.86885719  0.09192631  1
  O  O335  1  0.60880107  0.89263413  0.64190037  1
  O  O336  1  0.11301897  0.22178423  0.23935231  1
  O  O337  1  0.10293493  0.22675031  0.76899859  1
  O  O338  1  0.14148303  0.75844995  0.26710907  1
  O  O339  1  0.13359929  0.75746732  0.76091212  1
  O  O340  1  0.62098011  0.24923786  0.25215517  1
  O  O341  1  0.61584606  0.23147861  0.77266077  1
  O  O342  1  0.56974697  0.70933285  0.25977645  1
  O  O343  1  0.60670365  0.76854140  0.75271531  1
  O  O344  1  0.39599060  0.23330016  0.25124082  1
  O  O345  1  0.33069795  0.22642131  0.74348509  1
  O  O346  1  0.37159216  0.75191330  0.23813307  1
  O  O347  1  0.36586567  0.73600846  0.73956850  1
  O  O348  1  0.86553514  0.26226759  0.23599358  1
  O  O349  1  0.87369838  0.23462432  0.75420244  1
  O  O350  1  0.87180682  0.75667365  0.21884723  1
  O  O351  1  0.90587261  0.76904564  0.75124744  1
  O  O352  1  0.41189315  0.51410254  0.51319175  1
  O  O353  1  0.36846754  0.50050355  0.99609964  1
  O  O354  1  0.38865474  1.00214256  0.48561700  1
  O  O355  1  0.40682680  0.97936166  1.03522905  1
  O  O356  1  0.82642998  0.45057990  0.49396488  1
  O  O357  1  0.86870665  0.51776291  0.98931669  1
  O  O358  1  0.88429614  0.97939109  0.50268612  1
  O  O359  1  0.88849460  0.98603455  0.99899602  1
  O  O360  1  0.11241177  -0.01716629  0.01099505  1
  O  O361  1  0.10997825  -0.02194475  0.49844659  1
  O  O362  1  0.13590374  0.52036212  -0.01818631  1
  O  O363  1  0.12847333  0.54030105  0.51141565  1
  O  O364  1  0.62042526  0.01498348  -0.00271099  1
  O  O365  1  0.61473212  -0.00671920  0.51654383  1
  O  O366  1  0.64703524  0.51801850  -0.02069127  1
  O  O367  1  0.63411679  0.48764197  0.48784645  1
  O  O368  1  0.36519721  0.39898942  0.11860647  1
  O  O369  1  0.38186531  0.37164241  0.61110489  1
  O  O370  1  0.36120903  0.85797916  0.11775162  1
  O  O371  1  0.36918738  0.89624444  0.61574160  1
  O  O372  1  0.86476837  0.45032732  0.14911702  1
  O  O373  1  0.88944808  0.35686846  0.61822657  1
  O  O374  1  0.86735826  0.86054277  0.10061139  1
  O  O375  1  0.88144529  0.88026701  0.62850197  1
  O  O376  1  0.13658892  0.09611429  0.35841469  1
  O  O377  1  0.13995384  0.11268769  0.91160512  1
  O  O378  1  0.14562027  0.64602055  0.38337724  1
  O  O379  1  0.12287501  0.64246071  0.88025129  1
  O  O380  1  0.63189575  0.12298724  0.37502084  1
  O  O381  1  0.62299152  0.12640037  0.89005336  1
  O  O382  1  0.65458793  0.62678470  0.39496326  1
  O  O383  1  0.62513886  0.65089031  0.86984910  1
