# generated using pymatgen
data_VZnO4
_symmetry_space_group_name_H-M   'P 1'
_cell_length_a   16.98450799
_cell_length_b   17.06046920
_cell_length_c   17.01328962
_cell_angle_alpha   89.11156612
_cell_angle_beta   89.49958875
_cell_angle_gamma   90.60998698
_symmetry_Int_Tables_number   1
_chemical_formula_structural   VZnO4
_chemical_formula_sum   'V64 Zn64 O256'
_cell_volume   4928.76610441
_cell_formula_units_Z   64
loop_
 _symmetry_equiv_pos_site_id
 _symmetry_equiv_pos_as_xyz
  1  'x, y, z'
loop_
 _atom_site_type_symbol
 _atom_site_label
 _atom_site_symmetry_multiplicity
 _atom_site_fract_x
 _atom_site_fract_y
 _atom_site_fract_z
 _atom_site_occupancy
  V  V0  1  0.50321828  -0.01211716  -0.00519405  1
  V  V1  1  0.75260126  0.76474278  0.01485585  1
  V  V2  1  0.26946049  0.64681160  0.37402171  1
  V  V3  1  0.74935259  0.40496582  0.14699576  1
  V  V4  1  0.88924198  0.75765661  0.61106914  1
  V  V5  1  0.23848673  0.73358422  -0.02175066  1
  V  V6  1  0.00311921  -0.00146334  0.48995631  1
  V  V7  1  0.61541590  0.62677767  0.03592921  1
  V  V8  1  0.37927166  0.25745740  0.61103284  1
  V  V9  1  0.23889465  0.37433215  0.62217542  1
  V  V10  1  0.51035034  0.25353282  0.74112145  1
  V  V11  1  0.08607128  0.35977109  0.78193261  1
  V  V12  1  0.48435502  0.47531136  0.00108011  1
  V  V13  1  0.37406417  0.74499867  0.62656811  1
  V  V14  1  0.12342014  0.61381251  0.49293335  1
  V  V15  1  0.88806070  0.61413457  0.76074365  1
  V  V16  1  0.88276995  0.02614443  0.86152991  1
  V  V17  1  0.49073694  0.51218725  0.50501133  1
  V  V18  1  -0.00699722  0.87383626  0.85943303  1
  V  V19  1  0.11484108  0.73802139  0.85466364  1
  V  V20  1  0.50077981  0.63042112  0.64349758  1
  V  V21  1  -0.03520002  0.13517674  0.13252405  1
  V  V22  1  -0.00517918  0.13085189  0.62089697  1
  V  V23  1  0.74257922  0.86280756  0.64357623  1
  V  V24  1  0.75169240  0.62510332  0.37128439  1
  V  V25  1  0.25039842  0.85219254  0.10960791  1
  V  V26  1  0.63880237  0.49011493  0.63372365  1
  V  V27  1  0.62867823  0.76806440  0.38339011  1
  V  V28  1  0.49590788  0.21695632  0.22762011  1
  V  V29  1  0.14073717  0.12336725  0.46921702  1
  V  V30  1  0.63702897  0.63252364  0.50721219  1
  V  V31  1  -0.01834470  0.49542895  0.01732329  1
  V  V32  1  0.36389399  -0.00023553  0.85383954  1
  V  V33  1  0.73570758  0.23611952  0.48289032  1
  V  V34  1  0.13463054  0.87764718  0.74390313  1
  V  V35  1  0.02886724  0.63854979  0.11963106  1
  V  V36  1  0.25606893  0.25430649  0.47928663  1
  V  V37  1  0.24702197  0.34141858  0.09322597  1
  V  V38  1  -0.01492202  -0.02447122  0.01019040  1
  V  V39  1  0.36949789  0.12152458  0.73252269  1
  V  V40  1  0.40317428  -0.01281010  0.33923487  1
  V  V41  1  0.64068764  0.24279798  0.93568804  1
  V  V42  1  0.00101304  0.60697970  0.61441994  1
  V  V43  1  0.50204861  0.75022282  0.25646443  1
  V  V44  1  0.37350506  0.85760323  -0.02578919  1
  V  V45  1  0.71247624  0.59669163  0.86777925  1
  V  V46  1  0.86111790  0.00776828  0.37165491  1
  V  V47  1  0.12639359  0.86213941  0.23559974  1
  V  V48  1  0.38658709  0.51153872  0.36234377  1
  V  V49  1  0.25252357  0.61377115  0.84430995  1
  V  V50  1  -0.00121363  0.87729271  0.36946209  1
  V  V51  1  0.87886869  0.37068893  0.50914103  1
  V  V52  1  0.42292485  0.89491956  0.50836095  1
  V  V53  1  0.23933488  0.13006106  0.86858404  1
  V  V54  1  0.49988614  0.37405261  0.38568226  1
  V  V55  1  0.25648578  0.87088392  0.60479366  1
  V  V56  1  0.87869779  0.64556479  0.23472335  1
  V  V57  1  0.47028207  0.36997211  0.85804864  1
  V  V58  1  0.22874756  0.49052665  0.27272061  1
  V  V59  1  0.89111318  0.50868670  0.37707128  1
  V  V60  1  0.13832492  0.00766314  0.62020280  1
  V  V61  1  0.13114599  0.76129673  0.38306344  1
  V  V62  1  0.61128846  0.42601443  0.25814257  1
  V  V63  1  0.15255129  0.00371505  0.11148294  1
  Zn  Zn64  1  0.16497224  0.17997176  0.02009614  1
  Zn  Zn65  1  0.18508959  0.19820166  0.68672436  1
  Zn  Zn66  1  0.23994366  0.63259791  0.15523894  1
  Zn  Zn67  1  0.17907497  0.69413575  0.67227944  1
  Zn  Zn68  1  0.69577158  0.24182118  0.27098082  1
  Zn  Zn69  1  0.74513727  0.33919377  0.64488173  1
  Zn  Zn70  1  0.69231988  0.70982519  0.19754423  1
  Zn  Zn71  1  0.71506836  0.66728224  0.68363542  1
  Zn  Zn72  1  0.30923337  0.30081426  0.27966515  1
  Zn  Zn73  1  0.30233760  0.30360109  0.79793152  1
  Zn  Zn74  1  0.31304449  0.83873099  0.31392267  1
  Zn  Zn75  1  0.30796241  0.80971473  0.79929837  1
  Zn  Zn76  1  0.78714259  0.35487312  0.34944891  1
  Zn  Zn77  1  0.69505107  0.40720845  0.80603908  1
  Zn  Zn78  1  0.82084810  0.80736808  0.33752281  1
  Zn  Zn79  1  0.82676539  0.80285113  0.78502690  1
  Zn  Zn80  1  0.24239792  0.47432481  0.48356692  1
  Zn  Zn81  1  0.19014371  0.43303966  0.93132802  1
  Zn  Zn82  1  0.20333013  0.94498484  0.42152252  1
  Zn  Zn83  1  0.18140506  0.93810135  0.93478574  1
  Zn  Zn84  1  0.68298114  0.44357702  0.45015211  1
  Zn  Zn85  1  0.66952878  0.43642993  0.96966334  1
  Zn  Zn86  1  0.66975121  0.95836901  0.44834588  1
  Zn  Zn87  1  0.71703712  0.96227944  0.95068889  1
  Zn  Zn88  1  0.32442847  0.05876633  0.03808858  1
  Zn  Zn89  1  0.31844486  0.06420134  0.55082683  1
  Zn  Zn90  1  0.32180365  0.50291335  0.08029080  1
  Zn  Zn91  1  0.30115824  0.55168775  0.67309499  1
  Zn  Zn92  1  0.78436208  0.21425954  0.08455192  1
  Zn  Zn93  1  0.81137563  0.06806228  0.54873249  1
  Zn  Zn94  1  0.80772323  0.57934418  0.05046594  1
  Zn  Zn95  1  0.82309150  0.55705609  0.55845192  1
  Zn  Zn96  1  0.43762846  0.38015521  0.17293148  1
  Zn  Zn97  1  0.43638382  0.43353847  0.67407401  1
  Zn  Zn98  1  0.43347601  0.87854934  0.17131295  1
  Zn  Zn99  1  0.56190641  0.91834963  0.84717045  1
  Zn  Zn100  1  0.90970332  0.47031300  0.18473856  1
  Zn  Zn101  1  0.88670432  0.40036296  0.73298135  1
  Zn  Zn102  1  0.94955781  0.96733536  0.20755176  1
  Zn  Zn103  1  0.94123366  0.94207640  0.68260541  1
  Zn  Zn104  1  0.07640159  0.05620289  0.29231660  1
  Zn  Zn105  1  0.05589596  0.05914935  0.80074266  1
  Zn  Zn106  1  0.05879157  0.58721874  0.30282183  1
  Zn  Zn107  1  0.06804519  0.54598241  0.78917562  1
  Zn  Zn108  1  0.49958796  0.01945503  0.20610636  1
  Zn  Zn109  1  0.54375535  0.09353490  0.83807102  1
  Zn  Zn110  1  0.55547498  0.59633165  0.31860765  1
  Zn  Zn111  1  0.43263661  0.54885706  0.82308505  1
  Zn  Zn112  1  0.41301112  0.18466393  0.39939306  1
  Zn  Zn113  1  0.48042640  0.18226724  1.05364311  1
  Zn  Zn114  1  0.44720967  0.70170048  0.45207956  1
  Zn  Zn115  1  0.40226864  0.64722877  1.01308662  1
  Zn  Zn116  1  0.93289429  0.18770888  0.43821193  1
  Zn  Zn117  1  0.98012158  0.17699762  0.95244905  1
  Zn  Zn118  1  0.94015907  0.69399722  0.44113969  1
  Zn  Zn119  1  0.94024803  0.68549891  0.94634157  1
  Zn  Zn120  1  0.05494455  0.30860649  0.06526607  1
  Zn  Zn121  1  0.06467861  0.31127128  0.54423362  1
  Zn  Zn122  1  0.06673090  0.81148869  0.04586520  1
  Zn  Zn123  1  0.06386697  0.81685228  0.56029137  1
  Zn  Zn124  1  0.61907682  0.29770557  0.10582405  1
  Zn  Zn125  1  0.56981970  0.31076685  0.55363585  1
  Zn  Zn126  1  0.54225505  0.77765072  0.04823342  1
  Zn  Zn127  1  0.57206199  0.80698334  0.58050717  1
  O  O128  1  0.15159016  0.10200605  0.11294678  1
  O  O129  1  0.13111931  0.11101281  0.61619987  1
  O  O130  1  0.12648844  0.62587793  0.13122942  1
  O  O131  1  0.11796774  0.63084373  0.60063497  1
  O  O132  1  0.67255376  0.06644896  0.06515437  1
  O  O133  1  0.65101027  0.07461488  0.67531204  1
  O  O134  1  0.63823652  0.62777660  0.13053715  1
  O  O135  1  0.61983446  0.62601389  0.62372841  1
  O  O136  1  0.39549106  0.40777477  0.38022687  1
  O  O137  1  0.37088075  0.37216575  0.85806616  1
  O  O138  1  0.42527938  0.89513104  0.40485981  1
  O  O139  1  0.36609291  0.87918722  0.86906641  1
  O  O140  1  0.88584215  0.41054073  0.35111839  1
  O  O141  1  0.86763333  0.30572903  0.95725287  1
  O  O142  1  0.89549938  0.88402119  0.37793996  1
  O  O143  1  0.89424664  0.86364065  0.85589905  1
  O  O144  1  0.29334595  -0.05732655  0.35320648  1
  O  O145  1  0.26023903  -0.00628189  0.86796938  1
  O  O146  1  0.27578725  0.51975452  0.38147664  1
  O  O147  1  0.23580909  0.51808162  0.86605764  1
  O  O148  1  0.76446267  -0.00774150  0.39433469  1
  O  O149  1  0.78265441  0.02076464  0.87630310  1
  O  O150  1  0.74747629  0.52472867  0.38138781  1
  O  O151  1  0.72137600  0.49259273  0.88093483  1
  O  O152  1  0.24646526  0.50026648  0.17313647  1
  O  O153  1  0.25979427  0.47750013  0.59735020  1
  O  O154  1  0.25137976  0.97691042  0.09678178  1
  O  O155  1  0.24088098  0.98951071  0.61217666  1
  O  O156  1  0.75714077  0.50312369  0.13104686  1
  O  O157  1  0.73596989  0.51891704  0.62317509  1
  O  O158  1  0.73936204  1.02792083  0.04797176  1
  O  O159  1  0.75560835  0.96964412  0.59527287  1
  O  O160  1  0.00119803  0.31795905  0.25638544  1
  O  O161  1  -0.01654673  0.36079467  0.77322854  1
  O  O162  1  0.01254699  0.88537569  0.26448271  1
  O  O163  1  0.01692602  0.88027483  0.75325737  1
  O  O164  1  0.50415827  0.38955996  0.27246802  1
  O  O165  1  0.48918120  0.36078945  0.74386594  1
  O  O166  1  0.61355274  0.94050993  0.21174757  1
  O  O167  1  0.50310657  0.76552461  0.82184810  1
  O  O168  1  0.50538535  0.12804509  0.18095962  1
  O  O169  1  0.47876836  0.14429051  0.75428732  1
  O  O170  1  0.49069977  0.65373244  0.24219360  1
  O  O171  1  0.50052804  0.61538203  0.73932751  1
  O  O172  1  0.99696325  0.07753733  0.21407310  1
  O  O173  1  1.01091641  0.12160055  0.71909479  1
  O  O174  1  0.98861065  0.63513934  0.22758547  1
  O  O175  1  1.00065340  0.61609625  0.72534053  1
  O  O176  1  0.37907729  0.14548757  0.07619668  1
  O  O177  1  0.36454515  0.22875547  0.50655988  1
  O  O178  1  0.35216828  0.75041909  -0.02872031  1
  O  O179  1  0.40078352  0.77880529  0.52000936  1
  O  O180  1  0.88579998  0.24537249  0.01232197  1
  O  O181  1  0.86682818  0.26731428  0.47971200  1
  O  O182  1  0.84223433  0.71654391  -0.00400231  1
  O  O183  1  0.87473000  0.75450790  0.51118689  1
  O  O184  1  0.14323641  0.23143199  0.48716426  1
  O  O185  1  0.07245355  0.23035831  0.98331562  1
  O  O186  1  0.13192052  0.76234638  0.48299194  1
  O  O187  1  0.13305833  0.75534614  0.96493849  1
  O  O188  1  0.63518305  0.25511631  0.48178679  1
  O  O189  1  0.57309192  0.24085049  1.01772309  1
  O  O190  1  0.61647977  0.73933505  0.49617592  1
  O  O191  1  0.64252492  0.73228702  1.00790514  1
  O  O192  1  0.49420826  0.28140326  0.14518540  1
  O  O193  1  0.48653068  0.25806211  0.61999131  1
  O  O194  1  0.51808484  0.79787221  0.15913692  1
  O  O195  1  0.49749039  0.73417468  0.63294154  1
  O  O196  1  1.00778696  0.22411977  0.13584967  1
  O  O197  1  1.00768014  0.22731925  0.59814695  1
  O  O198  1  1.01360243  0.73783040  0.11211973  1
  O  O199  1  0.99377502  0.74709461  0.61564886  1
  O  O200  1  0.00630672  0.22328220  0.34919305  1
  O  O201  1  -0.09436429  0.30141016  0.89349114  1
  O  O202  1  0.01296764  0.77272339  0.38319417  1
  O  O203  1  0.01204800  0.75863898  0.87248647  1
  O  O204  1  0.48898333  0.27979725  0.40647105  1
  O  O205  1  0.50158496  0.26715675  0.85037441  1
  O  O206  1  0.51848711  0.74617248  0.37095214  1
  O  O207  1  0.51689775  0.72924641  0.88576414  1
  O  O208  1  0.24407838  0.12744057  0.49120059  1
  O  O209  1  0.24051588  0.10654384  0.97173315  1
  O  O210  1  0.23078761  0.63470889  0.47350543  1
  O  O211  1  0.23745309  0.63560218  0.96465437  1
  O  O212  1  0.74736568  0.13418697  0.48631885  1
  O  O213  1  0.68071388  0.12589797  1.11119381  1
  O  O214  1  0.73846907  0.63062029  0.50160844  1
  O  O215  1  0.71332021  0.60315077  0.98504449  1
  O  O216  1  0.26231934  0.42155908  0.02173061  1
  O  O217  1  0.25235210  0.35551340  0.49357924  1
  O  O218  1  0.25195611  0.85981824  -0.01121104  1
  O  O219  1  0.24392140  0.87571091  0.50720791  1
  O  O220  1  0.71607447  0.37497594  0.05168656  1
  O  O221  1  0.76490187  0.36929233  0.46769497  1
  O  O222  1  0.75356308  0.85739199  -0.02156660  1
  O  O223  1  0.74048378  0.91059328  0.53597600  1
  O  O224  1  0.13025497  0.50424926  0.28367195  1
  O  O225  1  0.11256135  0.45473204  0.74750473  1
  O  O226  1  0.12885383  0.98109376  0.21649310  1
  O  O227  1  0.12448702  0.98895906  0.72561791  1
  O  O228  1  0.61241682  0.52389936  0.25504643  1
  O  O229  1  0.62943261  0.47629040  0.73122293  1
  O  O230  1  0.70970166  1.05136516  0.24045485  1
  O  O231  1  0.61704449  1.00793884  0.78923397  1
  O  O232  1  0.39320845  -0.03204644  0.23259918  1
  O  O233  1  0.37685854  0.01310555  0.74927107  1
  O  O234  1  0.38310390  0.51642002  0.26647730  1
  O  O235  1  0.37726392  0.50169091  0.73588248  1
  O  O236  1  0.86384614  -0.00648786  0.27184882  1
  O  O237  1  0.89552374  0.00661203  0.76281195  1
  O  O238  1  0.87249987  0.53854554  0.26856988  1
  O  O239  1  0.88007786  0.51644333  0.73953850  1
  O  O240  1  0.06187284  0.38967723  0.35060458  1
  O  O241  1  0.12212642  0.36136255  0.87883899  1
  O  O242  1  0.12996948  0.87259024  0.35904439  1
  O  O243  1  0.12706650  0.87202672  0.85143835  1
  O  O244  1  0.60755192  0.39929578  0.37009259  1
  O  O245  1  0.64746647  0.34247012  0.89443935  1
  O  O246  1  0.63154542  0.86560916  0.39531972  1
  O  O247  1  0.56133694  0.81967744  0.79559058  1
  O  O248  1  0.29414152  0.12164862  0.21292302  1
  O  O249  1  0.37146996  0.12848475  0.62974548  1
  O  O250  1  0.33394796  0.61300989  0.09565081  1
  O  O251  1  0.38529308  0.63888322  0.62305657  1
  O  O252  1  0.86501295  0.14601833  0.13337108  1
  O  O253  1  0.89667807  0.10960415  0.60882560  1
  O  O254  1  0.85844229  0.63816170  0.13845240  1
  O  O255  1  0.89302333  0.63003446  0.61105882  1
  O  O256  1  0.25064280  0.25657201  0.04451850  1
  O  O257  1  0.25891857  0.25647684  0.60925236  1
  O  O258  1  0.23555214  0.74764303  0.08924660  1
  O  O259  1  0.26229399  0.75866219  0.61734052  1
  O  O260  1  0.71695906  0.26728362  0.16190444  1
  O  O261  1  0.74985843  0.25033479  0.58322973  1
  O  O262  1  0.74700727  0.76777786  0.11598211  1
  O  O263  1  0.76678306  0.75697680  0.63163589  1
  O  O264  1  0.27530465  0.24918425  0.38144378  1
  O  O265  1  0.25132987  0.22935098  0.86777835  1
  O  O266  1  0.24435988  0.75190743  0.36472395  1
  O  O267  1  0.23446439  0.74023828  0.85974329  1
  O  O268  1  0.75324859  0.24829854  0.36517420  1
  O  O269  1  0.72727805  0.22097538  0.97935290  1
  O  O270  1  0.73584697  0.74559571  0.38244519  1
  O  O271  1  0.73855342  0.71375527  0.89071686  1
  O  O272  1  -0.01084945  0.08639962  0.03966384  1
  O  O273  1  0.02395998  0.11251560  0.49438193  1
  O  O274  1  0.00218905  0.62044208  0.01729822  1
  O  O275  1  0.01577934  0.63254040  0.50003240  1
  O  O276  1  0.51512105  0.08523705  -0.00737272  1
  O  O277  1  0.51248218  0.13094383  0.47341944  1
  O  O278  1  0.51544063  0.66003509  0.03062625  1
  O  O279  1  0.51097568  0.62279885  0.51401129  1
  O  O280  1  0.51244695  0.40577222  0.49233898  1
  O  O281  1  0.48308851  0.37782773  0.97189787  1
  O  O282  1  0.51879930  0.89599577  0.53649989  1
  O  O283  1  0.47532151  0.85068042  0.98721805  1
  O  O284  1  0.97951146  0.37019009  0.49794535  1
  O  O285  1  0.99074369  0.39640756  1.03231610  1
  O  O286  1  1.02164817  0.89324244  0.48307770  1
  O  O287  1  1.00914338  0.87384760  0.97028954  1
  O  O288  1  0.49234989  0.52853690  0.39029256  1
  O  O289  1  0.50823647  0.46679943  0.85570021  1
  O  O290  1  0.50489158  1.00270566  0.32388725  1
  O  O291  1  0.47798884  0.99744014  0.87037071  1
  O  O292  1  0.98725583  0.53010180  0.37773783  1
  O  O293  1  1.02902840  0.50453872  0.90876456  1
  O  O294  1  1.01044931  0.99353884  0.37753602  1
  O  O295  1  1.00329039  0.98362994  0.87396755  1
  O  O296  1  -0.02991076  -0.06093129  0.10258080  1
  O  O297  1  0.01909872  0.00059067  0.60315831  1
  O  O298  1  -0.00837616  0.52104173  0.12332957  1
  O  O299  1  0.00062072  0.51298004  0.60656759  1
  O  O300  1  0.49823578  -0.03247599  0.09625754  1
  O  O301  1  0.61903461  0.01306130  0.70118274  1
  O  O302  1  0.43765645  0.46523356  0.09431280  1
  O  O303  1  0.51334162  0.50997426  0.61643403  1
  O  O304  1  0.24390131  0.39458355  0.29601130  1
  O  O305  1  0.25212097  0.37090686  0.72099593  1
  O  O306  1  0.24566707  0.85284228  0.21314879  1
  O  O307  1  0.23834422  0.87449319  0.72970878  1
  O  O308  1  0.71778009  0.39523817  0.25926907  1
  O  O309  1  0.77831871  0.36313113  0.74739216  1
  O  O310  1  0.74891124  0.87444868  0.25675547  1
  O  O311  1  0.76802372  0.88896467  0.73630314  1
  O  O312  1  0.24605824  0.17161081  0.23185405  1
  O  O313  1  0.26393379  0.13092807  0.74813279  1
  O  O314  1  0.24733385  0.61913415  0.27646285  1
  O  O315  1  0.23445611  0.61885202  0.73782944  1
  O  O316  1  0.74254604  0.10897711  0.26805318  1
  O  O317  1  0.77396913  0.16613782  0.75994645  1
  O  O318  1  0.75641596  0.64044628  0.26854493  1
  O  O319  1  0.76507649  0.61646560  0.77240735  1
  O  O320  1  0.37828842  0.07935739  0.37124859  1
  O  O321  1  0.35870454  0.10607722  0.86022396  1
  O  O322  1  0.37172633  0.63811178  0.38519214  1
  O  O323  1  0.35114805  0.62895112  0.84634098  1
  O  O324  1  0.88048586  0.10522376  0.38129247  1
  O  O325  1  0.91937514  0.12003063  0.87784705  1
  O  O326  1  0.85992859  0.62835733  0.38851181  1
  O  O327  1  0.90347986  0.62146852  0.85803450  1
  O  O328  1  0.15111515  0.34517683  0.12373185  1
  O  O329  1  0.14082806  0.36824998  0.60365571  1
  O  O330  1  0.13666041  0.87017530  0.11731951  1
  O  O331  1  0.13413214  0.88068195  0.62562044  1
  O  O332  1  0.60943129  0.40101195  0.15882008  1
  O  O333  1  0.64259164  0.39073731  0.60214652  1
  O  O334  1  0.65035768  0.93315140  0.14902151  1
  O  O335  1  0.64367915  0.84990662  0.65385383  1
  O  O336  1  0.10772450  0.34972122  0.38801142  1
  O  O337  1  0.12107569  0.27298833  0.73901565  1
  O  O338  1  0.11937162  0.76457083  0.26068898  1
  O  O339  1  0.12369460  0.76531671  0.74711066  1
  O  O340  1  0.58091994  0.22972867  0.27838453  1
  O  O341  1  0.60489699  0.25004818  0.72489552  1
  O  O342  1  0.61892386  0.75740447  0.27240116  1
  O  O343  1  0.72386159  0.76275946  0.83045017  1
  O  O344  1  0.40871298  0.22961916  0.28453056  1
  O  O345  1  0.37375861  0.24125796  0.72358123  1
  O  O346  1  0.40827796  0.79489049  0.26710325  1
  O  O347  1  0.37771541  0.76408571  0.72389994  1
  O  O348  1  0.96142020  0.27176416  0.30077196  1
  O  O349  1  0.80236338  0.21558321  0.80267173  1
  O  O350  1  0.87584104  0.74156960  0.26446555  1
  O  O351  1  0.87916827  0.72051004  0.72783839  1
  O  O352  1  0.39276243  0.51249124  0.50383696  1
  O  O353  1  0.42109098  0.54185927  0.95680556  1
  O  O354  1  0.39199831  0.98996360  0.51775680  1
  O  O355  1  0.38466087  0.97563621  0.98005655  1
  O  O356  1  0.86864451  0.48674570  0.48263617  1
  O  O357  1  0.88354093  0.51132463  0.99829910  1
  O  O358  1  0.90170714  0.99856433  0.48985040  1
  O  O359  1  0.89286740  0.98259387  0.97078984  1
  O  O360  1  0.10811251  -0.01510038  0.01436741  1
  O  O361  1  0.13295120  0.01060965  0.49641432  1
  O  O362  1  0.08932348  0.50634895  -0.03561716  1
  O  O363  1  0.12961761  0.51691314  0.48215036  1
  O  O364  1  0.59820925  -0.04840501  -0.04553633  1
  O  O365  1  0.59664563  0.03429756  0.49618327  1
  O  O366  1  0.58356090  0.51479905  0.01075304  1
  O  O367  1  0.61981269  0.52268130  0.50699582  1
  O  O368  1  0.32471035  0.33938753  0.16855052  1
  O  O369  1  0.36900171  0.35895583  0.60922357  1
  O  O370  1  0.35505248  0.85709242  0.09104805  1
  O  O371  1  0.35956697  0.87417614  0.61335134  1
  O  O372  1  0.84737476  0.38028928  0.15953753  1
  O  O373  1  0.86161458  0.37914562  0.60790229  1
  O  O374  1  0.77488232  0.90307481  0.19371580  1
  O  O375  1  0.88209271  0.85950569  0.63034728  1
  O  O376  1  0.13608638  0.11248167  0.37042596  1
  O  O377  1  0.14171912  0.11108892  0.85017748  1
  O  O378  1  0.11656953  0.65326910  0.37943796  1
  O  O379  1  0.11921383  0.63818215  0.84658258  1
  O  O380  1  0.56519514  0.08655500  0.44269704  1
  O  O381  1  0.62213725  0.16459675  0.87676635  1
  O  O382  1  0.63641093  0.63641208  0.39203070  1
  O  O383  1  0.62121938  0.61262870  0.84864148  1
