# generated using pymatgen
data_VZnO4
_symmetry_space_group_name_H-M   'P 1'
_cell_length_a   16.84204957
_cell_length_b   16.85855749
_cell_length_c   16.83916410
_cell_angle_alpha   89.86185157
_cell_angle_beta   89.99970263
_cell_angle_gamma   90.04350198
_symmetry_Int_Tables_number   1
_chemical_formula_structural   VZnO4
_chemical_formula_sum   'V64 Zn64 O256'
_cell_volume   4781.17339462
_cell_formula_units_Z   64
loop_
 _symmetry_equiv_pos_site_id
 _symmetry_equiv_pos_as_xyz
  1  'x, y, z'
loop_
 _atom_site_type_symbol
 _atom_site_label
 _atom_site_symmetry_multiplicity
 _atom_site_fract_x
 _atom_site_fract_y
 _atom_site_fract_z
 _atom_site_occupancy
  V  V0  1  0.01090532  0.25014756  0.75290826  1
  V  V1  1  -0.00149146  0.24592359  0.28207467  1
  V  V2  1  0.25029237  0.11864250  0.38884063  1
  V  V3  1  0.28461136  0.63262162  0.36370531  1
  V  V4  1  0.13423094  0.01112581  0.12258247  1
  V  V5  1  0.62676116  0.63311542  -0.01979870  1
  V  V6  1  0.86095192  0.74829614  0.11174668  1
  V  V7  1  0.50844367  -0.00261787  -0.03282746  1
  V  V8  1  0.74627755  0.61888734  0.38758511  1
  V  V9  1  0.86859141  0.61940273  0.24581462  1
  V  V10  1  0.24483871  0.37434128  0.11110869  1
  V  V11  1  0.24275523  0.49819649  0.74597057  1
  V  V12  1  0.37180937  0.62775391  0.77473586  1
  V  V13  1  0.49941526  0.23331449  0.25993382  1
  V  V14  1  0.73703086  0.47615210  0.76051849  1
  V  V15  1  0.62276753  0.74733020  0.38132312  1
  V  V16  1  0.73515351  0.49748882  0.23386692  1
  V  V17  1  0.24652699  0.15318260  0.90489286  1
  V  V18  1  0.51101629  0.49631525  0.01272678  1
  V  V19  1  0.00759830  0.50626357  0.01221990  1
  V  V20  1  0.86920608  0.85950596  0.50802203  1
  V  V21  1  0.25109846  0.73536677  0.02760016  1
  V  V22  1  0.00008868  0.00636025  -0.01189211  1
  V  V23  1  0.37211129  0.86961276  -0.01142059  1
  V  V24  1  0.72871976  0.15793825  0.37576781  1
  V  V25  1  0.12309340  0.64647812  0.47234340  1
  V  V26  1  0.01124564  0.62135731  0.64594264  1
  V  V27  1  0.11753690  -0.01207971  0.63850242  1
  V  V28  1  0.88201408  0.50357081  0.87203688  1
  V  V29  1  -0.00333578  0.74987324  0.23104618  1
  V  V30  1  0.37135304  0.25815106  0.62018983  1
  V  V31  1  0.86890235  0.88801169  -0.00841009  1
  V  V32  1  0.62842120  0.35708121  0.23940941  1
  V  V33  1  0.24823397  0.86562313  0.62840797  1
  V  V34  1  -0.02430332  0.76588414  0.76132081  1
  V  V35  1  0.86478670  0.36265408  0.49297494  1
  V  V36  1  0.28371517  0.48924016  0.26114788  1
  V  V37  1  -0.00822297  0.12587183  0.61980417  1
  V  V38  1  0.73939243  0.00648008  0.72268023  1
  V  V39  1  0.62621939  0.00766796  0.14118457  1
  V  V40  1  -0.01583469  0.13260275  0.12949109  1
  V  V41  1  0.86429845  0.12879829  0.74519673  1
  V  V42  1  0.00795527  0.40437472  0.37983672  1
  V  V43  1  0.37891715  0.74018543  0.61903345  1
  V  V44  1  0.73739425  0.85418647  0.62276634  1
  V  V45  1  0.00144283  -0.00558113  0.49546753  1
  V  V46  1  0.00148355  0.85836871  0.37587511  1
  V  V47  1  0.49274680  0.11896710  0.11842030  1
  V  V48  1  0.50220893  0.38323870  0.38621557  1
  V  V49  1  0.36605803  0.24716297  0.11714114  1
  V  V50  1  0.13543285  0.75374547  0.87060526  1
  V  V51  1  0.50361306  0.37619515  0.86515766  1
  V  V52  1  0.50757973  0.87735354  0.36642777  1
  V  V53  1  0.36654829  0.48997141  0.89215298  1
  V  V54  1  0.37823393  0.88026419  0.49843597  1
  V  V55  1  0.12309573  0.87822569  0.23595499  1
  V  V56  1  0.51970535  0.00093080  0.51996619  1
  V  V57  1  0.74062464  0.88144868  0.13605574  1
  V  V58  1  0.26481234  0.01176915  0.75054458  1
  V  V59  1  0.74679512  0.12630118  0.88404710  1
  V  V60  1  0.86362327  0.36234347  0.00546684  1
  V  V61  1  0.50584989  0.75301906  0.76358843  1
  V  V62  1  0.86684912  -0.00205754  0.35583585  1
  V  V63  1  0.62167508  0.25129508  0.89725210  1
  Zn  Zn64  1  0.14511588  0.22681667  0.15189022  1
  Zn  Zn65  1  0.17334651  0.18736810  0.65398870  1
  Zn  Zn66  1  0.20837448  0.70057447  0.22205649  1
  Zn  Zn67  1  0.18311912  0.68566634  0.69917507  1
  Zn  Zn68  1  0.69849347  0.17887807  0.19089100  1
  Zn  Zn69  1  0.70342133  0.26498196  0.72318950  1
  Zn  Zn70  1  0.68769625  0.70098034  0.19617273  1
  Zn  Zn71  1  0.69797168  0.68152342  0.71071415  1
  Zn  Zn72  1  0.33025491  0.31859939  0.30216970  1
  Zn  Zn73  1  0.29976170  0.31767815  0.82693757  1
  Zn  Zn74  1  0.32796057  0.82981895  0.29295628  1
  Zn  Zn75  1  0.31184336  0.81654162  0.81314323  1
  Zn  Zn76  1  0.82383773  0.31203437  0.30343927  1
  Zn  Zn77  1  0.82969413  0.31245794  0.82084198  1
  Zn  Zn78  1  0.80992643  0.80712274  0.31547136  1
  Zn  Zn79  1  0.81596772  0.83219750  0.80108926  1
  Zn  Zn80  1  0.17703728  0.47543062  0.42670854  1
  Zn  Zn81  1  0.18687994  0.57025309  0.94750678  1
  Zn  Zn82  1  0.18175594  0.91678518  0.44154300  1
  Zn  Zn83  1  0.19057363  0.93780221  0.93392650  1
  Zn  Zn84  1  0.71058021  0.40576398  0.40170374  1
  Zn  Zn85  1  0.68716782  0.43383032  0.94377919  1
  Zn  Zn86  1  0.68973815  0.93421647  0.43804191  1
  Zn  Zn87  1  0.69212035  0.95563909  0.94700881  1
  Zn  Zn88  1  0.32167199  0.05166128  0.05827742  1
  Zn  Zn89  1  0.31953325  0.05220675  0.57888748  1
  Zn  Zn90  1  0.32321528  0.55641400  0.08110420  1
  Zn  Zn91  1  0.26208673  0.58375760  0.56386762  1
  Zn  Zn92  1  0.81082164  0.06649526  0.06779083  1
  Zn  Zn93  1  0.81249321  0.05839910  0.54424125  1
  Zn  Zn94  1  0.81002159  0.55759091  0.04967070  1
  Zn  Zn95  1  0.83192222  0.57153568  0.57437515  1
  Zn  Zn96  1  0.44544191  0.42070822  0.18556516  1
  Zn  Zn97  1  0.41732449  0.44421679  0.69145446  1
  Zn  Zn98  1  0.44895313  0.91102625  0.16463211  1
  Zn  Zn99  1  0.44296465  0.93132627  0.69233333  1
  Zn  Zn100  1  0.93524654  0.42775411  0.19346179  1
  Zn  Zn101  1  0.94949969  0.44228201  0.69484825  1
  Zn  Zn102  1  0.94096002  0.93553909  0.17282716  1
  Zn  Zn103  1  0.92486655  0.94051476  0.69167265  1
  Zn  Zn104  1  0.05025489  0.05761783  0.30640434  1
  Zn  Zn105  1  0.07082075  0.07534619  0.81133771  1
  Zn  Zn106  1  0.05638688  0.58283291  0.31564969  1
  Zn  Zn107  1  0.06074228  0.57344257  0.82147491  1
  Zn  Zn108  1  0.56929546  0.05950189  0.32455989  1
  Zn  Zn109  1  0.57282941  0.07461368  0.80059655  1
  Zn  Zn110  1  0.57373878  0.54718499  0.32733049  1
  Zn  Zn111  1  0.55870296  0.56593353  0.81265781  1
  Zn  Zn112  1  0.45112360  0.18137855  0.44630884  1
  Zn  Zn113  1  0.43005465  0.17968231  0.92859301  1
  Zn  Zn114  1  0.44230418  0.68832400  0.44013874  1
  Zn  Zn115  1  0.44208380  0.68710636  0.95160439  1
  Zn  Zn116  1  0.90189453  0.17820807  0.44209774  1
  Zn  Zn117  1  0.93868868  0.18565473  0.93488034  1
  Zn  Zn118  1  0.92922293  0.67883438  0.43581200  1
  Zn  Zn119  1  0.93853956  0.68082486  0.93264227  1
  Zn  Zn120  1  0.03141995  0.34429833  0.08469163  1
  Zn  Zn121  1  0.05223942  0.28875917  0.52291816  1
  Zn  Zn122  1  0.07704161  0.83411643  0.02787100  1
  Zn  Zn123  1  0.06608639  0.79452899  0.57250150  1
  Zn  Zn124  1  0.55463997  0.31098394  0.06300791  1
  Zn  Zn125  1  0.57317338  0.32832619  0.58136266  1
  Zn  Zn126  1  0.56151923  0.82923913  0.03669459  1
  Zn  Zn127  1  0.55827375  0.79947543  0.56120185  1
  O  O128  1  0.12159759  0.11304922  0.13006167  1
  O  O129  1  0.10190678  0.09534960  0.62418571  1
  O  O130  1  0.12171619  0.59887092  0.15225544  1
  O  O131  1  0.11155676  0.65112977  0.61341518  1
  O  O132  1  0.61853541  0.11333875  0.12997706  1
  O  O133  1  0.65430367  0.12715731  0.59882166  1
  O  O134  1  0.57034778  0.63891339  0.17141279  1
  O  O135  1  0.62479404  0.55600589  0.56837970  1
  O  O136  1  0.40118785  0.35887610  0.37961844  1
  O  O137  1  0.38450349  0.38397539  0.88059823  1
  O  O138  1  0.38889280  0.86541925  0.39177411  1
  O  O139  1  0.38095543  0.87073744  0.88819112  1
  O  O140  1  0.88136881  0.37811649  0.38710161  1
  O  O141  1  0.87476371  0.38661019  0.89070710  1
  O  O142  1  0.88278511  0.87541630  0.38123571  1
  O  O143  1  0.86173078  0.87895072  0.89287640  1
  O  O144  1  0.24710390  0.01263927  0.38819626  1
  O  O145  1  0.24856442  -0.00724617  0.85121692  1
  O  O146  1  0.26859622  0.51134519  0.36885866  1
  O  O147  1  0.26525025  0.50149577  0.88580462  1
  O  O148  1  0.76634769  -0.00837603  0.37703600  1
  O  O149  1  0.73314577  0.02371489  0.85959900  1
  O  O150  1  0.74397623  0.51380665  0.35553465  1
  O  O151  1  0.75576963  0.48628321  0.86395017  1
  O  O152  1  0.26077680  0.48001031  0.14311243  1
  O  O153  1  0.26454411  0.50436126  0.64537177  1
  O  O154  1  0.23335105  1.00121285  0.11876791  1
  O  O155  1  0.23291317  0.99047189  0.62827072  1
  O  O156  1  0.75501585  0.49847882  0.13684416  1
  O  O157  1  0.75663315  0.53494467  0.65864280  1
  O  O158  1  0.73748851  0.99623166  0.12506965  1
  O  O159  1  0.74916408  1.00002821  0.62062727  1
  O  O160  1  -0.00515348  0.36651487  0.27795359  1
  O  O161  1  -0.00602328  0.34877980  0.73850167  1
  O  O162  1  -0.00099000  0.86365974  0.25561159  1
  O  O163  1  -0.02411914  0.86855293  0.76384546  1
  O  O164  1  0.51119037  0.35595425  0.25657705  1
  O  O165  1  0.49191153  0.38403561  0.76445321  1
  O  O166  1  0.50226318  0.87775863  0.26756660  1
  O  O167  1  0.49777585  0.85396092  0.75332740  1
  O  O168  1  0.50842594  0.12897792  0.24445930  1
  O  O169  1  0.55320875  0.17068364  0.72729323  1
  O  O170  1  0.52824152  0.61986498  0.23013325  1
  O  O171  1  0.47629129  0.62352951  0.74981370  1
  O  O172  1  0.99940702  0.13424222  0.23886725  1
  O  O173  1  0.98809845  0.12210596  0.73666576  1
  O  O174  1  0.98106393  0.64108766  0.24864713  1
  O  O175  1  0.99993405  0.64029025  0.74882063  1
  O  O176  1  0.38083712  0.24166957  0.01878457  1
  O  O177  1  0.37740525  0.25133305  0.51299367  1
  O  O178  1  0.35801716  0.75338623  -0.00559009  1
  O  O179  1  0.38400308  0.75940301  0.51372083  1
  O  O180  1  0.87167711  0.26264304  -0.01792314  1
  O  O181  1  0.87744628  0.26413569  0.51328904  1
  O  O182  1  0.87752415  0.76116152  0.00910831  1
  O  O183  1  0.87755638  0.76070541  0.49472930  1
  O  O184  1  0.14220826  0.23104787  0.54740648  1
  O  O185  1  0.09848617  0.34241532  0.91464170  1
  O  O186  1  0.12912284  0.74846738  0.48894230  1
  O  O187  1  0.14839885  0.74550708  1.01118697  1
  O  O188  1  0.64139622  0.19089667  0.56450604  1
  O  O189  1  0.63315428  0.25429543  0.99530549  1
  O  O190  1  0.62081485  0.73945098  0.48741397  1
  O  O191  1  0.60450870  0.72918739  1.01221030  1
  O  O192  1  0.49544842  0.23342036  0.13019051  1
  O  O193  1  0.47599553  0.26228937  0.62497998  1
  O  O194  1  0.42296492  0.74453938  0.19567472  1
  O  O195  1  0.48235914  0.74675464  0.63686613  1
  O  O196  1  1.01994722  0.22917225  0.10891962  1
  O  O197  1  0.99911440  0.22620587  0.62013617  1
  O  O198  1  0.97862320  0.75953083  0.13028671  1
  O  O199  1  1.00103255  0.75673569  0.65610685  1
  O  O200  1  -0.00431735  0.23304703  0.38369840  1
  O  O201  1  0.00421843  0.23086263  0.85309737  1
  O  O202  1  -0.01066372  0.75701733  0.35953348  1
  O  O203  1  0.00701134  0.74526827  0.86652180  1
  O  O204  1  0.50078401  0.23630035  0.36178241  1
  O  O205  1  0.50842359  0.26107017  0.88767310  1
  O  O206  1  0.50964063  0.75856879  0.38014583  1
  O  O207  1  0.49676871  0.73891397  0.86362093  1
  O  O208  1  0.24887762  0.10896485  0.49510140  1
  O  O209  1  0.25171877  0.12235853  1.00284598  1
  O  O210  1  0.26322252  0.64967177  0.46472189  1
  O  O211  1  0.25800437  0.62956460  1.01828974  1
  O  O212  1  0.78585498  0.13506039  0.46546790  1
  O  O213  1  0.75644805  0.12504745  0.98250081  1
  O  O214  1  0.76861387  0.60731917  0.48447576  1
  O  O215  1  0.72026368  0.62060199  1.02022162  1
  O  O216  1  0.25327298  0.38412336  0.01617586  1
  O  O217  1  0.18113677  0.39835179  0.57173049  1
  O  O218  1  0.27050218  0.87679536  0.00878463  1
  O  O219  1  0.26506427  0.87887129  0.51068487  1
  O  O220  1  0.76250574  0.38106895  0.00967598  1
  O  O221  1  0.76277595  0.37999329  0.49559538  1
  O  O222  1  0.76086905  0.88920697  0.01238978  1
  O  O223  1  0.76000907  0.87052953  0.51123467  1
  O  O224  1  0.10560173  0.54292924  0.19826361  1
  O  O225  1  0.14526081  0.51795966  0.76392770  1
  O  O226  1  0.11322954  0.98819318  0.23721982  1
  O  O227  1  0.11763404  0.98759160  0.73891848  1
  O  O228  1  0.63165375  0.49432971  0.23836338  1
  O  O229  1  0.63792680  0.49431480  0.76387940  1
  O  O230  1  0.62392014  0.99799652  0.24017998  1
  O  O231  1  0.63895665  1.01359666  0.73435904  1
  O  O232  1  0.35611185  -0.08694619  0.22369138  1
  O  O233  1  0.36447641  0.00903298  0.72655290  1
  O  O234  1  0.38330614  0.49096085  0.25302542  1
  O  O235  1  0.36633848  0.51056328  0.77088118  1
  O  O236  1  0.87810907  -0.01945807  0.25719076  1
  O  O237  1  0.85565728  0.01564443  0.74741901  1
  O  O238  1  0.87185951  0.51698880  0.23955810  1
  O  O239  1  0.86920094  0.48489413  0.76699838  1
  O  O240  1  0.11086943  0.39516502  0.38771543  1
  O  O241  1  0.11849560  0.38037749  0.85693593  1
  O  O242  1  0.10597019  0.87468673  0.36311762  1
  O  O243  1  0.11487696  0.85291727  0.91014516  1
  O  O244  1  0.61388840  0.37898005  0.35098315  1
  O  O245  1  0.61540581  0.36189942  0.87234143  1
  O  O246  1  0.61809820  0.86130814  0.38331747  1
  O  O247  1  0.65843415  0.84720653  0.87459748  1
  O  O248  1  0.38719176  0.12469630  0.13076173  1
  O  O249  1  0.37160914  0.15216604  0.61838321  1
  O  O250  1  0.38194725  0.62294231  0.16264064  1
  O  O251  1  0.35395191  0.64179926  0.61931252  1
  O  O252  1  0.88367850  0.13184760  0.12582513  1
  O  O253  1  0.88444014  0.11219678  0.62894194  1
  O  O254  1  0.86010684  0.64212504  0.12996683  1
  O  O255  1  0.92207638  0.63511592  0.59427211  1
  O  O256  1  0.26112656  0.25196290  0.13215376  1
  O  O257  1  0.26567181  0.25736290  0.61490973  1
  O  O258  1  0.25726065  0.74651975  0.12711556  1
  O  O259  1  0.25613106  0.76146173  0.63476058  1
  O  O260  1  0.76036941  0.24262018  0.12351168  1
  O  O261  1  0.67055294  0.26893708  0.60787908  1
  O  O262  1  0.75219176  0.76405198  0.12213208  1
  O  O263  1  0.75215381  0.75615340  0.64135026  1
  O  O264  1  0.24055777  0.22224552  0.39274267  1
  O  O265  1  0.24265787  0.25663020  0.89919789  1
  O  O266  1  0.27622555  0.73000815  0.31762404  1
  O  O267  1  0.24003980  0.75631253  0.88182740  1
  O  O268  1  0.74170124  0.26084368  0.36918320  1
  O  O269  1  0.72994866  0.24425108  0.84819335  1
  O  O270  1  0.74165048  0.73262180  0.37534222  1
  O  O271  1  0.70802184  0.79212808  0.86225754  1
  O  O272  1  -0.00930566  0.11205440  0.00770930  1
  O  O273  1  -0.01256440  0.10158841  0.50934014  1
  O  O274  1  -0.01521783  0.60663507  0.00832526  1
  O  O275  1  0.02322819  0.62639667  0.46907830  1
  O  O276  1  0.49428737  0.11822972  0.01477438  1
  O  O277  1  0.49980480  0.10109885  0.50230622  1
  O  O278  1  0.51117068  0.60801663  -0.00133558  1
  O  O279  1  0.48777765  0.60127658  0.51596529  1
  O  O280  1  0.52775174  0.35510931  0.48188600  1
  O  O281  1  0.50820923  0.38869622  0.98956755  1
  O  O282  1  0.49227722  0.88044571  0.50334082  1
  O  O283  1  0.52773448  0.90033416  0.94389116  1
  O  O284  1  0.99273113  0.37283228  0.48472384  1
  O  O285  1  0.98900408  0.39024703  0.98996183  1
  O  O286  1  0.99296398  0.87026168  0.48844958  1
  O  O287  1  0.97998496  0.89301786  1.01077075  1
  O  O288  1  0.50037445  0.48564094  0.38484017  1
  O  O289  1  0.49252311  0.48874195  0.88127019  1
  O  O290  1  0.50937422  0.98136049  0.38924445  1
  O  O291  1  0.49655093  1.04113600  0.87539054  1
  O  O292  1  0.99447311  0.50345759  0.36786927  1
  O  O293  1  0.98793631  0.50506579  0.87982846  1
  O  O294  1  0.99561264  0.98384219  0.38226866  1
  O  O295  1  1.00725697  1.01077614  0.88877000  1
  O  O296  1  0.00336381  0.01727963  0.11957096  1
  O  O297  1  0.00413790  -0.01537063  0.61429143  1
  O  O298  1  0.00332507  0.48126287  0.11479321  1
  O  O299  1  0.01992031  0.51990725  0.65018983  1
  O  O300  1  0.51020682  0.00831629  0.12936920  1
  O  O301  1  0.50839357  -0.00818926  0.62117264  1
  O  O302  1  0.49950653  0.48956340  0.11234138  1
  O  O303  1  0.47400520  0.51407098  0.61404229  1
  O  O304  1  0.25152951  0.38837847  0.26271847  1
  O  O305  1  0.25302578  0.39659071  0.76143838  1
  O  O306  1  0.21793285  0.86541685  0.25680548  1
  O  O307  1  0.26039619  0.88744173  0.73222793  1
  O  O308  1  0.74022201  0.38631752  0.25604174  1
  O  O309  1  0.75010468  0.37134869  0.74132784  1
  O  O310  1  0.74924151  0.87173696  0.23518215  1
  O  O311  1  0.75414876  0.89477372  0.72874266  1
  O  O312  1  0.26804161  0.11846326  0.28657854  1
  O  O313  1  0.23632536  0.10771546  0.72482204  1
  O  O314  1  0.25108514  0.59462633  0.25186960  1
  O  O315  1  0.26537017  0.62078710  0.75319074  1
  O  O316  1  0.74991536  0.12769694  0.27948885  1
  O  O317  1  0.75716151  0.12722052  0.73480348  1
  O  O318  1  0.75319823  0.61635835  0.24662245  1
  O  O319  1  0.76330748  0.58989116  0.72672885  1
  O  O320  1  0.35503711  0.12480150  0.39972237  1
  O  O321  1  0.34449331  0.13589866  0.86798061  1
  O  O322  1  0.38469938  0.62333488  0.36565409  1
  O  O323  1  0.37548950  0.61636416  0.87694943  1
  O  O324  1  0.89440638  0.09562383  0.36271014  1
  O  O325  1  0.85583548  0.13222790  0.85756811  1
  O  O326  1  0.85930657  0.63270513  0.35378266  1
  O  O327  1  0.86229889  0.60361932  0.88589752  1
  O  O328  1  0.14234016  0.34855868  0.12296253  1
  O  O329  1  0.13493183  0.38180548  0.62563389  1
  O  O330  1  0.11284752  0.88570215  0.13101738  1
  O  O331  1  0.13874498  0.87689238  0.61718643  1
  O  O332  1  0.61940803  0.36972793  0.13970801  1
  O  O333  1  0.61129832  0.43336126  0.62136954  1
  O  O334  1  0.63397015  0.88678664  0.11598293  1
  O  O335  1  0.63861033  0.86294555  0.61813497  1
  O  O336  1  0.09886333  0.25086454  0.25514867  1
  O  O337  1  0.11034280  0.23958248  0.73332485  1
  O  O338  1  0.10301519  0.75542003  0.23316958  1
  O  O339  1  0.12855792  0.76180188  0.76813486  1
  O  O340  1  0.61734135  0.25175683  0.24413600  1
  O  O341  1  0.58594147  0.23711842  0.74950762  1
  O  O342  1  0.62499523  0.74850897  0.27481656  1
  O  O343  1  0.60322300  0.72671132  0.74108506  1
  O  O344  1  0.39272051  0.24371177  0.24051805  1
  O  O345  1  0.36509225  0.25948739  0.72427539  1
  O  O346  1  0.41455408  0.69358657  0.14010261  1
  O  O347  1  0.37792257  0.73858990  0.74830839  1
  O  O348  1  0.90053226  0.25515102  0.24486936  1
  O  O349  1  0.88037715  0.23463051  0.74284868  1
  O  O350  1  0.87490441  0.74537064  0.23588799  1
  O  O351  1  0.87530860  0.74343021  0.76723856  1
  O  O352  1  0.44356079  0.54248072  0.54566933  1
  O  O353  1  0.38893242  0.50720692  0.99483920  1
  O  O354  1  0.38595265  0.98417843  0.51456424  1
  O  O355  1  0.40073457  0.98229751  1.00476465  1
  O  O356  1  0.88707841  0.47124486  0.54114428  1
  O  O357  1  0.88048141  0.48859511  0.99382703  1
  O  O358  1  0.88674198  0.97951614  0.49120844  1
  O  O359  1  0.88152924  0.99610427  1.00270527  1
  O  O360  1  0.10989186  -0.00920328  0.01222197  1
  O  O361  1  0.10543189  -0.01637974  0.50253803  1
  O  O362  1  0.10836975  0.50222747  -0.00686794  1
  O  O363  1  0.16201782  0.54857536  0.51147974  1
  O  O364  1  0.60973887  0.00961744  0.00672358  1
  O  O365  1  0.61978092  -0.00800531  0.50503056  1
  O  O366  1  0.61599060  0.50973860  -0.00454005  1
  O  O367  1  0.62464997  0.48221983  0.55498108  1
  O  O368  1  0.36636121  0.35456318  0.13041219  1
  O  O369  1  0.36862808  0.36297931  0.61428876  1
  O  O370  1  0.45063165  0.84864756  0.06851174  1
  O  O371  1  0.36616111  0.86366382  0.61815138  1
  O  O372  1  0.89677787  0.36202086  0.10781057  1
  O  O373  1  0.87893336  0.41051970  0.60038341  1
  O  O374  1  0.85926383  0.86823768  0.11840029  1
  O  O375  1  0.86893749  0.87361254  0.61136802  1
  O  O376  1  0.14596096  0.11398395  0.37748850  1
  O  O377  1  0.15391025  0.12282495  0.86789130  1
  O  O378  1  0.14372009  0.63152798  0.36763909  1
  O  O379  1  0.12593695  0.64529833  0.88573401  1
  O  O380  1  0.63123262  0.13049827  0.38968297  1
  O  O381  1  0.63160908  0.14431180  0.87591951  1
  O  O382  1  0.63642357  0.62748061  0.37975285  1
  O  O383  1  0.63209807  0.62884345  0.87905571  1
