# generated using pymatgen
data_VZnO4
_symmetry_space_group_name_H-M   'P 1'
_cell_length_a   16.87923400
_cell_length_b   16.98986229
_cell_length_c   17.06159916
_cell_angle_alpha   90.42556826
_cell_angle_beta   90.03223234
_cell_angle_gamma   89.78482043
_symmetry_Int_Tables_number   1
_chemical_formula_structural   VZnO4
_chemical_formula_sum   'V64 Zn64 O256'
_cell_volume   4892.68462220
_cell_formula_units_Z   64
loop_
 _symmetry_equiv_pos_site_id
 _symmetry_equiv_pos_as_xyz
  1  'x, y, z'
loop_
 _atom_site_type_symbol
 _atom_site_label
 _atom_site_symmetry_multiplicity
 _atom_site_fract_x
 _atom_site_fract_y
 _atom_site_fract_z
 _atom_site_occupancy
  V  V0  1  -0.03108072  0.50000258  -0.00273571  1
  V  V1  1  0.63393870  0.77305092  0.39416162  1
  V  V2  1  0.88336480  0.76301545  0.63392192  1
  V  V3  1  -0.04281784  0.62063041  0.11634514  1
  V  V4  1  0.74932818  0.49920858  0.27359482  1
  V  V5  1  0.14153471  0.87003958  0.24088323  1
  V  V6  1  0.86003094  0.63190453  0.75406189  1
  V  V7  1  0.36079709  0.77357560  0.60491357  1
  V  V8  1  0.50357635  0.90874922  0.80715299  1
  V  V9  1  -0.00073429  0.25387898  0.23156197  1
  V  V10  1  0.13649035  0.77388462  0.88695282  1
  V  V11  1  -0.01139245  0.37610327  0.37797062  1
  V  V12  1  0.37310407  0.50512128  0.36458462  1
  V  V13  1  -0.00888937  0.75289390  0.24267410  1
  V  V14  1  0.51831703  0.39210525  0.88031706  1
  V  V15  1  0.62545892  0.77478210  0.82136442  1
  V  V16  1  0.22407138  0.61995796  0.37089818  1
  V  V17  1  0.16020659  0.22707923  0.87941473  1
  V  V18  1  0.64181352  0.88709939  0.24948875  1
  V  V19  1  0.63064513  0.09939091  0.02048289  1
  V  V20  1  0.24736764  0.25283366  0.51467249  1
  V  V21  1  0.88008629  0.24237515  0.64474571  1
  V  V22  1  0.14848149  0.61129288  -0.00450250  1
  V  V23  1  0.20242236  0.75470519  0.48885831  1
  V  V24  1  0.00511034  0.12034370  0.63077846  1
  V  V25  1  0.89592649  0.87294474  0.48939627  1
  V  V26  1  0.50526188  0.23361797  0.24763092  1
  V  V27  1  0.86505781  0.62410081  0.28365338  1
  V  V28  1  -0.01133405  0.35092074  0.86280913  1
  V  V29  1  0.13063285  0.48226729  0.63049645  1
  V  V30  1  0.25011139  0.00829900  0.71882822  1
  V  V31  1  0.62742292  0.63066734  0.50957153  1
  V  V32  1  0.13821020  0.37569491  0.24266037  1
  V  V33  1  0.00351885  0.10468399  0.11342515  1
  V  V34  1  0.73303884  0.25255278  0.02142485  1
  V  V35  1  0.11735002  0.11809192  0.49172528  1
  V  V36  1  0.35164237  0.10744858  0.26029546  1
  V  V37  1  0.50080768  0.74942123  0.26203218  1
  V  V38  1  0.62755665  0.52122352  0.12962996  1
  V  V39  1  0.76697356  0.24100543  0.49933619  1
  V  V40  1  0.62609728  0.12461375  0.51195785  1
  V  V41  1  0.12202292  0.88707719  0.73559317  1
  V  V42  1  0.14783469  0.49314042  0.12375675  1
  V  V43  1  0.63519455  0.24830675  0.37437068  1
  V  V44  1  0.37626798  0.00424977  0.89524474  1
  V  V45  1  0.49801018  0.36671264  0.36810431  1
  V  V46  1  0.87680026  -0.01842453  0.87909656  1
  V  V47  1  0.74021040  0.37823724  0.14274696  1
  V  V48  1  0.14162067  -0.01767327  0.10814564  1
  V  V49  1  0.36535462  0.25752914  0.13425932  1
  V  V50  1  0.48454165  0.25881263  0.74009022  1
  V  V51  1  0.74325935  0.87978371  0.60987819  1
  V  V52  1  0.74464939  0.15448219  0.86908743  1
  V  V53  1  0.01090175  0.51460683  0.48659505  1
  V  V54  1  0.88880647  0.01044791  0.37852204  1
  V  V55  1  0.87270181  0.35737151  0.01707578  1
  V  V56  1  0.87053234  0.11926683  0.24408147  1
  V  V57  1  0.36317858  0.37287208  0.51516056  1
  V  V58  1  0.75544573  -0.02551580  0.75302212  1
  V  V59  1  0.50027024  0.49236592  0.51737907  1
  V  V60  1  0.03125443  0.63957104  0.66145871  1
  V  V61  1  0.47978520  0.63359777  0.63936372  1
  V  V62  1  0.83581610  0.42103389  0.55518166  1
  V  V63  1  0.13294527  0.24717043  0.36800234  1
  Zn  Zn64  1  0.21455009  0.15189167  0.13602220  1
  Zn  Zn65  1  0.16871863  0.19453517  0.69042122  1
  Zn  Zn66  1  0.18792681  0.67496128  0.19142280  1
  Zn  Zn67  1  0.21856077  0.71951098  0.70464875  1
  Zn  Zn68  1  0.68413991  0.18343142  0.19225696  1
  Zn  Zn69  1  0.63293787  0.13070188  0.72149923  1
  Zn  Zn70  1  0.65646148  0.66771725  0.23615555  1
  Zn  Zn71  1  0.69415683  0.68239829  0.65542395  1
  Zn  Zn72  1  0.32020817  0.30806502  0.31415202  1
  Zn  Zn73  1  0.32858378  0.15488566  0.79036394  1
  Zn  Zn74  1  0.30090311  0.78868857  0.31387583  1
  Zn  Zn75  1  0.32012278  0.82987854  0.79611003  1
  Zn  Zn76  1  0.81764803  0.30510252  0.30959776  1
  Zn  Zn77  1  0.81146540  0.30805069  0.82939765  1
  Zn  Zn78  1  0.80971680  0.80380567  0.32325913  1
  Zn  Zn79  1  0.83786732  0.78563137  0.84383874  1
  Zn  Zn80  1  0.18618329  0.43705436  0.42898774  1
  Zn  Zn81  1  0.17029229  0.41064015  0.94266811  1
  Zn  Zn82  1  0.07590529  0.92975325  0.42624728  1
  Zn  Zn83  1  0.19376146  1.05857706  0.95392813  1
  Zn  Zn84  1  0.67913348  0.42851863  0.44822801  1
  Zn  Zn85  1  0.63881638  0.41043006  0.98202858  1
  Zn  Zn86  1  0.70913567  0.95188388  0.43672566  1
  Zn  Zn87  1  0.64911170  0.90697962  0.94911758  1
  Zn  Zn88  1  0.33732907  0.05362812  0.08222327  1
  Zn  Zn89  1  0.28580484  0.04813431  0.52793569  1
  Zn  Zn90  1  0.30024792  0.59056251  -0.12179829  1
  Zn  Zn91  1  0.30245806  0.56668059  0.54934712  1
  Zn  Zn92  1  0.85207896  0.09794023  0.02669738  1
  Zn  Zn93  1  0.82344490  0.05964075  0.56146439  1
  Zn  Zn94  1  0.77765114  0.55041782  0.05290029  1
  Zn  Zn95  1  0.82994363  0.58306987  0.56339707  1
  Zn  Zn96  1  0.44915137  0.43959495  0.18312574  1
  Zn  Zn97  1  0.42536771  0.43603339  0.69920814  1
  Zn  Zn98  1  0.44564446  0.93988152  0.30947325  1
  Zn  Zn99  1  0.41153443  0.98040118  0.63993821  1
  Zn  Zn100  1  0.93037115  0.44272898  0.19249917  1
  Zn  Zn101  1  0.88105780  0.42947900  0.72035929  1
  Zn  Zn102  1  0.91769167  0.93826485  0.17643456  1
  Zn  Zn103  1  0.93971580  0.94617607  0.69493900  1
  Zn  Zn104  1  0.06409958  0.05636002  0.29239277  1
  Zn  Zn105  1  0.06548528  0.05953531  0.80800549  1
  Zn  Zn106  1  0.04920722  0.55600700  0.29548402  1
  Zn  Zn107  1  0.07660986  0.51382629  0.82638895  1
  Zn  Zn108  1  0.57211845  0.06137486  0.32924951  1
  Zn  Zn109  1  0.51836361  0.11992428  0.87634251  1
  Zn  Zn110  1  0.56165569  0.55569016  0.32986672  1
  Zn  Zn111  1  0.51601974  0.59983337  0.84434517  1
  Zn  Zn112  1  0.43650983  0.08922575  0.44977193  1
  Zn  Zn113  1  0.33408368  0.18346943  0.96277883  1
  Zn  Zn114  1  0.44535549  0.68718229  0.43884431  1
  Zn  Zn115  1  0.49908378  0.76290524  0.92805802  1
  Zn  Zn116  1  0.94984467  0.18937026  0.42617310  1
  Zn  Zn117  1  0.96036956  0.14768859  0.90125595  1
  Zn  Zn118  1  0.96103877  0.70754287  0.43572936  1
  Zn  Zn119  1  0.98563616  0.65179386  0.88739552  1
  Zn  Zn120  1  0.07214732  0.31249995  0.05258737  1
  Zn  Zn121  1  0.05421068  0.31135063  0.55883687  1
  Zn  Zn122  1  0.08420590  0.77814419  0.08108153  1
  Zn  Zn123  1  0.06372257  0.81171307  0.56650815  1
  Zn  Zn124  1  0.51477403  0.26143403  0.02863506  1
  Zn  Zn125  1  0.52554052  0.26478915  0.53418444  1
  Zn  Zn126  1  0.56059277  0.81697095  0.09293056  1
  Zn  Zn127  1  0.55309290  0.82344362  0.65149520  1
  O  O128  1  0.11086364  0.10173941  0.12287557  1
  O  O129  1  0.11339381  0.13653756  0.60183946  1
  O  O130  1  0.13190171  0.60455579  0.11221393  1
  O  O131  1  0.12937020  0.65570837  0.66787639  1
  O  O132  1  0.63057419  0.11667459  0.11962237  1
  O  O133  1  0.63648901  0.13240975  0.61035515  1
  O  O134  1  0.64660555  0.62076130  0.13369315  1
  O  O135  1  0.59080114  0.63102665  0.61829381  1
  O  O136  1  0.38367741  0.37845513  0.38052677  1
  O  O137  1  0.41899713  0.32623102  0.88869401  1
  O  O138  1  0.36269530  0.87559904  0.37703179  1
  O  O139  1  0.39563742  0.90172666  0.84952130  1
  O  O140  1  0.89014764  0.37445750  0.36475349  1
  O  O141  1  0.88588912  0.36408736  0.90262661  1
  O  O142  1  0.88521007  0.87256226  0.38814119  1
  O  O143  1  0.89303054  0.88266476  0.86865859  1
  O  O144  1  0.32647852  -0.08586596  0.43952823  1
  O  O145  1  0.27527432  0.00903576  0.88429137  1
  O  O146  1  0.26265519  0.50843279  0.37572750  1
  O  O147  1  0.24891765  0.48118222  0.86419793  1
  O  O148  1  0.78809279  -0.00273369  0.37096935  1
  O  O149  1  0.76318649  -0.02659533  0.85917743  1
  O  O150  1  0.74426469  0.48296155  0.37038223  1
  O  O151  1  0.73508642  0.46044898  0.81382135  1
  O  O152  1  0.24307220  0.48940483  0.12445641  1
  O  O153  1  0.22672162  0.50561669  0.60748148  1
  O  O154  1  0.24149415  0.98948373  0.11436795  1
  O  O155  1  0.23888026  1.00279298  0.62066846  1
  O  O156  1  0.74925973  0.49133233  0.14966440  1
  O  O157  1  0.78401307  0.48044736  0.61529259  1
  O  O158  1  0.78046421  0.91135105  0.06830965  1
  O  O159  1  0.77043953  0.98285462  0.62864896  1
  O  O160  1  -0.00002428  0.36536906  0.24984426  1
  O  O161  1  -0.03165592  0.37111261  0.76824165  1
  O  O162  1  -0.02707152  0.84966462  0.22398431  1
  O  O163  1  0.02247159  0.89553567  0.75644700  1
  O  O164  1  0.50072377  0.36910978  0.26779507  1
  O  O165  1  0.49026366  0.36774860  0.76362577  1
  O  O166  1  0.52089013  0.86298104  0.26973905  1
  O  O167  1  0.50233318  0.92105438  0.70467796  1
  O  O168  1  0.50993928  0.13487273  0.25701786  1
  O  O169  1  0.54359033  0.17606990  0.77794575  1
  O  O170  1  0.53924487  0.64582370  0.26676730  1
  O  O171  1  0.48197124  0.61138039  0.73543173  1
  O  O172  1  1.00218403  0.13736896  0.23182144  1
  O  O173  1  1.02513969  0.13598705  0.72783133  1
  O  O174  1  0.97413968  0.62170675  0.23488604  1
  O  O175  1  0.99806400  0.62850529  0.75598606  1
  O  O176  1  0.39944303  0.24108412  0.03417123  1
  O  O177  1  0.35371306  0.26139550  0.50522961  1
  O  O178  1  0.39669572  0.64627950  0.08467080  1
  O  O179  1  0.38045288  0.75111748  0.50560575  1
  O  O180  1  0.86279657  0.25876503  0.01889997  1
  O  O181  1  0.86560796  0.24625785  0.47798344  1
  O  O182  1  0.91790277  0.81181260  0.00428174  1
  O  O183  1  0.89352645  0.76666741  0.50668313  1
  O  O184  1  0.12948814  0.25741112  0.47961240  1
  O  O185  1  0.14419149  0.29327867  0.96435584  1
  O  O186  1  0.10628641  0.72501141  0.50227662  1
  O  O187  1  0.14082756  0.71913543  0.99941156  1
  O  O188  1  0.64455418  0.24743771  0.49321126  1
  O  O189  1  0.63447124  0.25920324  1.01583370  1
  O  O190  1  0.61982292  0.73216418  0.49868361  1
  O  O191  1  0.56841224  0.82866108  0.98508819  1
  O  O192  1  0.51131189  0.25295275  0.14970854  1
  O  O193  1  0.51913119  0.26580263  0.64674826  1
  O  O194  1  0.50473807  0.75072519  0.15963846  1
  O  O195  1  0.47341283  0.74262765  0.63347530  1
  O  O196  1  1.01300820  0.24999957  0.13116705  1
  O  O197  1  0.98457540  0.24331057  0.61695989  1
  O  O198  1  0.99020670  0.72077658  0.12538760  1
  O  O199  1  0.99739128  0.73610058  0.62550887  1
  O  O200  1  0.01095693  0.26471565  0.36274693  1
  O  O201  1  0.00196562  0.25113675  0.87860010  1
  O  O202  1  0.00835440  0.74281427  0.34022521  1
  O  O203  1  0.03651351  0.75320180  0.88805343  1
  O  O204  1  0.50839566  0.25846731  0.36825189  1
  O  O205  1  0.47720799  0.27224484  0.86933519  1
  O  O206  1  0.52642691  0.74430572  0.38244188  1
  O  O207  1  0.49875913  0.80287702  0.81538975  1
  O  O208  1  0.23085976  0.14573428  0.49558393  1
  O  O209  1  0.25841652  0.12305395  1.02527250  1
  O  O210  1  0.24437086  0.63011430  0.47628357  1
  O  O211  1  0.24566214  0.59548131  0.98313946  1
  O  O212  1  0.75231997  0.13774309  0.50073774  1
  O  O213  1  0.74393385  0.14571626  1.02217910  1
  O  O214  1  0.72510886  0.62114449  0.54681543  1
  O  O215  1  0.75173764  0.65441859  0.97878140  1
  O  O216  1  0.28604545  0.38183761  -0.00523276  1
  O  O217  1  0.25512577  0.36586067  0.48955291  1
  O  O218  1  0.30567774  0.84398718  0.03362374  1
  O  O219  1  0.18808385  0.85223968  0.48044591  1
  O  O220  1  0.75510009  0.36763032  0.01881143  1
  O  O221  1  0.76512422  0.36984920  0.49905105  1
  O  O222  1  0.75126691  0.86129101  0.01604672  1
  O  O223  1  0.78060448  0.88632262  0.50888100  1
  O  O224  1  0.11804168  0.48559523  0.23294871  1
  O  O225  1  0.12570322  0.49984459  0.72985748  1
  O  O226  1  0.12010044  0.97796182  0.22626031  1
  O  O227  1  0.13950949  0.99529207  0.75586715  1
  O  O228  1  0.64338799  0.50948531  0.24983095  1
  O  O229  1  0.69233906  0.50419416  0.77414635  1
  O  O230  1  0.62827590  0.98632523  0.26831256  1
  O  O231  1  0.66758238  1.02365027  0.74281399  1
  O  O232  1  0.37664047  0.00915764  0.24718057  1
  O  O233  1  0.35457841  0.01845164  0.73438900  1
  O  O234  1  0.38741698  0.49260822  0.26719519  1
  O  O235  1  0.34387273  0.49363357  0.77253855  1
  O  O236  1  0.88599865  0.01434254  0.25535735  1
  O  O237  1  0.86038420  0.00361261  0.75754350  1
  O  O238  1  0.86369937  0.51415481  0.25858834  1
  O  O239  1  0.87431446  0.53363967  0.75910090  1
  O  O240  1  0.11628195  0.37138143  0.35680440  1
  O  O241  1  0.07970394  0.40329608  0.87148162  1
  O  O242  1  0.11479659  0.87020930  0.33593097  1
  O  O243  1  0.14575231  0.86479309  0.91529117  1
  O  O244  1  0.60716117  0.36144636  0.38929925  1
  O  O245  1  0.61899494  0.37827973  0.86877145  1
  O  O246  1  0.63359357  0.87309044  0.40154550  1
  O  O247  1  0.60939896  0.88784335  0.83867257  1
  O  O248  1  0.37850396  0.13609914  0.15239026  1
  O  O249  1  0.39703111  0.04564889  0.54951522  1
  O  O250  1  0.33967680  0.64780621  0.13195529  1
  O  O251  1  0.38041214  0.62413288  0.61106266  1
  O  O252  1  0.88748112  0.11818961  0.13819004  1
  O  O253  1  0.88767545  0.13618966  0.62337908  1
  O  O254  1  0.85773842  0.62303726  0.11174424  1
  O  O255  1  0.88593219  0.64508106  0.64031683  1
  O  O256  1  0.26444368  0.25521436  0.13163301  1
  O  O257  1  0.22981080  0.25709676  0.61079118  1
  O  O258  1  0.28227947  0.70463676  0.11975936  1
  O  O259  1  0.25139284  0.75155836  0.58701000  1
  O  O260  1  0.74328298  0.26682750  0.13084694  1
  O  O261  1  0.77964480  0.25366420  0.60433501  1
  O  O262  1  0.70132765  0.70064045  0.00587602  1
  O  O263  1  0.77522035  0.76858550  0.61593265  1
  O  O264  1  0.23432834  0.25388801  0.36997773  1
  O  O265  1  0.26365393  0.21944809  0.87735209  1
  O  O266  1  0.23124330  0.73511947  0.38419029  1
  O  O267  1  0.25399233  0.74587691  0.87104856  1
  O  O268  1  0.74049531  0.26310087  0.38160271  1
  O  O269  1  0.74688976  0.25509957  0.90667653  1
  O  O270  1  0.73210784  0.74465281  0.38813345  1
  O  O271  1  0.72094975  0.77725397  0.85499297  1
  O  O272  1  -0.02051301  0.13217686  0.01849239  1
  O  O273  1  0.01267526  0.13132925  0.50034317  1
  O  O274  1  -0.01405488  0.61090790  0.01166131  1
  O  O275  1  0.00247380  0.61115477  0.47625110  1
  O  O276  1  0.53722213  0.13853878  -0.00999962  1
  O  O277  1  0.52281693  0.15154266  0.50191007  1
  O  O278  1  0.40184190  0.70373038  -0.06533057  1
  O  O279  1  0.50455281  0.60090103  0.50650394  1
  O  O280  1  0.47924040  0.36882608  0.49846908  1
  O  O281  1  0.52377844  0.37399592  0.98606313  1
  O  O282  1  0.49889765  0.86587618  0.49868744  1
  O  O283  1  0.47981373  0.93894629  1.11194410  1
  O  O284  1  0.99747045  0.37836214  0.48033851  1
  O  O285  1  0.98343671  0.38675553  1.01143211  1
  O  O286  1  1.00194433  0.88102858  0.49915197  1
  O  O287  1  0.97675489  0.85262439  1.01804234  1
  O  O288  1  0.49428518  0.48150347  0.39006300  1
  O  O289  1  0.50257111  0.49219481  0.87273326  1
  O  O290  1  0.49124642  1.00897200  0.38764782  1
  O  O291  1  0.49607356  1.00239296  0.85654790  1
  O  O292  1  1.00489465  0.48725757  0.37862002  1
  O  O293  1  0.97813880  0.51522671  0.89772227  1
  O  O294  1  0.99835689  0.99530421  0.36401500  1
  O  O295  1  0.97084527  1.03662936  0.86580844  1
  O  O296  1  -0.00647305  0.00399435  0.11743949  1
  O  O297  1  -0.00722787  0.02153195  0.62395720  1
  O  O298  1  -0.01416098  0.51292500  0.11661368  1
  O  O299  1  0.02921677  0.54154832  0.61067213  1
  O  O300  1  0.51029359  0.00252594  0.12800551  1
  O  O301  1  0.50573673  -0.06245292  0.50105441  1
  O  O302  1  0.52807386  0.50380355  0.13418531  1
  O  O303  1  0.48036651  0.49956409  0.61803589  1
  O  O304  1  0.23565627  0.37019867  0.25390339  1
  O  O305  1  0.29022682  0.44281767  0.80285352  1
  O  O306  1  0.24061695  0.85225093  0.23977583  1
  O  O307  1  0.24381124  0.90290259  0.74888419  1
  O  O308  1  0.75945463  0.38389931  0.24757926  1
  O  O309  1  0.77569618  0.39392868  0.76398548  1
  O  O310  1  0.74253133  0.87468107  0.26864036  1
  O  O311  1  0.74776559  0.87551686  0.72401410  1
  O  O312  1  0.25112504  0.11919804  0.24400193  1
  O  O313  1  0.23398028  0.11496098  0.74029555  1
  O  O314  1  0.25469329  0.63620356  0.27382494  1
  O  O315  1  0.24307411  0.67564785  0.82301477  1
  O  O316  1  0.77239041  0.13514439  0.24733064  1
  O  O317  1  0.73247702  0.17064603  0.77245031  1
  O  O318  1  0.75782394  0.61406061  0.26917408  1
  O  O319  1  0.76088572  0.64319677  0.74024631  1
  O  O320  1  0.37130982  0.12701279  0.35948452  1
  O  O321  1  0.39359717  0.11437815  0.88028995  1
  O  O322  1  0.38906268  0.60294554  0.38107080  1
  O  O323  1  0.40897842  0.63046152  0.89796141  1
  O  O324  1  0.89244700  0.11673780  0.35924259  1
  O  O325  1  0.84218081  0.12241685  0.89146476  1
  O  O326  1  0.87870876  0.62951756  0.37961187  1
  O  O327  1  0.87483673  0.67175857  0.85360319  1
  O  O328  1  0.12373061  0.38025823  0.13313776  1
  O  O329  1  0.11416860  0.38359659  0.62082842  1
  O  O330  1  0.12189404  0.87727908  0.12100222  1
  O  O331  1  0.12471152  0.87271714  0.63806377  1
  O  O332  1  0.64160999  0.39109955  0.13027774  1
  O  O333  1  0.62476168  0.41045380  0.67466007  1
  O  O334  1  0.63845996  0.87596433  0.14983318  1
  O  O335  1  0.64422778  0.87307820  0.59822375  1
  O  O336  1  0.11398714  0.26206557  0.25513528  1
  O  O337  1  0.14198855  0.25678150  0.78635240  1
  O  O338  1  0.10600776  0.75943031  0.21428472  1
  O  O339  1  0.14391836  0.78772746  0.77573431  1
  O  O340  1  0.62177150  0.24795919  0.26747846  1
  O  O341  1  0.66080680  0.34829695  0.67842983  1
  O  O342  1  0.62882420  0.77030099  0.27906877  1
  O  O343  1  0.62714914  0.75943100  0.72090376  1
  O  O344  1  0.39043932  0.24212027  0.24949874  1
  O  O345  1  0.38855633  0.23144233  0.73293964  1
  O  O346  1  0.40169136  0.74861506  0.28222242  1
  O  O347  1  0.33068183  0.75323953  0.71130987  1
  O  O348  1  0.89434457  0.23835836  0.25270644  1
  O  O349  1  0.86796509  0.25032588  0.74209571  1
  O  O350  1  0.87443025  0.72945185  0.25568412  1
  O  O351  1  0.88136380  0.76292914  0.73382624  1
  O  O352  1  0.37836817  0.48353049  0.49088596  1
  O  O353  1  0.34342151  0.42739340  0.99194573  1
  O  O354  1  0.29501761  0.98268060  0.42176458  1
  O  O355  1  0.38949930  0.99683239  0.99338644  1
  O  O356  1  0.89767638  0.49765956  0.51185823  1
  O  O357  1  0.86681529  0.49007696  1.00307159  1
  O  O358  1  0.89065822  0.99634389  0.48554027  1
  O  O359  1  0.86608483  0.99483103  0.97954323  1
  O  O360  1  0.12036471  -0.00716002  0.01093775  1
  O  O361  1  0.13105136  0.02111002  0.47915774  1
  O  O362  1  0.11983649  0.49320241  0.01493507  1
  O  O363  1  0.11097436  0.48988680  0.50027551  1
  O  O364  1  0.63482863  0.00029728  0.01155717  1
  O  O365  1  0.63884060  0.02724836  0.48805306  1
  O  O366  1  0.66280851  0.51254541  0.02739145  1
  O  O367  1  0.60115649  0.47728833  0.51746283  1
  O  O368  1  0.38385270  0.35691265  0.14315706  1
  O  O369  1  0.36426709  0.38276453  0.61288691  1
  O  O370  1  0.36984206  0.82902435  0.06343019  1
  O  O371  1  0.37334026  0.87180329  0.60803527  1
  O  O372  1  0.86299177  0.38087587  0.12050990  1
  O  O373  1  0.88932951  0.36231914  0.62162437  1
  O  O374  1  0.82771388  0.87739779  0.12206514  1
  O  O375  1  0.89495936  0.86853130  0.61687457  1
  O  O376  1  0.11326974  0.14288820  0.37546291  1
  O  O377  1  0.12281039  0.12979181  0.89038990  1
  O  O378  1  0.12530303  0.60733061  0.36239807  1
  O  O379  1  0.10845920  0.60087579  0.90033658  1
  O  O380  1  0.62936436  0.14566258  0.38495912  1
  O  O381  1  0.65904461  0.11012009  0.90264564  1
  O  O382  1  0.63145956  0.59727743  0.41440674  1
  O  O383  1  0.58488376  0.68929072  0.86925181  1
