# generated using pymatgen
data_VZnO4
_symmetry_space_group_name_H-M   'P 1'
_cell_length_a   16.91377818
_cell_length_b   16.86277905
_cell_length_c   16.92446996
_cell_angle_alpha   89.97610223
_cell_angle_beta   90.17747034
_cell_angle_gamma   89.96434690
_symmetry_Int_Tables_number   1
_chemical_formula_structural   VZnO4
_chemical_formula_sum   'V64 Zn64 O256'
_cell_volume   4827.05948659
_cell_formula_units_Z   64
loop_
 _symmetry_equiv_pos_site_id
 _symmetry_equiv_pos_as_xyz
  1  'x, y, z'
loop_
 _atom_site_type_symbol
 _atom_site_label
 _atom_site_symmetry_multiplicity
 _atom_site_fract_x
 _atom_site_fract_y
 _atom_site_fract_z
 _atom_site_occupancy
  V  V0  1  0.48355239  0.26350697  0.73398817  1
  V  V1  1  0.51585577  0.62283684  0.62057264  1
  V  V2  1  0.75763685  0.23128775  -0.01308630  1
  V  V3  1  0.13133475  0.12849222  0.48444477  1
  V  V4  1  0.26564314  0.25570037  0.48495097  1
  V  V5  1  0.25126239  -0.00643175  0.24774884  1
  V  V6  1  0.87466195  0.74311523  0.09390202  1
  V  V7  1  0.88782283  0.38037590  0.47828332  1
  V  V8  1  -0.00431849  -0.00096979  0.49357441  1
  V  V9  1  0.63228975  0.38898591  0.24408500  1
  V  V10  1  0.74792974  0.24135418  0.50665751  1
  V  V11  1  0.25287836  0.49476917  0.24695445  1
  V  V12  1  0.72872117  0.60633981  0.39682536  1
  V  V13  1  0.49483599  0.13588287  0.62431142  1
  V  V14  1  0.13026417  0.01048003  0.63475782  1
  V  V15  1  0.86946495  0.89283813  -0.01504540  1
  V  V16  1  0.51068568  0.75264482  0.24477044  1
  V  V17  1  0.87123936  0.36553312  0.00732890  1
  V  V18  1  0.37314483  0.63745778  0.23954995  1
  V  V19  1  0.02976739  -0.00903403  -0.00347665  1
  V  V20  1  0.50777421  0.37346635  0.37378984  1
  V  V21  1  0.25646317  0.14423171  0.86926594  1
  V  V22  1  0.37186134  0.74360940  0.61440944  1
  V  V23  1  0.24750525  0.87789979  0.62225654  1
  V  V24  1  0.62719483  0.38089247  0.73246288  1
  V  V25  1  0.12771157  0.74402160  0.84127217  1
  V  V26  1  -0.00641978  0.26587327  0.24856420  1
  V  V27  1  0.00687054  0.87781738  0.84934665  1
  V  V28  1  0.51484012  0.00878289  0.48866062  1
  V  V29  1  0.25049423  0.62692879  0.39542870  1
  V  V30  1  0.51645079  0.50153907  0.50201840  1
  V  V31  1  0.62973677  -0.00021849  0.63753799  1
  V  V32  1  0.37499462  0.49332908  0.88615465  1
  V  V33  1  -0.00788554  0.50234294  -0.00824719  1
  V  V34  1  0.00202771  0.11966233  0.12786979  1
  V  V35  1  0.01037884  0.35227191  0.87161129  1
  V  V36  1  0.77180658  0.13942059  0.35154606  1
  V  V37  1  0.37776578  0.49729258  0.38243747  1
  V  V38  1  0.24605401  0.36957156  0.61426740  1
  V  V39  1  0.00650529  0.15123911  0.63638436  1
  V  V40  1  0.12220106  0.26609116  0.36480932  1
  V  V41  1  0.37273245  0.62022927  0.75563323  1
  V  V42  1  0.37405565  0.23978685  0.12287445  1
  V  V43  1  0.50555985  0.37335728  0.88363127  1
  V  V44  1  0.49027258  -0.02085143  -0.01034111  1
  V  V45  1  0.70965322  0.63592873  0.87487301  1
  V  V46  1  0.60978676  0.50513668  0.10292162  1
  V  V47  1  0.23224299  0.50375990  0.74857273  1
  V  V48  1  0.76493761  0.37675549  0.63032017  1
  V  V49  1  0.26208474  0.37403095  0.10837197  1
  V  V50  1  0.89322637  0.58985585  0.29051269  1
  V  V51  1  0.85511502  0.60098984  0.75209918  1
  V  V52  1  0.13663786  0.63190259  -0.00312136  1
  V  V53  1  0.27881980  0.00628132  0.75085661  1
  V  V54  1  0.83713986  0.13011436  0.77211656  1
  V  V55  1  0.63288997  0.00665579  0.13209412  1
  V  V56  1  0.13346567  0.15000450  -0.00522984  1
  V  V57  1  0.37527817  0.87587542  0.49140825  1
  V  V58  1  0.11240439  0.73963244  0.37650866  1
  V  V59  1  0.52728369  0.86094162  0.37892015  1
  V  V60  1  0.12015261  0.49789282  0.12263096  1
  V  V61  1  0.88210759  0.78067462  0.61915595  1
  V  V62  1  0.50687740  0.76529154  0.75639111  1
  V  V63  1  0.50028583  0.23884428  0.25062348  1
  Zn  Zn64  1  0.18492826  0.18713328  0.18203146  1
  Zn  Zn65  1  0.20114684  0.19061231  0.68325688  1
  Zn  Zn66  1  0.18231156  0.67668055  0.19468745  1
  Zn  Zn67  1  0.19209273  0.66489501  0.66548882  1
  Zn  Zn68  1  0.67639642  0.18766465  0.18694780  1
  Zn  Zn69  1  0.67286680  0.19205647  0.68802650  1
  Zn  Zn70  1  0.69868365  0.68801078  0.18131873  1
  Zn  Zn71  1  0.69100267  0.68959201  0.69266648  1
  Zn  Zn72  1  0.31772809  0.31182100  0.30962791  1
  Zn  Zn73  1  0.30850847  0.32697163  0.80309055  1
  Zn  Zn74  1  0.30081994  0.80598238  0.31974317  1
  Zn  Zn75  1  0.29354562  0.79155151  0.77941647  1
  Zn  Zn76  1  0.81368353  0.31548514  0.31328950  1
  Zn  Zn77  1  0.81856960  0.31234415  0.81938014  1
  Zn  Zn78  1  0.83872307  0.76861966  0.27084829  1
  Zn  Zn79  1  0.83617236  0.77157707  0.84836378  1
  Zn  Zn80  1  0.18253886  0.43959119  0.43506343  1
  Zn  Zn81  1  0.18794504  0.43961646  0.93288901  1
  Zn  Zn82  1  0.17491385  0.92975302  0.44047110  1
  Zn  Zn83  1  0.19309751  0.92505266  0.91387174  1
  Zn  Zn84  1  0.69340178  0.42481082  0.44368848  1
  Zn  Zn85  1  0.68331437  0.43031918  0.93928994  1
  Zn  Zn86  1  0.69798316  0.93792369  0.44222937  1
  Zn  Zn87  1  0.66394856  0.91806798  0.98335818  1
  Zn  Zn88  1  0.31000962  0.06621467  0.05706908  1
  Zn  Zn89  1  0.33464414  0.07911565  0.51042000  1
  Zn  Zn90  1  0.31168755  0.56819158  0.06015834  1
  Zn  Zn91  1  0.31511432  0.54495638  0.57498631  1
  Zn  Zn92  1  0.81875010  0.05723577  0.05680227  1
  Zn  Zn93  1  0.82385362  0.07340675  0.58708038  1
  Zn  Zn94  1  0.81945374  0.54232808  0.09927469  1
  Zn  Zn95  1  0.81041030  0.55580711  0.56289925  1
  Zn  Zn96  1  0.44061990  0.44403050  0.18620841  1
  Zn  Zn97  1  0.42700770  0.43860044  0.67792094  1
  Zn  Zn98  1  0.43909166  0.93772776  0.20112597  1
  Zn  Zn99  1  0.44020263  0.94126120  0.66954695  1
  Zn  Zn100  1  0.93285261  0.43905310  0.19275770  1
  Zn  Zn101  1  0.93429865  0.43375012  0.70428130  1
  Zn  Zn102  1  0.95008828  0.90822242  0.15836206  1
  Zn  Zn103  1  0.92883364  0.96218451  0.68147845  1
  Zn  Zn104  1  0.03468236  0.00658513  0.28752902  1
  Zn  Zn105  1  0.06727807  0.07127525  0.81521359  1
  Zn  Zn106  1  0.07999137  0.59288289  0.29690702  1
  Zn  Zn107  1  0.05069761  0.56659479  0.82092703  1
  Zn  Zn108  1  0.57571467  0.04942486  0.30421406  1
  Zn  Zn109  1  0.52353469  0.05585816  0.79999458  1
  Zn  Zn110  1  0.56307174  0.57154588  0.30713099  1
  Zn  Zn111  1  0.55432258  0.55472515  0.80723431  1
  Zn  Zn112  1  0.44066837  0.17935180  0.41358511  1
  Zn  Zn113  1  0.42350285  0.20798490  0.92593494  1
  Zn  Zn114  1  0.44129367  0.68387467  0.43377018  1
  Zn  Zn115  1  0.42169244  0.70608423  0.92746045  1
  Zn  Zn116  1  0.93787154  0.19093929  0.44139545  1
  Zn  Zn117  1  0.93547122  0.17535345  0.93237925  1
  Zn  Zn118  1  0.92264257  0.67624414  0.45298242  1
  Zn  Zn119  1  0.95335481  0.68724946  0.93098355  1
  Zn  Zn120  1  0.06091269  0.31737143  0.06949560  1
  Zn  Zn121  1  0.07195994  0.32293567  0.55708457  1
  Zn  Zn122  1  0.04953196  0.79957940  0.05665905  1
  Zn  Zn123  1  0.04922943  0.82178331  0.57869824  1
  Zn  Zn124  1  0.55710731  0.31261025  0.07540183  1
  Zn  Zn125  1  0.56981967  0.31086582  0.55287372  1
  Zn  Zn126  1  0.53642668  0.84468298  0.08482543  1
  Zn  Zn127  1  0.55684740  0.82263200  0.58072388  1
  O  O128  1  0.12444760  0.12698108  0.10159767  1
  O  O129  1  0.13409767  0.11741559  0.61915084  1
  O  O130  1  0.13602296  0.61070967  0.11132521  1
  O  O131  1  0.12856468  0.66977150  0.56020144  1
  O  O132  1  0.61061567  0.10751028  0.13835026  1
  O  O133  1  0.60308709  0.12250853  0.61876811  1
  O  O134  1  0.64587124  0.60916734  0.11880537  1
  O  O135  1  0.61411925  0.62883056  0.62576025  1
  O  O136  1  0.38683403  0.39295386  0.36589792  1
  O  O137  1  0.38170795  0.38616200  0.87264747  1
  O  O138  1  0.36867287  0.86484255  0.39161276  1
  O  O139  1  0.32695515  0.83312748  0.96427047  1
  O  O140  1  0.87385611  0.38906655  0.37769724  1
  O  O141  1  0.89237336  0.36732831  0.89417320  1
  O  O142  1  0.79976758  0.88529803  0.40254564  1
  O  O143  1  0.89907868  0.86630458  0.87588076  1
  O  O144  1  0.23747918  -0.00992235  0.35283584  1
  O  O145  1  0.25937161  -0.00679255  0.85099240  1
  O  O146  1  0.25932988  0.50425949  0.36844997  1
  O  O147  1  0.26672851  0.49341156  0.86131286  1
  O  O148  1  0.72465124  0.03540128  0.37473502  1
  O  O149  1  0.73526081  -0.02665854  0.83234870  1
  O  O150  1  0.73693530  0.50619041  0.37932302  1
  O  O151  1  0.75168154  0.53024251  0.90461808  1
  O  O152  1  0.25426226  0.49175006  0.13290873  1
  O  O153  1  0.22290546  0.54771955  0.65090096  1
  O  O154  1  0.25566843  0.99541755  0.14291240  1
  O  O155  1  0.24799068  0.99434309  0.63278159  1
  O  O156  1  0.71901656  0.50153198  0.12264374  1
  O  O157  1  0.74996650  0.47572881  0.62576703  1
  O  O158  1  0.73387188  1.00734371  0.11062704  1
  O  O159  1  0.72695640  1.01707035  0.61897691  1
  O  O160  1  0.00563631  0.36476807  0.24013571  1
  O  O161  1  -0.00381511  0.37081268  0.77252146  1
  O  O162  1  0.00968521  0.90572080  0.24847262  1
  O  O163  1  -0.00698814  0.89327714  0.75259450  1
  O  O164  1  0.50494423  0.37807167  0.26282041  1
  O  O165  1  0.50354627  0.37464721  0.73418146  1
  O  O166  1  0.49576867  0.86504318  0.27403191  1
  O  O167  1  0.49029877  0.86301328  0.73600008  1
  O  O168  1  0.50948097  0.14160717  0.27796049  1
  O  O169  1  0.48734847  0.14650105  0.73248123  1
  O  O170  1  0.48329808  0.64104091  0.25602938  1
  O  O171  1  0.49222325  0.62354883  0.73152305  1
  O  O172  1  1.01144848  0.10277498  0.22711957  1
  O  O173  1  1.00805706  0.12392973  0.73529097  1
  O  O174  1  0.98334484  0.54246495  0.30446096  1
  O  O175  1  0.98169119  0.59059704  0.72776034  1
  O  O176  1  0.38399847  0.24827706  0.02259268  1
  O  O177  1  0.36377435  0.24955371  0.47928637  1
  O  O178  1  0.34878122  0.76331836  -0.00062950  1
  O  O179  1  0.37948557  0.75557352  0.50802703  1
  O  O180  1  0.86603116  0.25211359  0.00052171  1
  O  O181  1  0.86336598  0.26746466  0.48954136  1
  O  O182  1  0.88053876  0.76569704  -0.01148662  1
  O  O183  1  0.86748541  0.74214541  0.52473667  1
  O  O184  1  0.13190367  0.24665731  0.48219249  1
  O  O185  1  0.12785290  0.24847537  0.99995977  1
  O  O186  1  0.12730959  0.73739272  0.52218880  1
  O  O187  1  0.12255911  0.73291137  1.00443026  1
  O  O188  1  0.64691016  0.25832478  0.48903714  1
  O  O189  1  0.65668669  0.25668947  1.03639241  1
  O  O190  1  0.66320184  0.76971245  0.52706161  1
  O  O191  1  0.55626195  0.68742480  1.03146414  1
  O  O192  1  0.48746005  0.24659851  0.13997974  1
  O  O193  1  0.49905110  0.24550110  0.61846089  1
  O  O194  1  0.47843359  0.77266733  0.15036331  1
  O  O195  1  0.49178322  0.73572710  0.62427416  1
  O  O196  1  1.01591992  0.23435640  0.14226653  1
  O  O197  1  1.04327051  0.24715027  0.63800637  1
  O  O198  1  0.97025697  0.76284890  0.12958990  1
  O  O199  1  0.98046771  0.75811817  0.64040265  1
  O  O200  1  0.01391918  0.24277524  0.35860345  1
  O  O201  1  0.00508495  0.25148106  0.88547134  1
  O  O202  1  0.01887821  0.72152406  0.40970471  1
  O  O203  1  0.01761534  0.76529773  0.86796565  1
  O  O204  1  0.49447552  0.26850566  0.36847568  1
  O  O205  1  0.48264054  0.26882302  0.84810975  1
  O  O206  1  0.50217662  0.75624412  0.36912874  1
  O  O207  1  0.49114925  0.75500308  0.85549131  1
  O  O208  1  0.24055838  0.14648427  0.50690868  1
  O  O209  1  0.24061048  0.12622687  0.98747296  1
  O  O210  1  0.26548549  0.61488187  0.49277703  1
  O  O211  1  0.23611829  0.61957544  0.99002532  1
  O  O212  1  0.76412783  0.14108221  0.50615605  1
  O  O213  1  0.75979480  0.13162206  0.98928834  1
  O  O214  1  0.74340008  0.62058900  0.49719111  1
  O  O215  1  0.74931993  0.58744911  0.96680030  1
  O  O216  1  0.25652588  0.38048845  0.00986987  1
  O  O217  1  0.24881672  0.36544114  0.49890883  1
  O  O218  1  0.26188539  0.86409761  -0.00536194  1
  O  O219  1  0.26484566  0.88759346  0.51179922  1
  O  O220  1  0.76993679  0.37875046  -0.00543133  1
  O  O221  1  0.76364308  0.36710155  0.51312511  1
  O  O222  1  0.77234575  0.89386744  -0.03611133  1
  O  O223  1  0.71801604  0.81899549  0.51614044  1
  O  O224  1  0.14376883  0.51350747  0.23356896  1
  O  O225  1  0.13772038  0.50883736  0.77417121  1
  O  O226  1  0.14574977  0.98861830  0.23918324  1
  O  O227  1  0.13458392  1.00563871  0.73515130  1
  O  O228  1  0.62149761  0.49101320  0.25133822  1
  O  O229  1  0.61937280  0.48125676  0.74834588  1
  O  O230  1  0.62544997  0.97948287  0.23192610  1
  O  O231  1  0.60609375  1.01716492  0.73638994  1
  O  O232  1  0.35530301  0.00186865  0.25947847  1
  O  O233  1  0.37836837  0.00908627  0.74078185  1
  O  O234  1  0.36732201  0.51271106  0.25641908  1
  O  O235  1  0.36892131  0.51260997  0.75088915  1
  O  O236  1  0.83019950  -0.07233870  0.34247638  1
  O  O237  1  0.86090293  0.04957448  0.70396862  1
  O  O238  1  0.85873982  0.52327853  0.21284671  1
  O  O239  1  0.85961082  0.50281817  0.76712704  1
  O  O240  1  0.12165118  0.36621880  0.37076613  1
  O  O241  1  0.11010038  0.37536423  0.88592972  1
  O  O242  1  0.12946267  0.83923266  0.38839476  1
  O  O243  1  0.11852100  0.86059304  0.85408181  1
  O  O244  1  0.61184144  0.38178637  0.36629689  1
  O  O245  1  0.60831328  0.37728761  0.86195854  1
  O  O246  1  0.62579940  0.86152007  0.38271376  1
  O  O247  1  0.63434088  0.89458639  0.86754501  1
  O  O248  1  0.35659732  0.14203016  0.13310705  1
  O  O249  1  0.39807983  0.12086719  0.59725139  1
  O  O250  1  0.36272808  0.63027952  0.13966494  1
  O  O251  1  0.37691388  0.63017277  0.63249553  1
  O  O252  1  0.90382404  0.11930222  0.10760815  1
  O  O253  1  0.91108369  0.15962638  0.60910131  1
  O  O254  1  0.86806157  0.64364007  0.08275700  1
  O  O255  1  0.84912967  0.62104295  0.65177690  1
  O  O256  1  0.25966566  0.26765492  0.13712462  1
  O  O257  1  0.25812128  0.26535112  0.60904592  1
  O  O258  1  0.20270911  0.78395223  0.14196888  1
  O  O259  1  0.25974587  0.76509664  0.63720859  1
  O  O260  1  0.71857035  0.25685784  0.09612042  1
  O  O261  1  0.74310383  0.25706846  0.61461670  1
  O  O262  1  0.79071654  0.75654242  0.16189411  1
  O  O263  1  0.77220528  0.77258473  0.67118245  1
  O  O264  1  0.24130711  0.25836024  0.37855828  1
  O  O265  1  0.25133886  0.24401507  0.85772349  1
  O  O266  1  0.23863273  0.73142562  0.38060502  1
  O  O267  1  0.22852856  0.75697137  0.86221101  1
  O  O268  1  0.75455241  0.24001103  0.38185547  1
  O  O269  1  0.74044387  0.26018563  0.89216334  1
  O  O270  1  0.75636134  0.70738919  0.33057079  1
  O  O271  1  0.73590929  0.73335049  0.88818516  1
  O  O272  1  0.02322167  0.11076714  -0.00684689  1
  O  O273  1  0.02235176  0.12959323  0.50998554  1
  O  O274  1  0.00983783  0.60923056  -0.00327215  1
  O  O275  1  0.00583607  0.58278077  0.51552972  1
  O  O276  1  0.54602384  0.16838285  -0.03543986  1
  O  O277  1  0.50996559  0.11087055  0.48397260  1
  O  O278  1  0.49452534  0.64990421  0.01513638  1
  O  O279  1  0.49936598  0.61543828  0.50911239  1
  O  O280  1  0.50380436  0.38863077  0.48573491  1
  O  O281  1  0.50656345  0.35448997  0.98076255  1
  O  O282  1  0.49582630  0.86868530  0.48891678  1
  O  O283  1  0.49266861  0.87710407  0.98142619  1
  O  O284  1  0.98742807  0.36365278  0.49641409  1
  O  O285  1  0.99689417  0.38298247  0.99766450  1
  O  O286  1  1.01508709  0.89881161  0.50335694  1
  O  O287  1  1.00457163  0.88465941  0.99298600  1
  O  O288  1  0.49292856  0.50044723  0.38214954  1
  O  O289  1  0.48649728  0.48310290  0.86870651  1
  O  O290  1  0.51494969  0.97980058  0.38383414  1
  O  O291  1  0.48877253  1.01898515  0.89541450  1
  O  O292  1  1.04372750  0.53538154  0.46924224  1
  O  O293  1  0.99674603  0.49252142  0.89033986  1
  O  O294  1  1.00709465  1.01545288  0.39432807  1
  O  O295  1  1.01861504  0.98494915  0.88075769  1
  O  O296  1  0.01136701  0.00405121  0.10189634  1
  O  O297  1  0.02284782  0.01275582  0.61751238  1
  O  O298  1  0.01881458  0.49348082  0.12100834  1
  O  O299  1  -0.00462432  0.53267640  0.67287871  1
  O  O300  1  0.51343590  -0.03787017  0.12207765  1
  O  O301  1  0.50818565  0.01197110  0.60794552  1
  O  O302  1  0.51055509  0.51307213  0.13160015  1
  O  O303  1  0.49495620  0.51002765  0.60957844  1
  O  O304  1  0.25448507  0.39346607  0.25144258  1
  O  O305  1  0.24864591  0.39806622  0.73018268  1
  O  O306  1  0.25383907  0.88838877  0.25131736  1
  O  O307  1  0.26768391  0.89128636  0.73061475  1
  O  O308  1  0.72938631  0.36659175  0.25408809  1
  O  O309  1  0.73541884  0.36092215  0.74162751  1
  O  O310  1  0.85742942  0.88380532  0.28123064  1
  O  O311  1  0.69459946  0.91235548  0.81728363  1
  O  O312  1  0.24237661  0.09863021  0.24744771  1
  O  O313  1  0.25384652  0.11497476  0.75795156  1
  O  O314  1  0.25936234  0.61672356  0.26038448  1
  O  O315  1  0.27027439  0.62829451  0.76120645  1
  O  O316  1  0.76205266  0.14787325  0.25121242  1
  O  O317  1  0.73475684  0.13551782  0.76619830  1
  O  O318  1  0.75986507  0.63618233  0.27914540  1
  O  O319  1  0.74388026  0.62020266  0.77162987  1
  O  O320  1  0.36335484  0.10226091  0.40185513  1
  O  O321  1  0.35596158  0.12831198  0.88388979  1
  O  O322  1  0.36724164  0.61604899  0.36851724  1
  O  O323  1  0.39267277  0.61302671  0.86175148  1
  O  O324  1  0.86942765  0.12386017  0.37329257  1
  O  O325  1  0.87186456  0.10799102  0.86672068  1
  O  O326  1  0.86106666  0.60201379  0.39063451  1
  O  O327  1  0.88918752  0.65954461  0.83713499  1
  O  O328  1  0.14391750  0.39137982  0.12009526  1
  O  O329  1  0.14850524  0.39405418  0.60987255  1
  O  O330  1  0.14210034  0.82922889  0.14012352  1
  O  O331  1  0.14274995  0.88734926  0.61667903  1
  O  O332  1  0.61281097  0.39223290  0.13666758  1
  O  O333  1  0.63126969  0.37540752  0.62866125  1
  O  O334  1  0.64277451  0.87882103  0.08829306  1
  O  O335  1  0.62066027  0.89630458  0.63401325  1
  O  O336  1  0.12675356  0.24442172  0.26242277  1
  O  O337  1  0.13854015  0.26174547  0.74299172  1
  O  O338  1  0.10573516  0.71147063  0.27431381  1
  O  O339  1  0.12483851  0.72257151  0.74336377  1
  O  O340  1  0.60423162  0.26809670  0.23979411  1
  O  O341  1  0.59944080  0.26776302  0.74179789  1
  O  O342  1  0.60880123  0.74249738  0.23429751  1
  O  O343  1  0.60537984  0.74967227  0.74030172  1
  O  O344  1  0.39109283  0.25442325  0.24615905  1
  O  O345  1  0.38338564  0.27785760  0.72674451  1
  O  O346  1  0.36640354  0.73839797  0.25762594  1
  O  O347  1  0.38603405  0.73700692  0.73818505  1
  O  O348  1  0.89487642  0.25536179  0.25350194  1
  O  O349  1  0.86560021  0.22739813  0.75646678  1
  O  O350  1  0.91757949  0.68368790  0.26086088  1
  O  O351  1  0.83751882  0.76075184  0.72547026  1
  O  O352  1  0.38333472  0.50471607  0.48265652  1
  O  O353  1  0.37291234  0.50895221  0.98403120  1
  O  O354  1  0.39887999  0.97986799  0.50288182  1
  O  O355  1  0.39893832  1.01029076  1.02521777  1
  O  O356  1  0.87778682  0.47670796  0.51536980  1
  O  O357  1  0.89134004  0.49185491  1.01368696  1
  O  O358  1  0.89874248  1.01498958  0.51558736  1
  O  O359  1  0.89550955  0.99356795  0.98921009  1
  O  O360  1  0.13055694  -0.01584023  -0.00566176  1
  O  O361  1  0.13266532  0.01636340  0.50481730  1
  O  O362  1  0.11991793  0.50738757  0.00702999  1
  O  O363  1  0.10501977  0.49658691  0.50615198  1
  O  O364  1  0.59525592  0.00876106  0.01341142  1
  O  O365  1  0.61593041  -0.01185245  0.50753272  1
  O  O366  1  0.60809223  0.48864226  0.00382671  1
  O  O367  1  0.61370769  0.49721121  0.50074541  1
  O  O368  1  0.36545597  0.37501693  0.12974961  1
  O  O369  1  0.33439918  0.43100668  0.60923723  1
  O  O370  1  0.35373817  0.88820614  0.14803288  1
  O  O371  1  0.37146679  0.86346940  0.61154183  1
  O  O372  1  0.88537995  0.37113817  0.10825271  1
  O  O373  1  0.86541525  0.36746392  0.64112914  1
  O  O374  1  0.86856371  0.87493294  0.09091759  1
  O  O375  1  0.88038507  0.88154493  0.61420983  1
  O  O376  1  0.13039580  0.13224416  0.38658800  1
  O  O377  1  0.14178317  0.12297131  0.88483225  1
  O  O378  1  0.14501699  0.61762642  0.39012203  1
  O  O379  1  0.11458019  0.64046264  0.88306381  1
  O  O380  1  0.66273489  0.09468604  0.37668775  1
  O  O381  1  0.59416460  0.14923127  0.91245926  1
  O  O382  1  0.62847359  0.62493273  0.38222717  1
  O  O383  1  0.60981178  0.62792368  0.87477372  1
