# generated using pymatgen
data_VZnO4
_symmetry_space_group_name_H-M   'P 1'
_cell_length_a   16.96500856
_cell_length_b   17.17998889
_cell_length_c   17.06837644
_cell_angle_alpha   89.33718132
_cell_angle_beta   88.59974822
_cell_angle_gamma   89.36551832
_symmetry_Int_Tables_number   1
_chemical_formula_structural   VZnO4
_chemical_formula_sum   'V64 Zn64 O256'
_cell_volume   4972.61803963
_cell_formula_units_Z   64
loop_
 _symmetry_equiv_pos_site_id
 _symmetry_equiv_pos_as_xyz
  1  'x, y, z'
loop_
 _atom_site_type_symbol
 _atom_site_label
 _atom_site_symmetry_multiplicity
 _atom_site_fract_x
 _atom_site_fract_y
 _atom_site_fract_z
 _atom_site_occupancy
  V  V0  1  0.89872793  0.88369311  0.00408762  1
  V  V1  1  -0.02519951  0.36790943  0.86327669  1
  V  V2  1  0.38119438  -0.00547409  0.38382165  1
  V  V3  1  0.75091326  0.88289809  0.61934792  1
  V  V4  1  0.63966958  0.87904123  0.77964302  1
  V  V5  1  0.12096020  -0.00055325  0.60307930  1
  V  V6  1  0.24101169  -0.00604749  0.77133901  1
  V  V7  1  0.47900569  0.87480285  0.89169329  1
  V  V8  1  0.87512999  0.24453931  0.62441565  1
  V  V9  1  0.00439087  0.86406619  0.86577794  1
  V  V10  1  0.45515450  0.53002264  0.00134054  1
  V  V11  1  0.25459514  0.12465893  0.40232983  1
  V  V12  1  0.50821520  0.10484465  0.61475164  1
  V  V13  1  0.49520053  0.36683071  0.40786566  1
  V  V14  1  0.10958496  0.12107981  0.02528626  1
  V  V15  1  0.09924296  0.24065421  0.87909207  1
  V  V16  1  0.37986262  0.11273790  0.76381508  1
  V  V17  1  0.39484826  0.51541215  0.41691418  1
  V  V18  1  0.24659109  0.25662400  0.52801428  1
  V  V19  1  0.12453918  0.51248792  0.63298091  1
  V  V20  1  0.48679299  0.75864384  0.25939482  1
  V  V21  1  0.60271721  0.23426091  0.87127013  1
  V  V22  1  0.51134751  0.74858430  0.75440886  1
  V  V23  1  0.26605703  0.73701426  0.51151843  1
  V  V24  1  0.25429406  0.84766492  0.12864671  1
  V  V25  1  0.15660867  0.47774209  0.14199924  1
  V  V26  1  0.65643251  0.45062537  0.58653834  1
  V  V27  1  0.26992861  0.88347092  0.61879544  1
  V  V28  1  0.00871459  0.48549495  0.50054717  1
  V  V29  1  0.75564826  0.01773422  0.75777248  1
  V  V30  1  0.71150666  0.35997893  0.11258427  1
  V  V31  1  0.62044382  0.39180989  0.77684851  1
  V  V32  1  -0.02050637  0.83307925  0.39144860  1
  V  V33  1  0.76072189  -0.00872237  0.25252341  1
  V  V34  1  0.88558067  0.01989448  0.87437432  1
  V  V35  1  0.11963039  0.86476254  0.74777191  1
  V  V36  1  0.46011742  0.01197548  0.00824814  1
  V  V37  1  -0.01718107  0.52014993  -0.01868160  1
  V  V38  1  0.39750847  0.74781139  0.62959694  1
  V  V39  1  0.38130497  0.24153438  0.63456054  1
  V  V40  1  0.47263891  0.64535937  0.13681553  1
  V  V41  1  0.74146747  0.23819414  -0.02089723  1
  V  V42  1  0.11239505  -0.00059859  0.15334935  1
  V  V43  1  0.72056663  0.50700349  0.22942074  1
  V  V44  1  0.13381683  0.83937778  0.27107951  1
  V  V45  1  0.23920077  0.13558746  0.87916582  1
  V  V46  1  0.62970598  0.65943645  0.51666550  1
  V  V47  1  0.77703870  0.15749196  0.34364627  1
  V  V48  1  0.76017140  0.51402219  0.75695726  1
  V  V49  1  0.62569932  0.87539330  0.24295693  1
  V  V50  1  0.65933586  0.60887770  0.00799737  1
  V  V51  1  0.88863176  0.76943423  0.64359869  1
  V  V52  1  0.27527444  0.46532871  0.28733260  1
  V  V53  1  0.75787547  0.76700559  0.01322562  1
  V  V54  1  0.87821543  0.36620272  0.01779871  1
  V  V55  1  -0.02281179  0.00508462  0.48468054  1
  V  V56  1  0.63269144  0.00676478  0.11160839  1
  V  V57  1  0.62252238  0.12885706  0.45769347  1
  V  V58  1  0.64282906  0.75102347  0.36652936  1
  V  V59  1  0.13294234  0.26583074  0.38633429  1
  V  V60  1  0.26469474  0.02901952  0.23685894  1
  V  V61  1  0.91742414  0.59457630  0.23569411  1
  V  V62  1  0.02260453  0.25243425  0.24741543  1
  V  V63  1  0.13129231  0.36421379  0.74661274  1
  Zn  Zn64  1  0.19141287  0.20253300  0.19282139  1
  Zn  Zn65  1  0.16053172  0.17266074  0.69688976  1
  Zn  Zn66  1  0.13314718  0.68632989  0.14392647  1
  Zn  Zn67  1  0.17846060  0.70238339  0.65422454  1
  Zn  Zn68  1  0.73947482  0.14614410  0.13753441  1
  Zn  Zn69  1  0.67166615  0.19274023  0.70274151  1
  Zn  Zn70  1  0.68447429  0.69039208  0.17522455  1
  Zn  Zn71  1  0.70091404  0.70305388  0.69339439  1
  Zn  Zn72  1  0.34177064  0.30792420  0.35658681  1
  Zn  Zn73  1  0.30365303  0.42183573  0.68689830  1
  Zn  Zn74  1  0.30404587  0.81263307  0.32531091  1
  Zn  Zn75  1  0.32075873  0.82098881  0.80258027  1
  Zn  Zn76  1  0.80536655  0.34703865  0.29180754  1
  Zn  Zn77  1  0.79315674  0.31738906  0.80265575  1
  Zn  Zn78  1  0.82171658  0.80435278  0.28565372  1
  Zn  Zn79  1  0.81903091  0.81035456  0.82667177  1
  Zn  Zn80  1  0.20518264  0.44190710  0.46318450  1
  Zn  Zn81  1  0.14748793  0.43318486  0.94744740  1
  Zn  Zn82  1  0.20682454  0.93197903  0.43072276  1
  Zn  Zn83  1  0.09644921  0.84383680  1.04633594  1
  Zn  Zn84  1  0.66957780  0.42318124  0.38267190  1
  Zn  Zn85  1  0.70862652  0.44429168  0.93096500  1
  Zn  Zn86  1  0.56409947  0.94259420  0.43273096  1
  Zn  Zn87  1  0.70942913  0.94224983  0.94304191  1
  Zn  Zn88  1  0.24667362  -0.01587828  0.00216682  1
  Zn  Zn89  1  0.32287586  0.05592952  0.57204043  1
  Zn  Zn90  1  0.34486835  0.52958603  0.13683385  1
  Zn  Zn91  1  0.32969095  0.56461735  0.60381016  1
  Zn  Zn92  1  0.85837562  0.01873648  0.10461796  1
  Zn  Zn93  1  0.76086782  -0.00037738  0.46465191  1
  Zn  Zn94  1  0.82808307  0.55650910  0.07524640  1
  Zn  Zn95  1  0.80520700  0.55708972  0.55564120  1
  Zn  Zn96  1  0.54652955  0.45423832  0.16841995  1
  Zn  Zn97  1  0.48276125  0.47692477  0.66460486  1
  Zn  Zn98  1  0.43158246  0.92959363  0.17867864  1
  Zn  Zn99  1  0.44685760  0.93881400  0.70238051  1
  Zn  Zn100  1  0.96876351  0.43166257  0.17203264  1
  Zn  Zn101  1  0.94059519  0.43533159  0.68282400  1
  Zn  Zn102  1  0.95001119  0.90662047  0.21547699  1
  Zn  Zn103  1  0.93661045  0.94889101  0.68485984  1
  Zn  Zn104  1  0.07163797  0.07615686  0.32546027  1
  Zn  Zn105  1  0.05846427  0.06034829  0.80488526  1
  Zn  Zn106  1  0.07466064  0.51045825  0.30224208  1
  Zn  Zn107  1  0.06206671  0.52999665  0.82485498  1
  Zn  Zn108  1  0.56703821  0.05869237  0.30205083  1
  Zn  Zn109  1  0.56194860  0.04434754  0.83136087  1
  Zn  Zn110  1  0.54898142  0.57605699  0.32658744  1
  Zn  Zn111  1  0.57386417  0.56888996  0.83369733  1
  Zn  Zn112  1  0.43243878  0.17742759  0.44592170  1
  Zn  Zn113  1  0.42085909  0.19977873  0.94818261  1
  Zn  Zn114  1  0.45309213  0.69849353  0.44746612  1
  Zn  Zn115  1  0.50915296  0.68338088  0.93135166  1
  Zn  Zn116  1  0.94895094  0.18435505  0.43392022  1
  Zn  Zn117  1  0.90133965  0.15604271  1.00535228  1
  Zn  Zn118  1  0.93244110  0.63916734  0.44336745  1
  Zn  Zn119  1  0.90921683  0.70628678  0.92730451  1
  Zn  Zn120  1  0.07273033  0.31824354  0.05388414  1
  Zn  Zn121  1  0.06463323  0.31588633  0.55776602  1
  Zn  Zn122  1  -0.05858320  0.73839337  0.12405156  1
  Zn  Zn123  1  0.07214096  0.82136940  0.55790679  1
  Zn  Zn124  1  0.55499506  0.34754989  -0.00187677  1
  Zn  Zn125  1  0.57000243  0.29041158  0.57230902  1
  Zn  Zn126  1  0.56582093  0.81397666  0.06830382  1
  Zn  Zn127  1  0.58254531  0.82789350  0.57225893  1
  O  O128  1  0.12829728  0.13020900  0.12524973  1
  O  O129  1  0.13387281  0.09571016  0.61684510  1
  O  O130  1  0.14974882  0.57512943  0.12040970  1
  O  O131  1  0.11599649  0.60889892  0.64383069  1
  O  O132  1  0.62446398  0.10434052  0.12852073  1
  O  O133  1  0.59885008  0.13075808  0.64758802  1
  O  O134  1  0.61717048  0.63774123  0.09896019  1
  O  O135  1  0.62497314  0.68456792  0.61280428  1
  O  O136  1  0.39442766  0.40538919  0.38963705  1
  O  O137  1  0.32322387  0.42249666  0.88552240  1
  O  O138  1  0.35641596  0.89927505  0.37521174  1
  O  O139  1  0.38036524  0.87793915  0.87977216  1
  O  O140  1  0.87207629  0.36424102  0.40672215  1
  O  O141  1  0.87554667  0.35374844  0.86906961  1
  O  O142  1  0.88527920  0.85551725  0.37454126  1
  O  O143  1  0.89407276  0.88245413  0.88109717  1
  O  O144  1  0.25708498  0.01893477  0.36399509  1
  O  O145  1  0.23683342  -0.01089476  0.86944981  1
  O  O146  1  0.27972063  0.49598665  0.39181969  1
  O  O147  1  0.27652959  0.58033050  0.84403172  1
  O  O148  1  0.75641929  -0.01171286  0.35099224  1
  O  O149  1  0.76999136  0.00250761  0.86631186  1
  O  O150  1  0.75682328  0.45542075  0.31624243  1
  O  O151  1  0.76794886  0.50545014  0.85812528  1
  O  O152  1  0.25632573  0.45471580  0.15313487  1
  O  O153  1  0.22751944  0.49311600  0.62637341  1
  O  O154  1  0.24593619  0.99679078  0.14305899  1
  O  O155  1  0.24608743  0.98891272  0.62977643  1
  O  O156  1  0.75021872  0.47859329  0.13264875  1
  O  O157  1  0.73860012  0.49686778  0.62985090  1
  O  O158  1  0.73758310  1.00073018  0.13425508  1
  O  O159  1  0.76184544  0.98335625  0.65904269  1
  O  O160  1  -0.02601089  0.35290593  0.27669888  1
  O  O161  1  -0.00002996  0.37033537  0.76216539  1
  O  O162  1  0.02827214  0.86595840  0.29578751  1
  O  O163  1  0.01270337  0.88397014  0.75148026  1
  O  O164  1  0.49353498  0.36522275  0.22601230  1
  O  O165  1  0.52744547  0.39979499  0.74042870  1
  O  O166  1  0.50650742  0.86389200  0.24063627  1
  O  O167  1  0.51562045  0.88786594  0.77830704  1
  O  O168  1  0.51574846  0.23565842  0.24429584  1
  O  O169  1  0.47872521  0.10000706  0.76821827  1
  O  O170  1  0.50896735  0.64576980  0.24133575  1
  O  O171  1  0.52290315  0.65234589  0.75960185  1
  O  O172  1  1.01205470  0.15519906  0.26277679  1
  O  O173  1  1.05018365  0.13786046  0.72631840  1
  O  O174  1  1.01645039  0.59865738  0.24648149  1
  O  O175  1  0.98870088  0.61752502  0.77039378  1
  O  O176  1  0.32062767  0.25902981  -0.00131253  1
  O  O177  1  0.35635855  0.22754024  0.52837947  1
  O  O178  1  0.16669764  0.65829894  -0.02418174  1
  O  O179  1  0.38420033  0.75766866  0.52238760  1
  O  O180  1  0.85151231  0.26136776  -0.00408650  1
  O  O181  1  0.87826225  0.24056578  0.52197565  1
  O  O182  1  0.89543033  0.77862786  0.02233091  1
  O  O183  1  0.87387580  0.70575169  0.53881787  1
  O  O184  1  0.13964517  0.24786240  0.50103699  1
  O  O185  1  0.11591608  0.23180488  0.98882777  1
  O  O186  1  0.16223444  0.74878207  0.54247725  1
  O  O187  1  0.05389546  0.74970993  1.09375694  1
  O  O188  1  0.62840920  0.21466239  0.50768895  1
  O  O189  1  0.62801786  0.26002928  0.97339204  1
  O  O190  1  0.63466123  0.76060488  0.47546785  1
  O  O191  1  0.65769221  0.77027354  1.00419485  1
  O  O192  1  0.47452333  0.26776299  0.04055691  1
  O  O193  1  0.48438063  0.22751811  0.62440859  1
  O  O194  1  0.49934382  0.74876227  0.13999397  1
  O  O195  1  0.50103576  0.77815636  0.64529474  1
  O  O196  1  1.03255801  0.26972801  0.14878054  1
  O  O197  1  0.97962758  0.25412680  0.62246864  1
  O  O198  1  0.90493664  0.80350068  0.20990586  1
  O  O199  1  0.98776158  0.77220955  0.62040336  1
  O  O200  1  0.03127383  0.25103316  0.38935284  1
  O  O201  1  0.00047962  0.25043252  0.87597241  1
  O  O202  1  -0.01479738  0.73411227  0.40971372  1
  O  O203  1  -0.00620703  0.76610929  0.86812407  1
  O  O204  1  0.44954482  0.27180545  0.38404177  1
  O  O205  1  0.50228460  0.24985492  0.88249159  1
  O  O206  1  0.51343540  0.75318981  0.35967741  1
  O  O207  1  0.49481480  0.76776033  0.86210782  1
  O  O208  1  0.24907054  0.11704941  0.50117377  1
  O  O209  1  0.22058490  0.10144049  0.97865381  1
  O  O210  1  0.27449855  0.64037047  0.53497183  1
  O  O211  1  0.13451432  0.69506982  0.92343585  1
  O  O212  1  0.73491700  0.12308626  0.43552071  1
  O  O213  1  0.74133690  0.14339663  0.98999594  1
  O  O214  1  0.71442769  0.60311295  0.50191256  1
  O  O215  1  0.76057083  0.62786323  1.01354105  1
  O  O216  1  0.27681444  0.41395915  -0.05781481  1
  O  O217  1  0.25386499  0.35462804  0.52487143  1
  O  O218  1  0.21130257  0.87748717  0.03414543  1
  O  O219  1  0.26046038  0.87109543  0.51909437  1
  O  O220  1  0.76036015  0.37464479  0.00992131  1
  O  O221  1  0.83115067  0.39209455  0.46085779  1
  O  O222  1  0.78075896  0.87087934  0.00044248  1
  O  O223  1  0.74659540  0.90008719  0.52238280  1
  O  O224  1  0.07852043  0.44106122  0.20624949  1
  O  O225  1  0.11131897  0.47823481  0.73963052  1
  O  O226  1  0.14947153  1.02113169  0.25333417  1
  O  O227  1  0.13594472  0.98936510  0.74213445  1
  O  O228  1  0.61712258  0.50456873  0.24350819  1
  O  O229  1  0.63579134  0.50044195  0.76985167  1
  O  O230  1  0.62530074  0.98899369  0.23895128  1
  O  O231  1  0.64398735  0.98841511  0.76960640  1
  O  O232  1  0.36320666  -0.00372280  0.25103399  1
  O  O233  1  0.35163155  0.00688436  0.75212103  1
  O  O234  1  0.36088845  0.50605191  0.25146016  1
  O  O235  1  0.37839977  0.50304113  0.68707380  1
  O  O236  1  0.85936836  -0.01576493  0.22996532  1
  O  O237  1  0.87045730  0.00886271  0.76202796  1
  O  O238  1  0.89134980  0.49706393  0.22996229  1
  O  O239  1  0.85748488  0.49572726  0.72652825  1
  O  O240  1  0.14580425  0.36318963  0.39390775  1
  O  O241  1  0.10460292  0.35880080  0.87270189  1
  O  O242  1  0.16100289  0.85207642  0.36796338  1
  O  O243  1  0.11452382  0.87069529  0.85378343  1
  O  O244  1  0.58581779  0.35783729  0.35906700  1
  O  O245  1  0.61683973  0.38537474  0.88069045  1
  O  O246  1  0.61664826  0.87014478  0.35053860  1
  O  O247  1  0.63081757  0.87651059  0.87959479  1
  O  O248  1  0.28698005  0.22215795  0.05895321  1
  O  O249  1  0.39150168  0.11383667  0.64003828  1
  O  O250  1  0.37468298  0.64229382  0.15275043  1
  O  O251  1  0.40549564  0.65238759  0.63484924  1
  O  O252  1  0.85029952  0.12735463  0.10406372  1
  O  O253  1  0.88783884  0.14452230  0.63805218  1
  O  O254  1  0.89524293  0.62952081  0.13908129  1
  O  O255  1  0.86511099  0.66030957  0.60640312  1
  O  O256  1  0.24196762  0.26927359  0.10591337  1
  O  O257  1  0.24160822  0.22818862  0.62716803  1
  O  O258  1  0.23459524  0.75136647  0.12552030  1
  O  O259  1  0.28217581  0.76922094  0.63342852  1
  O  O260  1  0.72026078  0.25772043  0.09567631  1
  O  O261  1  0.77138043  0.23794647  0.62196633  1
  O  O262  1  0.76555071  0.74664720  0.11260876  1
  O  O263  1  0.76750227  0.77705782  0.63286674  1
  O  O264  1  0.25674051  0.23999595  0.40555460  1
  O  O265  1  0.23060167  0.23154000  0.87973585  1
  O  O266  1  0.27274052  0.74531096  0.41247749  1
  O  O267  1  0.26198266  0.75184881  0.88694137  1
  O  O268  1  0.75574801  0.25391887  0.33843841  1
  O  O269  1  0.73896452  0.25119505  0.87604997  1
  O  O270  1  0.74111712  0.76089560  0.35302300  1
  O  O271  1  0.79908705  0.73693887  0.91237829  1
  O  O272  1  0.01134611  0.11874163  0.01397615  1
  O  O273  1  -0.00676070  0.10404564  0.49814647  1
  O  O274  1  -0.04844849  0.61348234  -0.02771291  1
  O  O275  1  0.12383237  0.66192869  0.41824864  1
  O  O276  1  0.46516420  0.10922447  -0.00014237  1
  O  O277  1  0.51024101  0.11676124  0.50885543  1
  O  O278  1  0.47252573  0.64396353  0.02877439  1
  O  O279  1  0.53620071  0.63073371  0.49258204  1
  O  O280  1  0.50801863  0.36015011  0.50542447  1
  O  O281  1  0.48613878  0.43542281  0.99575076  1
  O  O282  1  0.51283923  0.87676385  0.50389589  1
  O  O283  1  0.49430741  0.85321553  0.98906000  1
  O  O284  1  0.99979863  0.38761974  0.49657571  1
  O  O285  1  0.98134760  0.35988322  0.98405882  1
  O  O286  1  1.00949113  0.87957099  0.47870602  1
  O  O287  1  1.00869957  0.88108343  0.97565267  1
  O  O288  1  0.50179227  0.49118703  0.38987010  1
  O  O289  1  0.47905163  0.56512460  0.90419193  1
  O  O290  1  0.48537433  1.00208958  0.36194991  1
  O  O291  1  0.50007018  0.98281133  0.90769478  1
  O  O292  1  1.02731888  0.51951310  0.40394776  1
  O  O293  1  0.97071369  0.47199777  0.87642754  1
  O  O294  1  1.00868388  1.00447971  0.38566604  1
  O  O295  1  0.98980801  0.99305328  0.86197954  1
  O  O296  1  0.01582907  0.00156847  0.17571346  1
  O  O297  1  0.01348609  -0.01547223  0.60142337  1
  O  O298  1  0.00417572  0.50028648  0.07554052  1
  O  O299  1  0.01394529  0.49009854  0.61531502  1
  O  O300  1  0.50149826  -0.01173177  0.10287770  1
  O  O301  1  0.50461402  0.00722739  0.63152424  1
  O  O302  1  0.48319336  0.53180975  0.11695850  1
  O  O303  1  0.57006419  0.50338823  0.59901959  1
  O  O304  1  0.27679683  0.36479503  0.28427706  1
  O  O305  1  0.22960362  0.37567262  0.75872805  1
  O  O306  1  0.24082746  0.86314354  0.24063490  1
  O  O307  1  0.24351620  0.88352060  0.74560789  1
  O  O308  1  0.72598957  0.35366757  0.21026405  1
  O  O309  1  0.73001886  0.39488973  0.75287226  1
  O  O310  1  0.73475791  0.88345762  0.24132014  1
  O  O311  1  0.74356099  0.87218186  0.76792312  1
  O  O312  1  0.26987207  0.12847843  0.23230281  1
  O  O313  1  0.23759157  0.10654128  0.76890990  1
  O  O314  1  0.18520102  0.51508372  0.26857738  1
  O  O315  1  0.26116882  0.64898301  0.73293202  1
  O  O316  1  0.74760392  0.10796189  0.25338842  1
  O  O317  1  0.74079497  0.11434769  0.74803245  1
  O  O318  1  0.74138346  0.60303959  0.23056117  1
  O  O319  1  0.74567053  0.61365463  0.74106408  1
  O  O320  1  0.36061963  0.11870270  0.37745653  1
  O  O321  1  0.35077162  0.12801709  0.87011767  1
  O  O322  1  0.40105415  0.61239857  0.39098025  1
  O  O323  1  0.30086109  0.71454618  0.93612266  1
  O  O324  1  0.87460214  0.15005451  0.35926513  1
  O  O325  1  0.88969368  0.11551500  0.89164440  1
  O  O326  1  0.87116331  0.61205548  0.34460237  1
  O  O327  1  0.92128944  0.62511655  0.80107778  1
  O  O328  1  0.13975011  0.41150924  0.05915945  1
  O  O329  1  0.11829149  0.35598794  0.64742990  1
  O  O330  1  0.12418030  0.89188582  0.16340117  1
  O  O331  1  0.13994953  0.88571410  0.63406353  1
  O  O332  1  0.61277014  0.38237007  0.09974629  1
  O  O333  1  0.63953389  0.35789189  0.62865918  1
  O  O334  1  0.61926353  0.88718505  0.13548049  1
  O  O335  1  0.64745176  0.87950714  0.64812391  1
  O  O336  1  0.13055913  0.26267039  0.27159420  1
  O  O337  1  0.12654383  0.25750553  0.77172154  1
  O  O338  1  0.13034600  0.74393206  0.25379773  1
  O  O339  1  0.12956091  0.76786615  0.73625470  1
  O  O340  1  0.54480081  0.29779974  0.21924792  1
  O  O341  1  0.62789244  0.27310207  0.77160109  1
  O  O342  1  0.62625820  0.76442839  0.24713012  1
  O  O343  1  0.61848065  0.77281892  0.75579033  1
  O  O344  1  0.41151255  0.22658529  0.15111136  1
  O  O345  1  0.36062023  0.21215948  0.73843326  1
  O  O346  1  0.38862406  0.75916475  0.26747954  1
  O  O347  1  0.39830282  0.76415277  0.74372175  1
  O  O348  1  0.91409908  0.29517550  0.27012611  1
  O  O349  1  0.86637827  0.25094764  0.72958795  1
  O  O350  1  0.87402280  0.67903487  0.29437603  1
  O  O351  1  0.88077190  0.75730871  0.74303347  1
  O  O352  1  0.38838300  0.50990338  0.51462839  1
  O  O353  1  0.35578501  0.52852087  1.01980081  1
  O  O354  1  0.37405101  1.00440198  0.48302728  1
  O  O355  1  0.36370397  0.99001423  1.01011747  1
  O  O356  1  0.91196015  0.54244905  0.50550401  1
  O  O357  1  0.87610165  0.47479844  1.00127512  1
  O  O358  1  0.87761477  0.99854153  0.48750014  1
  O  O359  1  0.87343032  0.98989381  0.97974065  1
  O  O360  1  0.12037024  0.01007773  0.04573241  1
  O  O361  1  0.13736632  -0.01257356  0.50453850  1
  O  O362  1  0.08814718  0.52970980  -0.06455538  1
  O  O363  1  0.12015855  0.49552008  0.52101920  1
  O  O364  1  0.63650707  -0.00495165  0.01202865  1
  O  O365  1  0.63450906  0.02420729  0.47458528  1
  O  O366  1  0.64723603  0.51077802  0.00319720  1
  O  O367  1  0.68085084  0.43799529  0.48946368  1
  O  O368  1  0.42893214  0.28536683  0.10966733  1
  O  O369  1  0.37167365  0.33774238  0.64469889  1
  O  O370  1  0.35286592  0.86323945  0.12498358  1
  O  O371  1  0.37006562  0.88904293  0.63467719  1
  O  O372  1  0.88979425  0.36361149  0.11538939  1
  O  O373  1  0.87398108  0.34913299  0.62636200  1
  O  O374  1  0.91182581  0.91506311  0.09828157  1
  O  O375  1  0.86826683  0.87541389  0.63264294  1
  O  O376  1  0.15512835  0.14396483  0.37073566  1
  O  O377  1  0.11839026  0.13257057  0.87647206  1
  O  O378  1  0.16890812  0.63207511  0.37059539  1
  O  O379  1  0.23082518  0.59918937  0.78862951  1
  O  O380  1  0.58888888  0.14612789  0.36402754  1
  O  O381  1  0.61429099  0.13739999  0.86379756  1
  O  O382  1  0.63026678  0.65144733  0.36239852  1
  O  O383  1  0.61923956  0.64141206  0.91684621  1
