# generated using pymatgen
data_VZnO4
_symmetry_space_group_name_H-M   'P 1'
_cell_length_a   16.94272602
_cell_length_b   17.00235767
_cell_length_c   16.93544234
_cell_angle_alpha   89.80870905
_cell_angle_beta   90.36877565
_cell_angle_gamma   90.63646954
_symmetry_Int_Tables_number   1
_chemical_formula_structural   VZnO4
_chemical_formula_sum   'V64 Zn64 O256'
_cell_volume   4878.10192520
_cell_formula_units_Z   64
loop_
 _symmetry_equiv_pos_site_id
 _symmetry_equiv_pos_as_xyz
  1  'x, y, z'
loop_
 _atom_site_type_symbol
 _atom_site_label
 _atom_site_symmetry_multiplicity
 _atom_site_fract_x
 _atom_site_fract_y
 _atom_site_fract_z
 _atom_site_occupancy
  V  V0  1  0.62793669  0.23940119  0.89323334  1
  V  V1  1  0.87025326  0.13539787  0.75486921  1
  V  V2  1  0.01214935  0.35615512  0.38698251  1
  V  V3  1  0.36520203  -0.00532158  0.86536687  1
  V  V4  1  0.89626306  0.24431255  0.11399645  1
  V  V5  1  0.37376502  0.76654236  0.61998354  1
  V  V6  1  0.26421952  0.37535443  0.12461770  1
  V  V7  1  0.87504455  0.88478235  0.50119114  1
  V  V8  1  0.36895264  0.86560102  0.00613711  1
  V  V9  1  -0.01652839  0.38526963  0.87823446  1
  V  V10  1  0.14719121  -0.00629481  0.62630284  1
  V  V11  1  0.24869498  0.51206725  0.26009426  1
  V  V12  1  0.61917927  0.50339418  0.63491640  1
  V  V13  1  0.73561606  0.87787266  0.62150826  1
  V  V14  1  0.37395396  0.64907294  0.24570789  1
  V  V15  1  -0.01716609  0.64853671  0.12873833  1
  V  V16  1  0.25404403  0.12993316  0.86224539  1
  V  V17  1  0.86273621  0.73008061  0.62322011  1
  V  V18  1  0.85317344  0.00579735  0.86854785  1
  V  V19  1  0.11753693  0.37236483  0.24653048  1
  V  V20  1  0.75904473  0.50531215  0.24052980  1
  V  V21  1  0.51248007  0.74886120  0.76447517  1
  V  V22  1  0.13417845  0.00564233  0.12801696  1
  V  V23  1  0.88268673  0.26656255  0.61734847  1
  V  V24  1  0.75088032  0.86597987  0.13119149  1
  V  V25  1  0.12171676  0.11401490  -0.01360382  1
  V  V26  1  0.50334532  0.27635184  0.76164932  1
  V  V27  1  0.49870589  0.64158052  0.13272084  1
  V  V28  1  0.08630995  0.74534894  0.35737435  1
  V  V29  1  -0.00126070  0.88446321  0.87160544  1
  V  V30  1  0.48818224  0.24302068  0.24192565  1
  V  V31  1  -0.01646734  0.74061826  0.75934122  1
  V  V32  1  0.51795787  0.13201677  0.63077466  1
  V  V33  1  0.76755360  0.01153958  0.25025750  1
  V  V34  1  0.12705727  0.52137886  0.11690754  1
  V  V35  1  0.13410768  0.12531073  0.50242728  1
  V  V36  1  -0.00721358  0.10986705  0.62086380  1
  V  V37  1  0.25159873  0.64926939  0.38130366  1
  V  V38  1  0.49098630  0.48861668  -0.00739297  1
  V  V39  1  0.72924603  0.60589217  0.38253470  1
  V  V40  1  0.62404464  0.86270887  0.26018045  1
  V  V41  1  0.61993855  0.63114211  -0.00616610  1
  V  V42  1  0.76907830  0.13336463  0.39869452  1
  V  V43  1  0.47809304  0.11563875  0.12890099  1
  V  V44  1  0.49897694  -0.00340888  -0.01015918  1
  V  V45  1  0.74670813  0.75427386  -0.01177809  1
  V  V46  1  0.34637379  0.00630679  0.37298456  1
  V  V47  1  0.49463273  0.62214287  0.61356098  1
  V  V48  1  0.13434324  0.87482150  0.75514044  1
  V  V49  1  0.13460670  0.27178833  0.87082875  1
  V  V50  1  0.62279830  0.00264400  0.12757549  1
  V  V51  1  0.92158304  0.50268583  0.41912670  1
  V  V52  1  0.87614233  0.88273750  0.00101905  1
  V  V53  1  0.75638869  0.61244743  0.86952020  1
  V  V54  1  0.64031057  0.35401472  0.23291784  1
  V  V55  1  0.36570955  0.62571651  0.76672889  1
  V  V56  1  -0.01345911  0.51143440  -0.00183542  1
  V  V57  1  0.61913527  0.49601978  0.12751887  1
  V  V58  1  0.23601361  0.36740337  0.60770365  1
  V  V59  1  0.62635378  0.88167620  0.76293718  1
  V  V60  1  0.63559923  0.24405065  0.38588740  1
  V  V61  1  0.14448166  0.52919752  0.62376187  1
  V  V62  1  0.51988655  -0.00797246  0.49201185  1
  V  V63  1  0.24523110  0.86704060  0.13092814  1
  Zn  Zn64  1  0.17772427  0.19408690  0.16932963  1
  Zn  Zn65  1  0.17828569  0.18777174  0.69380717  1
  Zn  Zn66  1  0.17567176  0.70428873  0.19289864  1
  Zn  Zn67  1  0.19223758  0.71002651  0.70100284  1
  Zn  Zn68  1  0.70352636  0.17809990  0.14666226  1
  Zn  Zn69  1  0.69328938  0.20672292  0.69317050  1
  Zn  Zn70  1  0.69004382  0.68455735  0.19086255  1
  Zn  Zn71  1  0.68534474  0.68357612  0.68459859  1
  Zn  Zn72  1  0.30112347  0.30902577  0.28945477  1
  Zn  Zn73  1  0.36213619  0.25305838  0.65385769  1
  Zn  Zn74  1  0.31416163  0.83313749  0.30809635  1
  Zn  Zn75  1  0.34044337  0.83182702  0.79667619  1
  Zn  Zn76  1  0.82367569  0.32490146  0.43974825  1
  Zn  Zn77  1  0.81287002  0.30784811  0.81642849  1
  Zn  Zn78  1  0.74506737  0.81014600  0.39935433  1
  Zn  Zn79  1  0.80503036  0.81250874  0.80993808  1
  Zn  Zn80  1  0.16887689  0.44679519  0.44111606  1
  Zn  Zn81  1  0.19155322  0.44544381  0.94691314  1
  Zn  Zn82  1  0.05833948  0.92533754  0.44093324  1
  Zn  Zn83  1  0.18805671  0.93801942  0.94426442  1
  Zn  Zn84  1  0.67579535  0.42691003  0.42433476  1
  Zn  Zn85  1  0.68972371  0.43132632  0.94677145  1
  Zn  Zn86  1  0.69978376  0.95863303  0.43965761  1
  Zn  Zn87  1  0.68127751  0.94119956  0.94037683  1
  Zn  Zn88  1  0.30638320  0.05902292  0.04816125  1
  Zn  Zn89  1  0.32265366  0.05656885  0.55004280  1
  Zn  Zn90  1  0.32005085  0.55620728  0.06924928  1
  Zn  Zn91  1  0.28918903  0.59083930  0.58813093  1
  Zn  Zn92  1  0.80581549  0.05777900  0.05438204  1
  Zn  Zn93  1  0.81054980  0.05868927  0.57528950  1
  Zn  Zn94  1  0.80946878  0.56783221  0.06247629  1
  Zn  Zn95  1  0.79728806  0.49750632  0.54418814  1
  Zn  Zn96  1  0.44477112  0.44430213  0.21096499  1
  Zn  Zn97  1  0.41493237  0.44217380  0.68966747  1
  Zn  Zn98  1  0.43475985  0.92367920  0.19944406  1
  Zn  Zn99  1  0.45937046  0.95026936  0.68424762  1
  Zn  Zn100  1  0.94757861  0.44542617  0.18567398  1
  Zn  Zn101  1  1.01727911  0.40513081  0.66778631  1
  Zn  Zn102  1  0.98180179  1.00438499  0.24744360  1
  Zn  Zn103  1  0.92061629  0.93395321  0.68999353  1
  Zn  Zn104  1  0.14538796  0.02669211  0.33568611  1
  Zn  Zn105  1  0.05869039  0.05862902  0.80599353  1
  Zn  Zn106  1  0.06539576  0.57373149  0.30590212  1
  Zn  Zn107  1  0.03506421  0.53512018  0.78480022  1
  Zn  Zn108  1  0.58093360  0.06668349  0.30598623  1
  Zn  Zn109  1  0.57997480  0.06752218  0.80537936  1
  Zn  Zn110  1  0.55304762  0.55505287  0.31278755  1
  Zn  Zn111  1  0.55207832  0.55647047  0.80687949  1
  Zn  Zn112  1  0.45720899  0.14554293  0.40162070  1
  Zn  Zn113  1  0.45538646  0.16780330  0.91963905  1
  Zn  Zn114  1  0.41599722  0.67871274  0.44429973  1
  Zn  Zn115  1  0.44174076  0.69088572  0.94128256  1
  Zn  Zn116  1  0.98704393  0.14108666  0.38891800  1
  Zn  Zn117  1  0.95012626  0.19264250  0.91878378  1
  Zn  Zn118  1  0.88618094  0.69988721  0.41481549  1
  Zn  Zn119  1  0.93451006  0.69220787  0.94399146  1
  Zn  Zn120  1  0.08519385  0.32503826  0.04367122  1
  Zn  Zn121  1  0.06146900  0.29391291  0.56829607  1
  Zn  Zn122  1  0.02962230  0.85713430  0.11105056  1
  Zn  Zn123  1  0.03970605  0.82465415  0.59201266  1
  Zn  Zn124  1  0.55081321  0.30581570  0.06152328  1
  Zn  Zn125  1  0.52898411  0.29908736  0.54920395  1
  Zn  Zn126  1  0.56355170  0.81877669  0.06086845  1
  Zn  Zn127  1  0.53118417  0.82932556  0.57915242  1
  O  O128  1  0.13168623  0.11786022  0.10024323  1
  O  O129  1  0.11514055  0.10588910  0.62931336  1
  O  O130  1  0.12383346  0.62237433  0.12626889  1
  O  O131  1  0.17710577  0.62744647  0.61980962  1
  O  O132  1  0.61670358  0.10278703  0.12534863  1
  O  O133  1  0.61620962  0.14079499  0.62201122  1
  O  O134  1  0.61212186  0.62134276  0.12483791  1
  O  O135  1  0.60645414  0.61447278  0.62608928  1
  O  O136  1  0.34939347  0.35755469  0.39006512  1
  O  O137  1  0.35974411  0.31264689  0.94394192  1
  O  O138  1  0.29133732  0.86779934  0.47446048  1
  O  O139  1  0.37407622  0.88637856  0.89063804  1
  O  O140  1  0.90647356  0.39866867  0.38411699  1
  O  O141  1  0.88447936  0.37440134  0.87797153  1
  O  O142  1  0.85621275  0.85409488  0.40506987  1
  O  O143  1  0.86784969  0.88745536  0.88204750  1
  O  O144  1  0.24667768  -0.00783889  0.37572424  1
  O  O145  1  0.26235206  -0.00118508  0.87175146  1
  O  O146  1  0.23303662  0.51959045  0.36197425  1
  O  O147  1  0.23560180  0.60270048  0.92345751  1
  O  O148  1  0.75234772  0.02485377  0.35778107  1
  O  O149  1  0.75408933  0.00794645  0.88270788  1
  O  O150  1  0.73480265  0.49682348  0.34724728  1
  O  O151  1  0.74429262  0.51467135  0.89096742  1
  O  O152  1  0.23881701  0.50433521  0.13375075  1
  O  O153  1  0.24286804  0.48153879  0.62795329  1
  O  O154  1  0.24100111  0.98883149  0.11041504  1
  O  O155  1  0.24646900  1.00180663  0.62558412  1
  O  O156  1  0.73030079  0.51442717  0.12952517  1
  O  O157  1  0.71830865  0.50249470  0.62443653  1
  O  O158  1  0.73694687  0.98989515  0.12247947  1
  O  O159  1  0.74770733  0.97736140  0.62664310  1
  O  O160  1  0.01428258  0.39056847  0.25960766  1
  O  O161  1  0.00896260  0.41146601  0.78215144  1
  O  O162  1  -0.05400690  0.83687864  0.25260910  1
  O  O163  1  -0.00522317  0.87126082  0.76331467  1
  O  O164  1  0.51975380  0.34213640  0.23042192  1
  O  O165  1  0.49084432  0.37410937  0.74725719  1
  O  O166  1  0.52535963  0.87573656  0.25384710  1
  O  O167  1  0.51746619  0.86010845  0.74104535  1
  O  O168  1  0.50489114  0.12654247  0.23434959  1
  O  O169  1  0.50174180  0.10639482  0.72683320  1
  O  O170  1  0.48725176  0.63114326  0.24100924  1
  O  O171  1  0.49432121  0.63808235  0.74789743  1
  O  O172  1  0.99435361  0.11265958  0.27674470  1
  O  O173  1  0.98357683  0.11255581  0.74064042  1
  O  O174  1  1.00071133  0.62423375  0.22634528  1
  O  O175  1  1.00052713  0.64528296  0.77600855  1
  O  O176  1  0.37922875  0.26074787  -0.00890549  1
  O  O177  1  0.38661264  0.31494718  0.44537338  1
  O  O178  1  0.38548157  0.76823059  0.00016163  1
  O  O179  1  0.38103515  0.75280027  0.51850241  1
  O  O180  1  0.88258959  0.24544574  0.00912649  1
  O  O181  1  0.87830853  0.26103733  0.51698720  1
  O  O182  1  0.85417282  0.76723144  -0.00464325  1
  O  O183  1  0.87875074  0.74957142  0.52060090  1
  O  O184  1  0.12845223  0.22398160  0.51284152  1
  O  O185  1  0.12919929  0.23882359  0.97826296  1
  O  O186  1  0.06650676  0.69182914  0.52267331  1
  O  O187  1  0.12852016  0.70889622  0.90979611  1
  O  O188  1  0.61123522  0.25234849  0.48117272  1
  O  O189  1  0.61678155  0.24544023  0.99432007  1
  O  O190  1  0.56995943  0.75537013  0.43009019  1
  O  O191  1  0.63145725  0.74001917  1.00696021  1
  O  O192  1  0.49582197  0.22497586  0.12796732  1
  O  O193  1  0.50015380  0.24496121  0.64366696  1
  O  O194  1  0.50524452  0.73940261  0.12299873  1
  O  O195  1  0.49737969  0.73507431  0.63233731  1
  O  O196  1  1.00007933  0.24622138  0.09570623  1
  O  O197  1  0.99115731  0.22662345  0.63106117  1
  O  O198  1  1.00320142  0.74764620  0.11655021  1
  O  O199  1  0.97958307  0.74904806  0.64907697  1
  O  O200  1  -0.00231092  0.26025494  0.37600093  1
  O  O201  1  0.01464252  0.28223397  0.88320276  1
  O  O202  1  -0.01003941  0.71845603  0.37258939  1
  O  O203  1  -0.01831803  0.77070825  0.87003293  1
  O  O204  1  0.52570067  0.22611331  0.34615110  1
  O  O205  1  0.51273955  0.25317033  0.87164676  1
  O  O206  1  0.51404317  0.74452654  0.38306374  1
  O  O207  1  0.50523411  0.75162626  0.86376432  1
  O  O208  1  0.23351566  0.11206718  0.50494493  1
  O  O209  1  0.23957726  0.11924243  0.97908514  1
  O  O210  1  0.27107223  0.62623851  0.47711019  1
  O  O211  1  0.26578535  0.63081047  0.99028764  1
  O  O212  1  0.75168101  0.11536623  0.49495633  1
  O  O213  1  0.74617350  0.14927596  1.04379486  1
  O  O214  1  0.73717238  0.58085669  0.47877266  1
  O  O215  1  0.73756118  0.63973813  1.00109034  1
  O  O216  1  0.25119966  0.38644230  0.02485703  1
  O  O217  1  0.23170385  0.37084864  0.50841372  1
  O  O218  1  0.26401599  0.87288061  0.00074511  1
  O  O219  1  0.23180981  0.86445239  0.51432565  1
  O  O220  1  0.75194327  0.38169636  0.02420578  1
  O  O221  1  0.76168955  0.40149405  0.49043898  1
  O  O222  1  0.74306734  0.86502506  0.00581877  1
  O  O223  1  0.74757184  0.87076941  0.50927524  1
  O  O224  1  0.13278834  0.50491232  0.23660941  1
  O  O225  1  0.13671692  0.51746843  0.73665537  1
  O  O226  1  0.15051704  1.03294266  0.22274470  1
  O  O227  1  0.12250705  0.98383290  0.74045066  1
  O  O228  1  0.62431876  0.49266170  0.23320222  1
  O  O229  1  0.60959412  0.49099371  0.73376916  1
  O  O230  1  0.63756020  0.99000199  0.23937624  1
  O  O231  1  0.61468742  0.98031196  0.74530676  1
  O  O232  1  0.38149929  -0.06865547  0.30556804  1
  O  O233  1  0.38719463  -0.01873680  0.76795441  1
  O  O234  1  0.34948410  0.51990073  0.24602665  1
  O  O235  1  0.37009857  0.52640032  0.75003643  1
  O  O236  1  0.86481429  -0.00663690  0.24216746  1
  O  O237  1  0.86317957  0.00040504  0.76552367  1
  O  O238  1  0.85680585  0.49155342  0.22920893  1
  O  O239  1  0.80876337  0.46199356  0.74102692  1
  O  O240  1  0.12080033  0.37846019  0.35900345  1
  O  O241  1  0.15058059  0.37146565  0.87236894  1
  O  O242  1  0.11115419  0.82323469  0.41665316  1
  O  O243  1  0.10673058  0.88575359  0.86887790  1
  O  O244  1  0.63226570  0.34720696  0.34657969  1
  O  O245  1  0.64100496  0.35627115  0.87879179  1
  O  O246  1  0.65870877  0.87736605  0.36102210  1
  O  O247  1  0.63039227  0.87547407  0.86286810  1
  O  O248  1  0.37950665  0.10614416  0.12881332  1
  O  O249  1  0.39439059  0.15157826  0.57862700  1
  O  O250  1  0.38689406  0.62780587  0.13399529  1
  O  O251  1  0.38079424  0.64066788  0.63720392  1
  O  O252  1  0.89027860  0.14012466  0.10523401  1
  O  O253  1  0.88052613  0.12967519  0.63508891  1
  O  O254  1  0.88272975  0.63714544  0.11969921  1
  O  O255  1  0.85873977  0.63437308  0.62885428  1
  O  O256  1  0.25452497  0.27511600  0.14422498  1
  O  O257  1  0.24548719  0.26156311  0.63781825  1
  O  O258  1  0.24054206  0.76599526  0.12198979  1
  O  O259  1  0.27442960  0.76795248  0.63714573  1
  O  O260  1  0.79637407  0.25823570  0.13176515  1
  O  O261  1  0.78323144  0.26510303  0.64851279  1
  O  O262  1  0.74603747  0.76298842  0.11995204  1
  O  O263  1  0.75703197  0.75537771  0.63031397  1
  O  O264  1  0.23666048  0.21254660  0.33330656  1
  O  O265  1  0.24094799  0.23168884  0.87116562  1
  O  O266  1  0.26399114  0.74926199  0.37173510  1
  O  O267  1  0.16094921  0.74363026  0.96429443  1
  O  O268  1  0.74834743  0.24483243  0.39073707  1
  O  O269  1  0.73077412  0.25988946  0.87254088  1
  O  O270  1  0.77288823  0.70487691  0.38109274  1
  O  O271  1  0.74133147  0.74643965  0.88728195  1
  O  O272  1  0.02141202  0.12351635  -0.02685484  1
  O  O273  1  0.00332510  0.11727685  0.51788259  1
  O  O274  1  -0.00256391  0.62066353  0.01169352  1
  O  O275  1  0.02233212  0.63504914  0.53285720  1
  O  O276  1  0.49214120  0.10493380  0.01575298  1
  O  O277  1  0.46137752  0.16280332  0.52262088  1
  O  O278  1  0.51004603  0.62524382  0.01176041  1
  O  O279  1  0.48856291  0.62385784  0.51337681  1
  O  O280  1  0.46280376  0.33932494  0.45728006  1
  O  O281  1  0.49924101  0.39018124  1.00884030  1
  O  O282  1  0.50941823  0.89261441  0.48715323  1
  O  O283  1  0.48757132  0.88989924  1.01136729  1
  O  O284  1  1.02880659  0.36758710  0.48565792  1
  O  O285  1  1.01547359  0.40020236  0.98771953  1
  O  O286  1  0.98182520  0.87744043  0.51153880  1
  O  O287  1  0.97886772  0.87241890  0.99134031  1
  O  O288  1  0.47959000  0.47420297  0.31494054  1
  O  O289  1  0.50958173  0.50109524  0.89411449  1
  O  O290  1  0.51160033  1.04116904  0.39544609  1
  O  O291  1  0.49846708  1.00850820  0.88906925  1
  O  O292  1  1.01977299  0.51481217  0.39279163  1
  O  O293  1  0.99649922  0.50805735  0.89289745  1
  O  O294  1  1.04202378  0.97255552  0.34127126  1
  O  O295  1  0.98334215  0.98561708  0.87219871  1
  O  O296  1  0.02880981  -0.03077908  0.14707907  1
  O  O297  1  -0.01247248  0.00683639  0.63038175  1
  O  O298  1  0.01314063  0.50870727  0.11509660  1
  O  O299  1  0.03869477  0.52011670  0.65790768  1
  O  O300  1  0.50538490  0.00185390  0.13209793  1
  O  O301  1  0.49151900  0.02359643  0.59510942  1
  O  O302  1  0.50868037  0.51159180  0.12124262  1
  O  O303  1  0.48897575  0.51881941  0.63146575  1
  O  O304  1  0.23832408  0.39640775  0.24914625  1
  O  O305  1  0.34583677  0.37017268  0.63298254  1
  O  O306  1  0.24344170  0.87847276  0.23045630  1
  O  O307  1  0.23120223  0.86059786  0.77140364  1
  O  O308  1  0.73480380  0.39077833  0.23425253  1
  O  O309  1  0.76500391  0.40397344  0.74982015  1
  O  O310  1  0.74930293  0.88568206  0.23282715  1
  O  O311  1  0.73314926  0.86637701  0.73867854  1
  O  O312  1  0.22309655  0.15819167  0.28268480  1
  O  O313  1  0.24813147  0.12113907  0.76186721  1
  O  O314  1  0.25500263  0.63121203  0.25314591  1
  O  O315  1  0.26766509  0.65163945  0.76284276  1
  O  O316  1  0.75739018  0.10863077  0.22613379  1
  O  O317  1  0.76985094  0.12930616  0.74272712  1
  O  O318  1  0.74820566  0.60956796  0.25405834  1
  O  O319  1  0.73542685  0.62588253  0.77181281  1
  O  O320  1  0.36530245  0.10181956  0.34626434  1
  O  O321  1  0.36545684  0.10780003  0.87856219  1
  O  O322  1  0.36694143  0.63148368  0.35432572  1
  O  O323  1  0.38396827  0.63343907  0.86596740  1
  O  O324  1  0.86750307  0.13675159  0.38855391  1
  O  O325  1  0.88074333  0.11249082  0.86798056  1
  O  O326  1  0.86861406  0.58120865  0.38294646  1
  O  O327  1  0.85468690  0.63145869  0.88561949  1
  O  O328  1  0.13177287  0.39151031  0.13257440  1
  O  O329  1  0.13014122  0.36946527  0.63499712  1
  O  O330  1  0.14109726  0.88842341  0.10623341  1
  O  O331  1  0.12642068  0.88240844  0.64044375  1
  O  O332  1  0.61840741  0.38920786  0.12370359  1
  O  O333  1  0.59075184  0.40429549  0.57858568  1
  O  O334  1  0.63339172  0.87903000  0.13468567  1
  O  O335  1  0.63275862  0.86251286  0.62413384  1
  O  O336  1  0.11966685  0.27400351  0.23435889  1
  O  O337  1  0.11865267  0.24126287  0.77559281  1
  O  O338  1  0.10627181  0.76504608  0.25962216  1
  O  O339  1  0.10320543  0.76941056  0.74634277  1
  O  O340  1  0.65051397  0.25559008  0.21254823  1
  O  O341  1  0.60962011  0.24922449  0.75890606  1
  O  O342  1  0.63734242  0.76417658  0.25164176  1
  O  O343  1  0.61564911  0.75206872  0.74894494  1
  O  O344  1  0.39125640  0.24987615  0.25673130  1
  O  O345  1  0.40828147  0.23517430  0.75879514  1
  O  O346  1  0.37276804  0.74740336  0.24645545  1
  O  O347  1  0.39439184  0.75098540  0.74322324  1
  O  O348  1  0.91666250  0.22811236  0.21459899  1
  O  O349  1  0.88578317  0.23524618  0.76743701  1
  O  O350  1  0.89557707  0.78519809  0.24575728  1
  O  O351  1  0.87712655  0.75061576  0.74750094  1
  O  O352  1  0.37505467  0.48771990  0.48492184  1
  O  O353  1  0.39257580  0.50692848  1.00153726  1
  O  O354  1  0.38225421  0.99770459  0.47320609  1
  O  O355  1  0.38452591  0.99096852  0.98923646  1
  O  O356  1  0.90930124  0.50289705  0.51904539  1
  O  O357  1  0.88858634  0.50072733  1.01389152  1
  O  O358  1  0.86377424  0.98396036  0.50094226  1
  O  O359  1  0.86592396  0.98980069  0.98916471  1
  O  O360  1  0.12098718  0.00827649  0.00396509  1
  O  O361  1  0.11854054  -0.00564878  0.52581403  1
  O  O362  1  0.12529659  0.51115363  0.01434307  1
  O  O363  1  0.12647713  0.50778172  0.52562217  1
  O  O364  1  0.60832376  -0.01234564  0.01586499  1
  O  O365  1  0.61903100  0.00531545  0.50239703  1
  O  O366  1  0.61898137  0.51525292  0.01272508  1
  O  O367  1  0.59675240  0.46141074  0.51675966  1
  O  O368  1  0.36232881  0.39389960  0.14595203  1
  O  O369  1  0.44492931  0.47217362  0.47932351  1
  O  O370  1  0.36213052  0.88439903  0.11595449  1
  O  O371  1  0.40674442  0.86502825  0.62502637  1
  O  O372  1  0.90671418  0.34742406  0.12190370  1
  O  O373  1  0.91562035  0.36144289  0.63825250  1
  O  O374  1  0.85662461  0.88326426  0.10506832  1
  O  O375  1  0.85796098  0.86702624  0.61777895  1
  O  O376  1  0.10540926  0.11201590  0.40311551  1
  O  O377  1  0.13944702  0.10811473  0.87444197  1
  O  O378  1  0.14074818  0.64926288  0.36962955  1
  O  O379  1  0.25784019  0.53123825  0.90024599  1
  O  O380  1  0.65404500  0.14331306  0.35690860  1
  O  O381  1  0.62299160  0.13761700  0.87782382  1
  O  O382  1  0.62889023  0.61613871  0.36748644  1
  O  O383  1  0.62627923  0.62302017  0.89391652  1
