# generated using pymatgen
data_VZnO4
_symmetry_space_group_name_H-M   'P 1'
_cell_length_a   17.05665280
_cell_length_b   16.94343989
_cell_length_c   16.90469061
_cell_angle_alpha   90.01037705
_cell_angle_beta   90.01572159
_cell_angle_gamma   89.58351362
_symmetry_Int_Tables_number   1
_chemical_formula_structural   VZnO4
_chemical_formula_sum   'V64 Zn64 O256'
_cell_volume   4885.29872424
_cell_formula_units_Z   64
loop_
 _symmetry_equiv_pos_site_id
 _symmetry_equiv_pos_as_xyz
  1  'x, y, z'
loop_
 _atom_site_type_symbol
 _atom_site_label
 _atom_site_symmetry_multiplicity
 _atom_site_fract_x
 _atom_site_fract_y
 _atom_site_fract_z
 _atom_site_occupancy
  V  V0  1  0.38033056  0.00048837  0.36272204  1
  V  V1  1  0.00891779  0.12339829  0.61317895  1
  V  V2  1  0.00642891  0.75378436  0.74771683  1
  V  V3  1  0.61714087  -0.00068409  0.64616130  1
  V  V4  1  0.76880689  0.37652503  0.62111270  1
  V  V5  1  0.49602377  0.39081050  0.84528820  1
  V  V6  1  0.36551272  0.38608539  0.50039198  1
  V  V7  1  0.12635161  0.23069941  0.35832386  1
  V  V8  1  0.74993605  0.87470155  0.60117427  1
  V  V9  1  0.76446492  0.01133405  0.22892084  1
  V  V10  1  0.60797064  0.50063344  0.15084978  1
  V  V11  1  0.89924864  0.27232057  0.11688224  1
  V  V12  1  0.75690987  0.28628452  -0.00381333  1
  V  V13  1  0.25403810  0.36535502  0.11936766  1
  V  V14  1  0.02080788  0.47868950  0.49043889  1
  V  V15  1  0.23793983  -0.00959430  0.24497721  1
  V  V16  1  0.11837023  0.88712715  0.75078212  1
  V  V17  1  0.50684168  0.36402104  0.38852827  1
  V  V18  1  0.25647472  0.24523362  -0.01824102  1
  V  V19  1  0.87117387  0.62748813  0.74120572  1
  V  V20  1  0.07075951  0.78955408  0.92752766  1
  V  V21  1  0.24572378  0.60853207  0.37569688  1
  V  V22  1  0.26759644  0.74469421  -0.00558446  1
  V  V23  1  0.38843676  0.86896704  0.49979060  1
  V  V24  1  0.63186442  0.34973092  0.25574489  1
  V  V25  1  0.88323220  0.01742270  0.41034592  1
  V  V26  1  0.52288035  0.78161056  0.26297226  1
  V  V27  1  0.25813823  0.49414817  0.24184811  1
  V  V28  1  0.50291988  0.62269708  0.61950818  1
  V  V29  1  0.11468865  0.49935498  0.12416314  1
  V  V30  1  0.12870222  0.39242551  0.75873884  1
  V  V31  1  0.89996355  0.40599034  -0.02645303  1
  V  V32  1  0.75412673  -0.01685812  0.76583298  1
  V  V33  1  0.50675436  0.50347488  0.49586538  1
  V  V34  1  0.75175036  0.13628708  0.86425389  1
  V  V35  1  0.88234770  0.76556364  0.60285211  1
  V  V36  1  0.49949792  0.24067740  0.73741185  1
  V  V37  1  0.75634541  0.71334807  0.02095943  1
  V  V38  1  0.25829725  0.00829943  0.76903769  1
  V  V39  1  0.08648050  0.08696533  -0.00259631  1
  V  V40  1  0.24322092  0.39066390  0.63179975  1
  V  V41  1  0.24444644  0.22768837  0.50760164  1
  V  V42  1  0.73672289  0.12871627  0.39150261  1
  V  V43  1  0.62693155  0.26853022  0.86118694  1
  V  V44  1  0.24799859  0.88289980  0.63029079  1
  V  V45  1  0.39242336  0.37635340  0.00231689  1
  V  V46  1  0.87642877  0.14233647  0.74175072  1
  V  V47  1  0.24233225  0.75235638  0.48852635  1
  V  V48  1  0.37932952  0.89266955  -0.00693024  1
  V  V49  1  0.59857479  0.63658010  -0.02554861  1
  V  V50  1  0.11341268  0.61593932  -0.00536434  1
  V  V51  1  0.60364018  -0.00259878  0.11200661  1
  V  V52  1  0.88194162  0.51122521  0.36914831  1
  V  V53  1  0.25280759  0.60846344  0.87382685  1
  V  V54  1  0.01923574  0.62829288  0.60221689  1
  V  V55  1  0.38030628  0.63359618  0.24532138  1
  V  V56  1  0.47598081  0.23235515  0.25074152  1
  V  V57  1  0.37259754  0.23703682  0.63107580  1
  V  V58  1  0.36737906  0.60474176  0.75245704  1
  V  V59  1  0.62536721  0.15380376  0.01160091  1
  V  V60  1  0.24581679  0.86153036  0.13036095  1
  V  V61  1  0.50250067  0.01139869  0.50519987  1
  V  V62  1  0.37270732  0.74881347  0.63789144  1
  V  V63  1  0.01391824  0.25042925  0.75865874  1
  Zn  Zn64  1  0.17700651  0.17838228  0.16397282  1
  Zn  Zn65  1  0.18510614  0.17554347  0.67014396  1
  Zn  Zn66  1  0.19537290  0.67404614  0.17566265  1
  Zn  Zn67  1  0.19069821  0.69214527  0.69029409  1
  Zn  Zn68  1  0.64493365  0.15466562  0.22685158  1
  Zn  Zn69  1  0.67775263  0.19854695  0.66826907  1
  Zn  Zn70  1  0.63319648  0.71829298  0.15391233  1
  Zn  Zn71  1  0.71118768  0.66305283  0.61828190  1
  Zn  Zn72  1  0.28527603  0.31060873  0.32104140  1
  Zn  Zn73  1  0.31902265  0.32246881  0.81004475  1
  Zn  Zn74  1  0.32627136  0.81420629  0.31329473  1
  Zn  Zn75  1  0.30857147  0.81240708  0.81888370  1
  Zn  Zn76  1  0.83875660  0.33895968  0.30575645  1
  Zn  Zn77  1  0.82336384  0.32387841  0.81246361  1
  Zn  Zn78  1  0.81083189  0.88248909  0.32198882  1
  Zn  Zn79  1  0.81579125  0.77669599  0.82150054  1
  Zn  Zn80  1  0.17998467  0.41523236  0.43567463  1
  Zn  Zn81  1  0.19117950  0.43306628  0.94086370  1
  Zn  Zn82  1  0.20282409  0.93880340  0.43301363  1
  Zn  Zn83  1  0.18686510  0.93494677  0.94131494  1
  Zn  Zn84  1  0.69999316  0.55137561  0.44854806  1
  Zn  Zn85  1  0.65078403  0.44079203  0.96764549  1
  Zn  Zn86  1  0.69057704  0.99216658  0.45222042  1
  Zn  Zn87  1  0.58232395  0.83685263  1.00934793  1
  Zn  Zn88  1  0.30614984  0.05917738  0.06978670  1
  Zn  Zn89  1  0.32129807  0.05521448  0.57284710  1
  Zn  Zn90  1  0.31622963  0.55618450  0.06210888  1
  Zn  Zn91  1  0.30184823  0.56814608  0.56217261  1
  Zn  Zn92  1  0.77822217  0.11996964  0.08710090  1
  Zn  Zn93  1  0.80788272  0.06205838  0.57435459  1
  Zn  Zn94  1  0.77349155  0.53545756  0.06127605  1
  Zn  Zn95  1  0.84837882  0.56451768  0.55433316  1
  Zn  Zn96  1  0.43694420  0.42471753  0.19609614  1
  Zn  Zn97  1  0.43428377  0.43720288  0.67170009  1
  Zn  Zn98  1  0.43546401  0.92564685  0.17095694  1
  Zn  Zn99  1  0.43378023  0.93748411  0.70247638  1
  Zn  Zn100  1  0.90134615  0.46700579  0.16610351  1
  Zn  Zn101  1  0.95959197  0.44718384  0.68719113  1
  Zn  Zn102  1  0.97084102  0.96775971  0.28350538  1
  Zn  Zn103  1  0.93154046  0.94706463  0.68980783  1
  Zn  Zn104  1  0.06161188  0.08233561  0.44217380  1
  Zn  Zn105  1  0.17987741  0.17797284  0.83706463  1
  Zn  Zn106  1  0.07875223  0.55571531  0.31886508  1
  Zn  Zn107  1  0.06026641  0.57232533  0.81095206  1
  Zn  Zn108  1  0.55702093  0.04113601  0.31084616  1
  Zn  Zn109  1  0.56165826  0.07263874  0.82554220  1
  Zn  Zn110  1  0.55564489  0.54440445  0.31280856  1
  Zn  Zn111  1  0.55499227  0.58618194  0.80388609  1
  Zn  Zn112  1  0.39293297  0.20641364  0.40494831  1
  Zn  Zn113  1  0.44557328  0.18954940  0.93367021  1
  Zn  Zn114  1  0.43141350  0.68576845  0.42733118  1
  Zn  Zn115  1  0.45997201  0.54778292  0.95134278  1
  Zn  Zn116  1  0.92862282  0.20941451  0.42143456  1
  Zn  Zn117  1  0.93312659  0.19341710  0.93981372  1
  Zn  Zn118  1  0.93361457  0.68275896  0.42553089  1
  Zn  Zn119  1  0.90306912  0.60559660  0.93653702  1
  Zn  Zn120  1  0.07076917  0.32523800  0.03529108  1
  Zn  Zn121  1  0.06715725  0.30034945  0.57266826  1
  Zn  Zn122  1  0.05194085  0.90945770  0.07830171  1
  Zn  Zn123  1  0.07369788  0.81792873  0.56738764  1
  Zn  Zn124  1  0.55031652  0.29326886  0.07564878  1
  Zn  Zn125  1  0.53910343  0.22213375  0.52227186  1
  Zn  Zn126  1  0.44108394  0.70173783  0.08730390  1
  Zn  Zn127  1  0.56030443  0.81540515  0.58673539  1
  O  O128  1  0.12890805  0.12151759  0.08390184  1
  O  O129  1  0.10811311  0.11386446  0.61616414  1
  O  O130  1  0.12886054  0.61102775  0.10573298  1
  O  O131  1  0.11636482  0.63830539  0.62316359  1
  O  O132  1  0.65758539  0.16604792  0.10936690  1
  O  O133  1  0.63429917  0.09532313  0.63414497  1
  O  O134  1  0.61977950  0.59972203  0.16025423  1
  O  O135  1  0.60007455  0.63635547  0.62561768  1
  O  O136  1  0.36593333  0.36771487  0.40041438  1
  O  O137  1  0.39612168  0.37854468  0.87862979  1
  O  O138  1  0.37609560  0.88332349  0.39595546  1
  O  O139  1  0.36540246  0.87119919  0.89378032  1
  O  O140  1  1.03034764  0.37845031  0.28496675  1
  O  O141  1  0.88251495  0.39333871  0.87266048  1
  O  O142  1  0.90578438  0.91496890  0.36966520  1
  O  O143  1  0.87274371  0.86318101  0.90957946  1
  O  O144  1  0.26853794  -0.01466142  0.35574096  1
  O  O145  1  0.24615512  -0.00490192  0.86740929  1
  O  O146  1  0.23978107  0.50353454  0.35925179  1
  O  O147  1  0.25557977  0.50989017  0.87970325  1
  O  O148  1  0.78067918  -0.00279771  0.37632014  1
  O  O149  1  0.73871837  0.03130625  0.86327341  1
  O  O150  1  0.78333665  0.50273143  0.38801406  1
  O  O151  1  0.70753751  0.52118310  0.83040824  1
  O  O152  1  0.24611666  0.49501724  0.13162134  1
  O  O153  1  0.24360314  0.48950710  0.62201480  1
  O  O154  1  0.24964467  0.97935294  0.13566981  1
  O  O155  1  0.25642476  0.98598149  0.63923552  1
  O  O156  1  0.67943423  0.46913331  0.08110093  1
  O  O157  1  0.78354887  0.48036307  0.61205178  1
  O  O158  1  0.74542574  1.02041152  0.12541601  1
  O  O159  1  0.74178751  0.98101945  0.64683948  1
  O  O160  1  0.04233295  0.34065748  0.22517299  1
  O  O161  1  0.02051025  0.36096122  0.73970924  1
  O  O162  1  0.01633165  0.86260605  0.23962867  1
  O  O163  1  0.01048403  0.87328657  0.74146887  1
  O  O164  1  0.48543227  0.35704070  0.28155137  1
  O  O165  1  0.49835013  0.37430480  0.74452957  1
  O  O166  1  0.49772141  0.88063480  0.25647458  1
  O  O167  1  0.49051049  0.86363310  0.77860377  1
  O  O168  1  0.49688165  0.13426832  0.26749471  1
  O  O169  1  0.51010733  0.14328546  0.74067509  1
  O  O170  1  0.47530383  0.60827064  0.26356370  1
  O  O171  1  0.47769168  0.62073984  0.72877455  1
  O  O172  1  0.99415285  0.07546185  0.14882206  1
  O  O173  1  0.98148807  0.13390646  0.73991772  1
  O  O174  1  1.03682520  0.66432694  0.24659029  1
  O  O175  1  1.00309107  0.64711500  0.73000425  1
  O  O176  1  0.37306958  0.26838232  -0.01385837  1
  O  O177  1  0.36663781  0.25713608  0.52183861  1
  O  O178  1  0.36550382  0.74763607  0.00644923  1
  O  O179  1  0.36590521  0.76022190  0.50654757  1
  O  O180  1  0.86790096  0.28158424  -0.01919104  1
  O  O181  1  0.87331612  0.30706373  0.40768742  1
  O  O182  1  0.85134033  0.68614397  0.00474057  1
  O  O183  1  0.89064452  0.75957874  0.50310592  1
  O  O184  1  0.14540383  0.25238419  0.50210458  1
  O  O185  1  0.15688699  0.26367864  0.99073678  1
  O  O186  1  0.14454425  0.76115257  0.50222894  1
  O  O187  1  0.13487743  0.73095890  0.98838316  1
  O  O188  1  0.63584436  0.23880006  0.56953368  1
  O  O189  1  0.64223107  0.27087277  0.98152624  1
  O  O190  1  0.62305324  0.74559304  0.49501284  1
  O  O191  1  0.62129238  0.73127000  1.02700691  1
  O  O192  1  0.47063637  0.25029863  0.15339605  1
  O  O193  1  0.48454593  0.25555715  0.62939805  1
  O  O194  1  0.51186012  0.74502604  0.16150537  1
  O  O195  1  0.48007298  0.73746901  0.61748657  1
  O  O196  1  0.99850215  0.26420840  0.09578590  1
  O  O197  1  1.00610770  0.23484548  0.64202102  1
  O  O198  1  0.98808183  0.84576843  0.17135570  1
  O  O199  1  0.99613235  0.76004607  0.62362770  1
  O  O200  1  0.02787403  0.24185036  0.37101266  1
  O  O201  1  0.00267296  0.24221664  0.85806651  1
  O  O202  1  -0.06053418  0.76389969  0.32564114  1
  O  O203  1  0.00324120  0.74932847  0.85597062  1
  O  O204  1  0.49592273  0.26120124  0.42009953  1
  O  O205  1  0.50845854  0.26546826  0.85381570  1
  O  O206  1  0.49342651  0.74636733  0.35671099  1
  O  O207  1  0.61482782  0.77300443  0.75191960  1
  O  O208  1  0.24640892  0.12913405  0.52988047  1
  O  O209  1  0.27433613  0.14950732  1.00674288  1
  O  O210  1  0.25481830  0.63929663  0.48443975  1
  O  O211  1  0.25451926  0.62848199  0.98947403  1
  O  O212  1  0.73526511  0.09725294  0.49713013  1
  O  O213  1  0.74608618  0.16138337  0.97817447  1
  O  O214  1  0.75177646  0.61299008  0.52562634  1
  O  O215  1  0.70965289  0.61659359  0.99822845  1
  O  O216  1  0.26701586  0.36935415  0.00405923  1
  O  O217  1  0.25515811  0.36752482  0.51672477  1
  O  O218  1  0.25204988  0.85760801  0.00480049  1
  O  O219  1  0.26087251  0.87134274  0.51154188  1
  O  O220  1  0.75075571  0.38437377  -0.03416930  1
  O  O221  1  0.77521139  0.35564743  0.52077832  1
  O  O222  1  0.74601959  0.81800663  -0.02463794  1
  O  O223  1  0.74554889  0.89283317  0.50488294  1
  O  O224  1  0.14011737  0.50784964  0.23194014  1
  O  O225  1  0.11354369  0.49066289  0.74935672  1
  O  O226  1  0.14412651  0.99670850  0.25954541  1
  O  O227  1  0.13166938  0.98370892  0.75954938  1
  O  O228  1  0.62085615  0.46644573  0.25387996  1
  O  O229  1  0.66218840  0.53511911  0.77303496  1
  O  O230  1  0.62096814  1.03225249  0.21328244  1
  O  O231  1  0.63301168  0.99878099  0.75539788  1
  O  O232  1  0.38725247  -0.00408085  0.26301954  1
  O  O233  1  0.35748038  -0.00018807  0.75538826  1
  O  O234  1  0.35972543  0.50291135  0.24606804  1
  O  O235  1  0.36523949  0.50795656  0.73652438  1
  O  O236  1  0.86442694  0.00316775  0.23279694  1
  O  O237  1  0.85304548  0.01681672  0.75132046  1
  O  O238  1  0.88975951  0.44740843  0.28342992  1
  O  O239  1  0.90120850  0.52825676  0.74471083  1
  O  O240  1  0.17436483  0.33224314  0.36278826  1
  O  O241  1  0.13667879  0.37706469  0.85793372  1
  O  O242  1  0.09618007  0.88578570  0.40090113  1
  O  O243  1  0.12351424  0.85988025  0.86871046  1
  O  O244  1  0.60435764  0.36897050  0.37682530  1
  O  O245  1  0.60357743  0.37566665  0.87654612  1
  O  O246  1  0.64879359  0.78062194  0.43527131  1
  O  O247  1  0.57896938  0.85383942  0.87635646  1
  O  O248  1  0.32659001  0.11362646  0.17494421  1
  O  O249  1  0.37453589  0.13829196  0.63216123  1
  O  O250  1  0.37105059  0.62272031  0.13785806  1
  O  O251  1  0.36500495  0.63684637  0.63280583  1
  O  O252  1  0.87100741  0.17343274  0.10322528  1
  O  O253  1  0.85908920  0.13650361  0.64108687  1
  O  O254  1  0.82967213  0.55083949  0.15540847  1
  O  O255  1  0.90030534  0.64765482  0.62042117  1
  O  O256  1  0.24897673  0.26528143  0.11928213  1
  O  O257  1  0.25946297  0.25385002  0.62675439  1
  O  O258  1  0.24752743  0.75047750  0.11076167  1
  O  O259  1  0.25957850  0.75835543  0.61786460  1
  O  O260  1  0.75913445  0.28609378  0.09361186  1
  O  O261  1  0.76956635  0.27310454  0.63662914  1
  O  O262  1  0.74615008  0.72903476  0.11997439  1
  O  O263  1  0.76903986  0.76599303  0.61168417  1
  O  O264  1  0.27387836  0.22687479  0.40855953  1
  O  O265  1  0.26325140  0.24661799  0.87541510  1
  O  O266  1  0.25274402  0.76314706  0.38830366  1
  O  O267  1  0.25711275  0.73487843  0.88850355  1
  O  O268  1  0.71734919  0.22250332  0.39270314  1
  O  O269  1  0.73541490  0.26291770  0.86022533  1
  O  O270  1  0.74751561  0.68098718  0.34605778  1
  O  O271  1  0.73651995  0.76678082  0.91131834  1
  O  O272  1  -0.01189355  0.10942386  -0.01023737  1
  O  O273  1  -0.01214136  0.14565675  0.51103725  1
  O  O274  1  0.01717904  0.62559402  -0.01313724  1
  O  O275  1  0.01175667  0.64389739  0.50162569  1
  O  O276  1  0.52898918  0.18582998  0.01934733  1
  O  O277  1  0.49994080  0.10941815  0.51411921  1
  O  O278  1  0.49504720  0.64568178  0.00147360  1
  O  O279  1  0.48121099  0.61334237  0.50627896  1
  O  O280  1  0.48181883  0.39133512  0.50305346  1
  O  O281  1  0.49263242  0.36931846  1.00397513  1
  O  O282  1  0.48817952  0.86679235  0.51184412  1
  O  O283  1  0.47715104  0.87355600  1.00620309  1
  O  O284  1  1.01529140  0.38074449  0.50782118  1
  O  O285  1  1.00000731  0.39802711  0.97913741  1
  O  O286  1  1.05971775  0.91600206  0.46637592  1
  O  O287  1  1.01507464  0.83761486  0.99356643  1
  O  O288  1  0.49160381  0.48306117  0.39004041  1
  O  O289  1  0.49940677  0.49451214  0.84932292  1
  O  O290  1  0.49216412  0.99359101  0.39832092  1
  O  O291  1  0.52950008  0.90041822  0.83909108  1
  O  O292  1  1.00867250  0.49628251  0.38173373  1
  O  O293  1  0.96927895  0.54449074  0.86541978  1
  O  O294  1  0.98066609  1.04437384  0.36947842  1
  O  O295  1  0.90781026  0.92409657  0.88930535  1
  O  O296  1  0.01282442  0.00576605  0.16710530  1
  O  O297  1  -0.01932194  0.02635559  0.62814282  1
  O  O298  1  0.01813879  0.49046244  0.13532371  1
  O  O299  1  0.00319581  0.52054224  0.60156679  1
  O  O300  1  0.50455981  0.00000786  0.11574633  1
  O  O301  1  0.51189232  -0.01413026  0.63502537  1
  O  O302  1  0.51029832  0.48295496  0.13098883  1
  O  O303  1  0.49376615  0.51360754  0.61174567  1
  O  O304  1  0.25959983  0.38469813  0.23120985  1
  O  O305  1  0.24266563  0.37746842  0.74196326  1
  O  O306  1  0.25946447  0.87484220  0.23903357  1
  O  O307  1  0.23906211  0.87771627  0.74870703  1
  O  O308  1  0.72860271  0.34043372  0.26686399  1
  O  O309  1  0.76283629  0.37957930  0.72780651  1
  O  O310  1  0.73124788  0.91635004  0.25337831  1
  O  O311  1  0.76664959  0.88604144  0.78161875  1
  O  O312  1  0.26276684  0.10163721  0.22362789  1
  O  O313  1  0.23419698  0.10971252  0.75416072  1
  O  O314  1  0.25810584  0.61351440  0.25293333  1
  O  O315  1  0.25692349  0.62990416  0.76229081  1
  O  O316  1  0.74421479  0.11194510  0.27113998  1
  O  O317  1  0.74981187  0.14547105  0.75601806  1
  O  O318  1  0.69359303  0.64673646  0.31109277  1
  O  O319  1  0.77812961  0.62503680  0.70538244  1
  O  O320  1  0.37521320  0.09492357  0.39201735  1
  O  O321  1  0.47223049  0.08970126  0.88986772  1
  O  O322  1  0.35232035  0.62965190  0.36125046  1
  O  O323  1  0.36958199  0.61439450  0.85715848  1
  O  O324  1  0.85219340  0.12520487  0.39480745  1
  O  O325  1  0.85562055  0.13961326  0.86279746  1
  O  O326  1  0.89676293  0.60945280  0.34788696  1
  O  O327  1  0.85206415  0.66060205  0.83934449  1
  O  O328  1  0.14557771  0.39062438  0.10792877  1
  O  O329  1  0.14079128  0.36722200  0.63792614  1
  O  O330  1  0.14606963  0.86728201  0.12636905  1
  O  O331  1  0.13642053  0.87803034  0.63994229  1
  O  O332  1  0.61049953  0.35054857  0.15507740  1
  O  O333  1  0.66925472  0.39381276  0.61611011  1
  O  O334  1  0.62851571  0.90227537  0.09246341  1
  O  O335  1  0.64542391  0.87321865  0.63110897  1
  O  O336  1  0.14324884  0.22314387  0.25762286  1
  O  O337  1  0.12033909  0.23746830  0.75405764  1
  O  O338  1  0.08933559  0.71473487  0.23120039  1
  O  O339  1  0.11178996  0.76205176  0.74235030  1
  O  O340  1  0.59195381  0.24873736  0.26960018  1
  O  O341  1  0.61487575  0.25793702  0.75380251  1
  O  O342  1  0.62317841  0.77276729  0.26084076  1
  O  O343  1  0.67661382  0.73414681  0.75082199  1
  O  O344  1  0.37958371  0.24506080  0.28971723  1
  O  O345  1  0.38852643  0.25692385  0.74132467  1
  O  O346  1  0.37556816  0.73623347  0.24719384  1
  O  O347  1  0.36913123  0.74892760  0.73893533  1
  O  O348  1  0.89124745  0.28752335  0.21592973  1
  O  O349  1  0.88836560  0.24743530  0.75485567  1
  O  O350  1  0.87530067  0.77248556  0.28826212  1
  O  O351  1  0.89269624  0.75491029  0.73099892  1
  O  O352  1  0.36563744  0.48868711  0.50661465  1
  O  O353  1  0.37876382  0.48524000  0.99672994  1
  O  O354  1  0.39048892  0.98299285  0.51575937  1
  O  O355  1  0.36363770  0.99254611  1.00004767  1
  O  O356  1  0.90786646  0.50464283  0.47916086  1
  O  O357  1  0.86475421  0.50612669  0.99021029  1
  O  O358  1  0.88340918  1.00318897  0.50861879  1
  O  O359  1  0.89922086  0.94875172  1.06259479  1
  O  O360  1  0.10058610  -0.01907288  0.00182523  1
  O  O361  1  0.10835893  -0.01749335  0.49474059  1
  O  O362  1  0.13068570  0.50797180  0.00662929  1
  O  O363  1  0.12145704  0.49620342  0.48809890  1
  O  O364  1  0.61965466  0.04951927  0.01463746  1
  O  O365  1  0.60222356  -0.01775425  0.52316502  1
  O  O366  1  0.58390683  0.53142806  -0.02789032  1
  O  O367  1  0.60489526  0.50521858  0.49555917  1
  O  O368  1  0.36580397  0.37850251  0.11201364  1
  O  O369  1  0.35821865  0.36941244  0.62172811  1
  O  O370  1  0.35749324  0.87153212  0.10789175  1
  O  O371  1  0.37037595  0.86248947  0.62464383  1
  O  O372  1  0.88339349  0.38224225  0.08704872  1
  O  O373  1  0.87502242  0.38177665  0.63330621  1
  O  O374  1  0.85540673  0.89270428  0.07485660  1
  O  O375  1  0.86459479  0.87267886  0.62457852  1
  O  O376  1  0.14530784  0.13412900  0.38973830  1
  O  O377  1  0.13059094  0.11412325  0.91229004  1
  O  O378  1  0.15009419  0.63585244  0.36295246  1
  O  O379  1  0.14231495  0.61569180  0.88202705  1
  O  O380  1  0.64063990  0.07579862  0.38107485  1
  O  O381  1  0.63150879  0.15475418  0.88271008  1
  O  O382  1  0.63594867  0.60770092  0.36837702  1
  O  O383  1  0.59768741  0.66043641  0.87640248  1
