# generated using pymatgen
data_VZnO4
_symmetry_space_group_name_H-M   'P 1'
_cell_length_a   16.93435347
_cell_length_b   16.89870791
_cell_length_c   16.94840649
_cell_angle_alpha   90.06412086
_cell_angle_beta   90.16150959
_cell_angle_gamma   90.33171480
_symmetry_Int_Tables_number   1
_chemical_formula_structural   VZnO4
_chemical_formula_sum   'V64 Zn64 O256'
_cell_volume   4849.99965303
_cell_formula_units_Z   64
loop_
 _symmetry_equiv_pos_site_id
 _symmetry_equiv_pos_as_xyz
  1  'x, y, z'
loop_
 _atom_site_type_symbol
 _atom_site_label
 _atom_site_symmetry_multiplicity
 _atom_site_fract_x
 _atom_site_fract_y
 _atom_site_fract_z
 _atom_site_occupancy
  V  V0  1  0.37485029  0.85898282  -0.00806038  1
  V  V1  1  0.38081907  0.73230005  0.61029084  1
  V  V2  1  0.37816803  0.36170955  0.50768988  1
  V  V3  1  0.76080298  0.12002163  0.37533421  1
  V  V4  1  0.29214811  0.10768942  0.40182862  1
  V  V5  1  0.49986047  0.36176237  0.35756676  1
  V  V6  1  0.61478558  -0.00707196  0.13033746  1
  V  V7  1  0.86880375  0.25468621  0.62525517  1
  V  V8  1  0.37140999  0.48936118  0.35511536  1
  V  V9  1  0.76483019  0.14857306  0.88677419  1
  V  V10  1  0.75830517  0.50782292  0.29156014  1
  V  V11  1  0.48511870  0.89466462  0.39139266  1
  V  V12  1  0.88664293  0.62534367  0.23498816  1
  V  V13  1  0.51106550  0.39141566  0.87635035  1
  V  V14  1  0.89179272  0.75170100  0.62408893  1
  V  V15  1  0.63973199  0.49326143  0.14286758  1
  V  V16  1  0.74851148  0.75072435  -0.01889639  1
  V  V17  1  0.85532359  0.62662006  0.74249310  1
  V  V18  1  0.00555629  0.39515187  0.88375127  1
  V  V19  1  -0.01628015  -0.00331255  0.48287201  1
  V  V20  1  0.40838039  0.00139144  0.87335308  1
  V  V21  1  -0.01753498  0.24392515  0.25385912  1
  V  V22  1  0.76052882  -0.00600923  0.25686789  1
  V  V23  1  0.61955142  0.24264296  0.36074634  1
  V  V24  1  0.24893373  0.25200121  0.50597403  1
  V  V25  1  0.12135995  0.24675862  0.36948989  1
  V  V26  1  0.51371731  0.61770429  0.13108139  1
  V  V27  1  0.49847022  0.50188058  0.50063275  1
  V  V28  1  0.24302021  0.85983094  0.10604427  1
  V  V29  1  0.86796182  0.86842447  0.48482772  1
  V  V30  1  0.74178181  0.87121656  0.61916641  1
  V  V31  1  0.37661858  0.13636521  0.75183661  1
  V  V32  1  0.63252756  0.62198194  -0.00762573  1
  V  V33  1  0.88102895  0.88119914  0.00144753  1
  V  V34  1  0.74828602  0.86356387  0.13717642  1
  V  V35  1  0.03256742  0.61155069  0.62686796  1
  V  V36  1  0.12799191  0.12267084  0.00036088  1
  V  V37  1  0.26630195  0.88772702  0.60871825  1
  V  V38  1  0.63439430  0.13104077  0.00170570  1
  V  V39  1  -0.00222075  0.11764360  0.62803533  1
  V  V40  1  0.12029320  0.10932604  0.49528804  1
  V  V41  1  0.25026529  0.63788264  0.37505059  1
  V  V42  1  0.51282640  0.76799604  0.23930235  1
  V  V43  1  0.23899000  -0.00412428  0.75730299  1
  V  V44  1  0.61926602  0.00184270  0.62180060  1
  V  V45  1  0.37661146  0.63996279  0.24252671  1
  V  V46  1  0.49896872  0.14830818  0.62745516  1
  V  V47  1  0.11968711  0.74644940  0.89267750  1
  V  V48  1  -0.02642918  0.11506041  0.13141478  1
  V  V49  1  0.00403938  0.87974637  0.84658575  1
  V  V50  1  0.50060101  0.14333176  0.11895718  1
  V  V51  1  0.12250638  0.86627121  0.24926729  1
  V  V52  1  0.74824973  -0.00432271  0.75903514  1
  V  V53  1  0.87996161  0.12418252  0.75995698  1
  V  V54  1  0.62186668  0.12740070  0.49725712  1
  V  V55  1  0.49503964  0.76964507  0.74506679  1
  V  V56  1  0.02096493  0.48767729  0.49692217  1
  V  V57  1  0.24744092  0.01036928  0.21318286  1
  V  V58  1  0.29175078  0.36563153  0.07704801  1
  V  V59  1  0.12478802  0.37627873  0.23519527  1
  V  V60  1  0.62080938  0.75025484  0.38925243  1
  V  V61  1  0.86611876  0.37559353  0.48963072  1
  V  V62  1  0.62644081  0.48435985  0.61995514  1
  V  V63  1  0.37074424  0.14094082  0.22456905  1
  Zn  Zn64  1  0.18595492  0.20563253  0.16580925  1
  Zn  Zn65  1  0.19357103  0.16789330  0.67643417  1
  Zn  Zn66  1  0.19312712  0.68734317  0.18921315  1
  Zn  Zn67  1  0.17805076  0.74016563  0.66493942  1
  Zn  Zn68  1  0.68849303  0.17214922  0.19178220  1
  Zn  Zn69  1  0.69229136  0.19366967  0.69374754  1
  Zn  Zn70  1  0.69107307  0.68439725  0.20590402  1
  Zn  Zn71  1  0.67529663  0.68929247  0.68990620  1
  Zn  Zn72  1  0.30375287  0.30023858  0.31070342  1
  Zn  Zn73  1  0.32958155  0.31182736  0.83171038  1
  Zn  Zn74  1  0.30882393  0.82419769  0.30315655  1
  Zn  Zn75  1  0.31897310  0.82160765  0.80429727  1
  Zn  Zn76  1  0.78291460  0.29811632  0.27064934  1
  Zn  Zn77  1  0.83488629  0.31664894  0.96381914  1
  Zn  Zn78  1  0.82159143  0.75538879  0.33301514  1
  Zn  Zn79  1  0.81503935  0.82058328  0.80626294  1
  Zn  Zn80  1  0.19374250  0.43432020  0.42712791  1
  Zn  Zn81  1  0.19297682  0.46573436  0.95234328  1
  Zn  Zn82  1  0.19345758  0.93990955  0.42751092  1
  Zn  Zn83  1  0.18112752  0.93927690  0.93075977  1
  Zn  Zn84  1  0.68528443  0.43025196  0.43430238  1
  Zn  Zn85  1  0.69982306  0.45151122  0.94518227  1
  Zn  Zn86  1  0.67484498  0.93300852  0.43302146  1
  Zn  Zn87  1  0.67978772  0.93674409  0.94787777  1
  Zn  Zn88  1  0.31273571  0.07124968  0.03947781  1
  Zn  Zn89  1  0.31832160  0.06000681  0.57421720  1
  Zn  Zn90  1  0.36349058  0.49309640  0.13972947  1
  Zn  Zn91  1  0.33021864  0.56654598  0.54462276  1
  Zn  Zn92  1  0.81024117  0.05256974  0.06626679  1
  Zn  Zn93  1  0.80779833  0.06010194  0.55973453  1
  Zn  Zn94  1  0.81060173  0.55568946  0.05952621  1
  Zn  Zn95  1  0.82821302  0.53644346  0.59323573  1
  Zn  Zn96  1  0.49712911  0.35738483  0.14271415  1
  Zn  Zn97  1  0.48506091  0.38490262  0.66402034  1
  Zn  Zn98  1  0.42430550  0.94195589  0.17458341  1
  Zn  Zn99  1  0.44096870  0.94114870  0.69593116  1
  Zn  Zn100  1  0.94468251  0.43371051  0.31580033  1
  Zn  Zn101  1  0.94590843  0.44498747  0.68178720  1
  Zn  Zn102  1  0.93194985  0.92566550  0.19507112  1
  Zn  Zn103  1  0.92933337  0.94433232  0.67844539  1
  Zn  Zn104  1  0.06304118  0.05665927  0.30170497  1
  Zn  Zn105  1  0.06396775  0.05573911  0.82210193  1
  Zn  Zn106  1  0.06609783  0.56430500  0.31012799  1
  Zn  Zn107  1  0.00909608  0.60554354  0.83219746  1
  Zn  Zn108  1  0.55344439  0.05972280  0.30061724  1
  Zn  Zn109  1  0.57991506  0.09372816  0.80364367  1
  Zn  Zn110  1  0.56130601  0.56237776  0.31622209  1
  Zn  Zn111  1  0.56208632  0.59397324  0.79741226  1
  Zn  Zn112  1  0.43999087  0.17307961  0.43684255  1
  Zn  Zn113  1  0.45781054  0.18656373  0.93056985  1
  Zn  Zn114  1  0.44492066  0.69052091  0.42318859  1
  Zn  Zn115  1  0.42729392  0.66898369  0.96374098  1
  Zn  Zn116  1  0.93529514  0.19336119  0.44189539  1
  Zn  Zn117  1  0.97553886  0.17926846  0.93139887  1
  Zn  Zn118  1  0.93136441  0.66317219  0.45238206  1
  Zn  Zn119  1  0.91146940  0.72490330  0.91100879  1
  Zn  Zn120  1  0.03233348  0.29947403  0.06407610  1
  Zn  Zn121  1  0.05669237  0.29717182  0.56127485  1
  Zn  Zn122  1  0.06288400  0.95097135  0.07166129  1
  Zn  Zn123  1  0.06066745  0.83882032  0.56873415  1
  Zn  Zn124  1  0.69180180  0.31905160  0.09138539  1
  Zn  Zn125  1  0.57626936  0.31357574  0.54479244  1
  Zn  Zn126  1  0.56841923  0.81703005  0.04142720  1
  Zn  Zn127  1  0.54605151  0.82453028  0.55655715  1
  O  O128  1  0.11487484  0.13599174  0.10712899  1
  O  O129  1  0.10774382  0.12714925  0.61021784  1
  O  O130  1  0.12493249  0.60755787  0.13173180  1
  O  O131  1  0.12801953  0.64177588  0.63294946  1
  O  O132  1  0.61228576  0.11643860  0.12516661  1
  O  O133  1  0.62001745  0.12355493  0.61420643  1
  O  O134  1  0.62347961  0.61652352  0.13363944  1
  O  O135  1  0.64987486  0.62972599  0.57364199  1
  O  O136  1  0.38182386  0.37430294  0.36923647  1
  O  O137  1  0.40363192  0.38742980  0.87645751  1
  O  O138  1  0.38787127  0.87810845  0.36064516  1
  O  O139  1  0.37795711  0.89015491  0.88254344  1
  O  O140  1  0.88407988  0.37085855  0.39231066  1
  O  O141  1  0.90063762  0.38267631  0.89047919  1
  O  O142  1  0.86471143  0.85740631  0.38787205  1
  O  O143  1  0.89196725  0.85810250  0.88697335  1
  O  O144  1  0.25038343  0.02513470  0.36419573  1
  O  O145  1  0.25216038  -0.00199208  0.85888459  1
  O  O146  1  0.27048980  0.49776325  0.36921678  1
  O  O147  1  0.21446498  0.54589166  0.85632197  1
  O  O148  1  0.73709496  0.00638946  0.36613374  1
  O  O149  1  0.73914718  -0.01613879  0.85841850  1
  O  O150  1  0.73601652  0.52252749  0.38845707  1
  O  O151  1  0.73712912  0.47060279  0.81269303  1
  O  O152  1  0.25618531  0.44849569  0.12356652  1
  O  O153  1  0.26697345  0.48374520  0.62013475  1
  O  O154  1  0.24607313  1.00464772  0.11300163  1
  O  O155  1  0.25089628  0.99454223  0.63426080  1
  O  O156  1  0.73949860  0.48885544  0.13398413  1
  O  O157  1  0.72521971  0.49303713  0.60968667  1
  O  O158  1  0.74410105  0.99567896  0.14407763  1
  O  O159  1  0.74134391  0.99430140  0.62939898  1
  O  O160  1  0.01087967  0.35151191  0.26321550  1
  O  O161  1  0.00113275  0.41108730  0.77879107  1
  O  O162  1  0.02286346  0.88161139  0.24433876  1
  O  O163  1  -0.00779280  0.87730963  0.74618216  1
  O  O164  1  0.49849141  0.36473212  0.25992097  1
  O  O165  1  0.50602560  0.36625431  0.77261129  1
  O  O166  1  0.49285514  0.86644396  0.23050173  1
  O  O167  1  0.51439921  0.86738187  0.75339805  1
  O  O168  1  0.48359755  0.12152231  0.22653294  1
  O  O169  1  0.49008351  0.12776262  0.73435630  1
  O  O170  1  0.49558599  0.63626191  0.24519183  1
  O  O171  1  0.47136978  0.65777042  0.85424426  1
  O  O172  1  1.00076956  0.13438707  0.24808376  1
  O  O173  1  0.98917174  0.10503132  0.73600689  1
  O  O174  1  0.98724249  0.61646563  0.25184705  1
  O  O175  1  0.98991014  0.62581249  0.71961077  1
  O  O176  1  0.36009754  0.24250799  -0.02332336  1
  O  O177  1  0.36296414  0.25346279  0.48773203  1
  O  O178  1  0.36327129  0.75894617  -0.02031294  1
  O  O179  1  0.39013207  0.73947285  0.51045838  1
  O  O180  1  0.92676706  0.26194071  -0.00694386  1
  O  O181  1  0.88385465  0.26533911  0.51450724  1
  O  O182  1  0.85512353  0.75680238  0.00358727  1
  O  O183  1  0.87738298  0.76255321  0.51066482  1
  O  O184  1  0.13395013  0.24134153  0.49265663  1
  O  O185  1  0.10029029  0.23308861  1.00102367  1
  O  O186  1  0.09727735  0.76184440  0.45319877  1
  O  O187  1  0.14371151  0.75681385  0.98552077  1
  O  O188  1  0.63051903  0.23319545  0.48928340  1
  O  O189  1  0.65108811  0.22652776  1.02510584  1
  O  O190  1  0.60367042  0.75546545  0.49011626  1
  O  O191  1  0.63896471  0.73431098  1.00490063  1
  O  O192  1  0.50576470  0.24143315  0.12049772  1
  O  O193  1  0.50595677  0.24773592  0.62345395  1
  O  O194  1  0.51341579  0.73774112  0.13545087  1
  O  O195  1  0.48652387  0.76296424  0.63289418  1
  O  O196  1  0.98419663  0.23604296  0.14738251  1
  O  O197  1  0.98897588  0.22599133  0.62141692  1
  O  O198  1  1.00585345  0.73710601  0.12259721  1
  O  O199  1  0.99302068  0.74623883  0.61593148  1
  O  O200  1  0.01561615  0.23773230  0.37323022  1
  O  O201  1  0.01780935  0.29435261  0.86392447  1
  O  O202  1  0.04406538  0.74202006  0.40620544  1
  O  O203  1  0.00984207  0.76802615  0.87672170  1
  O  O204  1  0.50355852  0.25370259  0.37893804  1
  O  O205  1  0.50968202  0.28906930  0.90167181  1
  O  O206  1  0.49943791  0.76631081  0.35621539  1
  O  O207  1  0.49141487  0.73896502  0.85513574  1
  O  O208  1  0.23011528  0.12591632  0.50269339  1
  O  O209  1  0.22718372  0.12680729  0.98849876  1
  O  O210  1  0.26103952  0.61870846  0.47424285  1
  O  O211  1  0.16574500  0.57996214  1.07063976  1
  O  O212  1  0.73481881  0.11560592  0.48388473  1
  O  O213  1  0.76493988  0.12498954  0.98832103  1
  O  O214  1  0.70286038  0.63160729  0.52250086  1
  O  O215  1  0.74403968  0.64124526  1.00570058  1
  O  O216  1  0.26607316  0.38677385  -0.02223985  1
  O  O217  1  0.26120997  0.35931163  0.49286423  1
  O  O218  1  0.25343238  0.88000649  0.00043996  1
  O  O219  1  0.25738503  0.89915888  0.50882708  1
  O  O220  1  0.74270223  0.36184672  -0.00009997  1
  O  O221  1  0.76588198  0.37633049  0.49518811  1
  O  O222  1  0.75149414  0.86080868  0.01075953  1
  O  O223  1  0.75921149  0.88448114  0.51001295  1
  O  O224  1  0.11086278  0.47377479  0.25653184  1
  O  O225  1  0.18215898  0.54452694  0.78993021  1
  O  O226  1  0.14692645  1.00361079  0.24536744  1
  O  O227  1  0.13986227  1.01417762  0.75012243  1
  O  O228  1  0.63981991  0.50837684  0.24969086  1
  O  O229  1  0.60466896  0.53645744  0.70428343  1
  O  O230  1  0.62846771  1.00298948  0.23446841  1
  O  O231  1  0.64376452  1.01867222  0.73360108  1
  O  O232  1  0.35501341  0.01549306  0.23218948  1
  O  O233  1  0.37461167  0.00774388  0.76460511  1
  O  O234  1  0.38437468  0.49530633  0.25612958  1
  O  O235  1  0.31300004  0.44935478  0.75617133  1
  O  O236  1  0.85890851  -0.01236443  0.26118101  1
  O  O237  1  0.85736517  0.01238295  0.73981843  1
  O  O238  1  0.86709529  0.51272540  0.27942005  1
  O  O239  1  0.86761546  0.52646136  0.71018130  1
  O  O240  1  0.13352441  0.34787746  0.37810455  1
  O  O241  1  0.11085859  0.40895344  0.88881351  1
  O  O242  1  0.14593583  0.87994958  0.34859451  1
  O  O243  1  0.10997912  0.86825647  0.87043945  1
  O  O244  1  0.61155277  0.35371293  0.37934400  1
  O  O245  1  0.61543201  0.39390848  0.88030097  1
  O  O246  1  0.59767412  0.86938583  0.37991880  1
  O  O247  1  0.59702505  0.86275118  0.93414080  1
  O  O248  1  0.39074633  0.12667622  0.11239536  1
  O  O249  1  0.39264354  0.12686589  0.63284812  1
  O  O250  1  0.39296613  0.60837078  0.13884442  1
  O  O251  1  0.37189686  0.63255846  0.62670521  1
  O  O252  1  0.87368140  0.11422052  0.13916729  1
  O  O253  1  0.88187045  0.12664472  0.62236798  1
  O  O254  1  0.87850578  0.60012687  0.13523928  1
  O  O255  1  0.85860783  0.65023205  0.61996484  1
  O  O256  1  0.25334709  0.27681679  0.10777207  1
  O  O257  1  0.25170827  0.24048769  0.60418207  1
  O  O258  1  0.24873967  0.76120169  0.11792871  1
  O  O259  1  0.28176563  0.76977592  0.62504318  1
  O  O260  1  0.74815416  0.26253321  0.16846236  1
  O  O261  1  0.76793594  0.24084433  0.62836055  1
  O  O262  1  0.73709361  0.76385965  0.13346043  1
  O  O263  1  0.73137080  0.77148609  0.62990574  1
  O  O264  1  0.24458268  0.22112742  0.38559726  1
  O  O265  1  0.30445870  0.24488362  0.92364963  1
  O  O266  1  0.26501712  0.73745868  0.36493329  1
  O  O267  1  0.22823433  0.74423570  0.84187672  1
  O  O268  1  0.73018377  0.22766408  0.36231413  1
  O  O269  1  0.77169363  0.24583189  0.88386442  1
  O  O270  1  0.72031498  0.76680626  0.37709346  1
  O  O271  1  0.74861820  0.75837740  0.88138910  1
  O  O272  1  -0.01557205  0.11520567  0.02978650  1
  O  O273  1  0.00243970  0.11377431  0.50329855  1
  O  O274  1  0.00232341  0.69271757  0.06630300  1
  O  O275  1  -0.00191811  0.60676116  0.52183717  1
  O  O276  1  0.52312644  0.13028171  0.00520261  1
  O  O277  1  0.51188191  0.12789671  0.51606927  1
  O  O278  1  0.51731590  0.63002824  0.02155407  1
  O  O279  1  0.48876717  0.59948681  0.48571492  1
  O  O280  1  0.48624245  0.36961364  0.48569905  1
  O  O281  1  0.50381713  0.42615323  0.97282810  1
  O  O282  1  0.48176532  0.89180779  0.49234226  1
  O  O283  1  0.47103500  0.86995893  1.01631072  1
  O  O284  1  1.00452662  0.38382248  0.51218399  1
  O  O285  1  1.00658451  0.39133483  0.98862755  1
  O  O286  1  0.98445984  0.88762909  0.50101012  1
  O  O287  1  0.97928493  0.88032273  1.02199711  1
  O  O288  1  0.49472963  0.47942969  0.37718526  1
  O  O289  1  0.50789833  0.49149899  0.84095442  1
  O  O290  1  0.49655460  0.99421715  0.36926974  1
  O  O291  1  0.50705470  1.01108456  0.86276855  1
  O  O292  1  1.00208568  0.50311626  0.39494601  1
  O  O293  1  0.99374112  0.50175551  0.88436623  1
  O  O294  1  0.99726706  1.00452150  0.38490368  1
  O  O295  1  0.99550586  0.97744509  0.87092998  1
  O  O296  1  -0.00278810  0.01068646  0.14585966  1
  O  O297  1  -0.00915091  0.01028869  0.60529000  1
  O  O298  1  -0.09422866  0.42465704  0.12606276  1
  O  O299  1  0.02859750  0.50469002  0.62340643  1
  O  O300  1  0.51305752  0.00087848  0.12092868  1
  O  O301  1  0.51864660  0.00610238  0.63536141  1
  O  O302  1  0.51580600  0.51559112  0.14070164  1
  O  O303  1  0.49251365  0.49022997  0.60314909  1
  O  O304  1  0.22550230  0.35992132  0.25512209  1
  O  O305  1  0.26666132  0.39207087  0.77362816  1
  O  O306  1  0.25111780  0.89047414  0.22439207  1
  O  O307  1  0.25485488  0.89197791  0.73843581  1
  O  O308  1  0.75376678  0.40492482  0.28417840  1
  O  O309  1  0.74448212  0.41090777  0.77071824  1
  O  O310  1  0.74413525  0.88336093  0.24019647  1
  O  O311  1  0.75446095  0.88855668  0.73351534  1
  O  O312  1  0.26014859  0.12424783  0.21847609  1
  O  O313  1  0.26910370  0.11130717  0.73828955  1
  O  O314  1  0.27269493  0.62557474  0.24825552  1
  O  O315  1  0.19564130  0.48880905  0.63632256  1
  O  O316  1  0.74886018  0.10695292  0.26505909  1
  O  O317  1  0.76374322  0.11772460  0.77193795  1
  O  O318  1  0.76418892  0.61059436  0.24946796  1
  O  O319  1  0.75590113  0.63402083  0.74849343  1
  O  O320  1  0.37288140  0.13655754  0.33919983  1
  O  O321  1  0.39545096  0.12045706  0.85797889  1
  O  O322  1  0.37803331  0.61028447  0.35585199  1
  O  O323  1  0.35077849  0.57367336  0.94277713  1
  O  O324  1  0.85814263  0.12653798  0.38724518  1
  O  O325  1  0.88093378  0.13002875  0.86607915  1
  O  O326  1  0.87251913  0.65639301  0.36226929  1
  O  O327  1  0.89244305  0.63311801  0.84224396  1
  O  O328  1  0.10530171  0.35891926  0.13698072  1
  O  O329  1  0.12495196  0.32616969  0.66704194  1
  O  O330  1  0.13968571  0.88256655  0.12770241  1
  O  O331  1  0.15475244  0.84553754  0.62238135  1
  O  O332  1  0.60834380  0.39225909  0.12689120  1
  O  O333  1  0.60334926  0.38150596  0.63357140  1
  O  O334  1  0.63532561  0.88836931  0.11494059  1
  O  O335  1  0.63219884  0.89202087  0.61432111  1
  O  O336  1  0.12196270  0.24250943  0.26325835  1
  O  O337  1  0.14173217  0.27448258  0.72007116  1
  O  O338  1  0.13122262  0.76552586  0.24082622  1
  O  O339  1  0.16906174  0.73589282  0.78239473  1
  O  O340  1  0.60951468  0.23196433  0.26369726  1
  O  O341  1  0.61436119  0.20254887  0.76847093  1
  O  O342  1  0.61392728  0.75632745  0.25684812  1
  O  O343  1  0.57742948  0.69824852  0.74127185  1
  O  O344  1  0.36652733  0.24063363  0.23127312  1
  O  O345  1  0.36462017  0.23673987  0.75583546  1
  O  O346  1  0.38595228  0.74124411  0.24234564  1
  O  O347  1  0.38985573  0.75384623  0.74165200  1
  O  O348  1  0.88683017  0.25099716  0.27651475  1
  O  O349  1  0.88081662  0.22353184  0.73643749  1
  O  O350  1  0.86984468  0.72954112  0.23330035  1
  O  O351  1  0.86982003  0.74683081  0.72978215  1
  O  O352  1  0.38142179  0.47843301  0.48434844  1
  O  O353  1  0.29631535  0.56008187  0.99256844  1
  O  O354  1  0.36258607  1.07632212  0.47070740  1
  O  O355  1  0.38287579  1.01262369  0.97282605  1
  O  O356  1  0.89147458  0.47746196  0.52065255  1
  O  O357  1  0.80370827  0.49265733  0.96650447  1
  O  O358  1  0.87736723  0.98836566  0.49390713  1
  O  O359  1  0.85622713  0.97742606  0.99256173  1
  O  O360  1  0.11683125  0.01326040  -0.00654647  1
  O  O361  1  0.11206856  0.00602811  0.49320954  1
  O  O362  1  0.12569317  0.52444983  0.02847839  1
  O  O363  1  0.12169038  0.49024325  0.49409457  1
  O  O364  1  0.64940408  0.02038145  0.02419159  1
  O  O365  1  0.62676407  0.01284049  0.51308163  1
  O  O366  1  0.63780576  0.51861097  0.02311882  1
  O  O367  1  0.60548279  0.48350553  0.50426517  1
  O  O368  1  0.39654920  0.38602543  0.09886432  1
  O  O369  1  0.38479069  0.36517997  0.60638450  1
  O  O370  1  0.35306743  0.88374958  0.10278058  1
  O  O371  1  0.36968136  0.89048295  0.62186145  1
  O  O372  1  0.87046399  0.36198861  0.11208815  1
  O  O373  1  0.88689703  0.35461372  0.64050305  1
  O  O374  1  0.85519045  0.87795957  0.11872589  1
  O  O375  1  0.86225011  0.86342077  0.61783396  1
  O  O376  1  0.11903631  0.12699290  0.39118555  1
  O  O377  1  0.07712163  0.13698887  0.89773688  1
  O  O378  1  0.15261882  0.62090010  0.35506154  1
  O  O379  1  0.09435339  0.64454976  0.89065694  1
  O  O380  1  0.61010762  0.12849369  0.38513317  1
  O  O381  1  0.65105695  0.12419177  0.89522625  1
  O  O382  1  0.60651740  0.64851942  0.37402102  1
  O  O383  1  0.62884138  0.60760254  0.89444756  1
