# generated using pymatgen
data_VZnO4
_symmetry_space_group_name_H-M   'P 1'
_cell_length_a   17.08480808
_cell_length_b   16.99916714
_cell_length_c   16.96055535
_cell_angle_alpha   89.86051677
_cell_angle_beta   90.43575335
_cell_angle_gamma   89.88140997
_symmetry_Int_Tables_number   1
_chemical_formula_structural   VZnO4
_chemical_formula_sum   'V64 Zn64 O256'
_cell_volume   4925.64403179
_cell_formula_units_Z   64
loop_
 _symmetry_equiv_pos_site_id
 _symmetry_equiv_pos_as_xyz
  1  'x, y, z'
loop_
 _atom_site_type_symbol
 _atom_site_label
 _atom_site_symmetry_multiplicity
 _atom_site_fract_x
 _atom_site_fract_y
 _atom_site_fract_z
 _atom_site_occupancy
  V  V0  1  0.49707933  0.88153712  0.86071714  1
  V  V1  1  0.49089276  0.63172851  0.63997268  1
  V  V2  1  0.38838010  0.52881195  0.90362599  1
  V  V3  1  0.50051648  0.00692376  -0.00323760  1
  V  V4  1  0.50480645  0.13495558  0.14131079  1
  V  V5  1  0.37580703  0.13285629  0.73469503  1
  V  V6  1  0.75409154  0.13105781  0.37852716  1
  V  V7  1  0.79422026  0.12295782  0.83952806  1
  V  V8  1  0.49646084  0.49276423  0.49904668  1
  V  V9  1  0.61922586  0.13568207  0.50144263  1
  V  V10  1  0.75129934  -0.00736383  0.26387029  1
  V  V11  1  0.10934550  0.63901800  0.50815666  1
  V  V12  1  -0.02705557  0.23930808  0.73351448  1
  V  V13  1  -0.02945940  0.51200754  0.51441195  1
  V  V14  1  0.62353602  0.50802872  0.65429795  1
  V  V15  1  0.36345435  0.23501006  0.12610261  1
  V  V16  1  0.87048799  0.88934866  0.49246758  1
  V  V17  1  0.11400040  0.27524293  0.85718155  1
  V  V18  1  0.63326774  0.13207178  -0.01233897  1
  V  V19  1  0.87235816  0.13550434  0.24736621  1
  V  V20  1  0.49220147  0.35231118  0.86504926  1
  V  V21  1  0.24631059  0.38697083  0.12404229  1
  V  V22  1  0.06371383  0.60488666  0.15060699  1
  V  V23  1  0.12908730  0.74220858  0.35064545  1
  V  V24  1  0.24410594  -0.01144962  0.24801231  1
  V  V25  1  0.74794459  0.61626111  0.38649716  1
  V  V26  1  0.25758867  0.37731438  0.62737483  1
  V  V27  1  0.36301817  0.88200743  0.00871678  1
  V  V28  1  0.36236949  0.88070325  0.49497144  1
  V  V29  1  0.49371086  0.87046030  0.37612778  1
  V  V30  1  -0.00298765  0.86502919  0.35353009  1
  V  V31  1  0.26704282  0.25381204  0.49856381  1
  V  V32  1  0.49556084  0.00602653  0.50765595  1
  V  V33  1  0.37106485  0.36426234  -0.00683210  1
  V  V34  1  0.37119827  0.76282795  0.62994799  1
  V  V35  1  0.01198101  -0.00094838  0.49347784  1
  V  V36  1  0.63973031  0.88465345  0.74508347  1
  V  V37  1  0.01154115  0.50036398  -0.00381201  1
  V  V38  1  0.34566342  0.62251828  0.74517373  1
  V  V39  1  0.63111107  0.75986062  0.88186415  1
  V  V40  1  0.00571609  0.11815435  0.11751133  1
  V  V41  1  0.22576736  0.11887824  0.88302381  1
  V  V42  1  0.62206371  0.00051337  0.12854435  1
  V  V43  1  0.74238371  0.86605953  0.11092188  1
  V  V44  1  0.76149130  0.26157650  0.51306320  1
  V  V45  1  0.64091800  0.00052236  0.62324162  1
  V  V46  1  0.09428231  0.87064977  0.74333307  1
  V  V47  1  0.12674065  0.51216066  0.63219910  1
  V  V48  1  0.21621437  0.13309480  0.37740833  1
  V  V49  1  0.17076742  0.62261853  -0.00509161  1
  V  V50  1  0.25486783  0.73774096  0.49079408  1
  V  V51  1  0.62956334  0.75787914  0.38741364  1
  V  V52  1  0.36962999  0.00940709  0.86736107  1
  V  V53  1  0.61596019  0.34772303  0.75120492  1
  V  V54  1  0.13085658  0.75267033  0.87892943  1
  V  V55  1  0.40197036  0.72118905  0.16059545  1
  V  V56  1  0.82879113  0.62451565  0.21229653  1
  V  V57  1  0.23645099  -0.00673139  0.72839184  1
  V  V58  1  0.37712556  0.02455262  0.36961933  1
  V  V59  1  0.38907952  0.58106866  0.28207157  1
  V  V60  1  0.61944447  0.63778190  0.51298202  1
  V  V61  1  -0.00114406  0.36027636  0.34578579  1
  V  V62  1  0.88094241  0.63170066  0.78006188  1
  V  V63  1  0.61319502  0.87358173  0.25512453  1
  Zn  Zn64  1  0.18754453  0.13404100  0.16196468  1
  Zn  Zn65  1  0.20460948  0.20177155  0.69876233  1
  Zn  Zn66  1  0.23416312  0.68365761  0.18326117  1
  Zn  Zn67  1  0.17728077  0.72105561  0.67583777  1
  Zn  Zn68  1  0.73100659  0.14443757  0.13814846  1
  Zn  Zn69  1  0.70211689  0.17832584  0.68269845  1
  Zn  Zn70  1  0.67972787  0.69751625  0.19982596  1
  Zn  Zn71  1  0.66615128  0.67643951  0.73113722  1
  Zn  Zn72  1  0.26644440  0.26206649  0.27908419  1
  Zn  Zn73  1  0.29390586  0.30550433  0.81311494  1
  Zn  Zn74  1  0.31714392  0.80804903  0.30693426  1
  Zn  Zn75  1  0.31137217  0.81650666  0.81183369  1
  Zn  Zn76  1  0.83639503  0.30034255  0.35757363  1
  Zn  Zn77  1  0.80448647  0.33234960  0.70559890  1
  Zn  Zn78  1  0.81502629  0.79928200  0.30845061  1
  Zn  Zn79  1  0.81002369  0.82999147  0.82065326  1
  Zn  Zn80  1  0.14233042  0.41311486  0.48031692  1
  Zn  Zn81  1  0.20692135  0.44522816  0.92689004  1
  Zn  Zn82  1  0.18380209  0.93404326  0.41021583  1
  Zn  Zn83  1  0.20095323  0.90915066  0.90940403  1
  Zn  Zn84  1  0.69612815  0.45939394  0.47857797  1
  Zn  Zn85  1  0.70661627  0.42890048  0.87610335  1
  Zn  Zn86  1  0.68402368  0.93954579  0.44285834  1
  Zn  Zn87  1  0.69198583  0.95840338  0.93109033  1
  Zn  Zn88  1  0.31289379  0.05512774  0.06004551  1
  Zn  Zn89  1  0.30048862  0.06449141  0.55404448  1
  Zn  Zn90  1  0.33552335  0.55806778  0.08308336  1
  Zn  Zn91  1  0.31467500  0.55693818  0.56300212  1
  Zn  Zn92  1  0.83898141  0.07827330  -0.01206189  1
  Zn  Zn93  1  0.82115930  0.06007213  0.55931119  1
  Zn  Zn94  1  0.80307389  0.53794039  0.02507908  1
  Zn  Zn95  1  0.79518759  0.60468193  0.59368839  1
  Zn  Zn96  1  0.37773238  0.38149073  0.23338875  1
  Zn  Zn97  1  0.43430795  0.44160799  0.69312053  1
  Zn  Zn98  1  0.43569970  0.94751582  0.19138160  1
  Zn  Zn99  1  0.42829908  0.94744270  0.68393978  1
  Zn  Zn100  1  0.95743917  0.46572428  0.20153177  1
  Zn  Zn101  1  0.94605590  0.45888768  0.69983612  1
  Zn  Zn102  1  0.91958541  0.93289146  0.18346583  1
  Zn  Zn103  1  0.92788977  0.94923369  0.66221474  1
  Zn  Zn104  1  0.05093988  0.05172049  0.30381274  1
  Zn  Zn105  1  0.05437482  0.05753080  0.79257567  1
  Zn  Zn106  1  0.07919377  0.53209479  0.35153459  1
  Zn  Zn107  1  0.08515484  0.57127043  0.82144123  1
  Zn  Zn108  1  0.56600205  0.06367570  0.32156654  1
  Zn  Zn109  1  0.55869505  0.06857699  0.80306384  1
  Zn  Zn110  1  0.55448337  0.57735833  0.32829460  1
  Zn  Zn111  1  0.54197754  0.58073787  0.83933139  1
  Zn  Zn112  1  0.43781325  0.19393154  0.56860610  1
  Zn  Zn113  1  0.43094666  0.18195804  0.93583894  1
  Zn  Zn114  1  0.43716187  0.68549817  0.43827572  1
  Zn  Zn115  1  0.42988248  0.70192096  0.93355522  1
  Zn  Zn116  1  0.94509227  0.18779528  0.43617028  1
  Zn  Zn117  1  0.97665305  0.19534277  0.92618262  1
  Zn  Zn118  1  0.95571805  0.65814646  0.39339536  1
  Zn  Zn119  1  0.97275729  0.67202889  0.95295022  1
  Zn  Zn120  1  0.07580895  0.30855778  0.04428979  1
  Zn  Zn121  1  0.02419076  0.34799537  0.60746594  1
  Zn  Zn122  1  0.06767894  0.75867967  0.07328438  1
  Zn  Zn123  1  0.09102101  0.85701255  0.54088355  1
  Zn  Zn124  1  0.54502995  0.30007487  0.04161245  1
  Zn  Zn125  1  0.57014791  0.31768189  0.57184290  1
  Zn  Zn126  1  0.55438193  0.81745306  0.05819484  1
  Zn  Zn127  1  0.55351435  0.81932402  0.56755709  1
  O  O128  1  0.09609617  0.08285078  0.10284677  1
  O  O129  1  0.10995269  0.16007464  0.57628895  1
  O  O130  1  0.16160463  0.62544645  0.11354611  1
  O  O131  1  0.13874078  0.62625433  0.61312532  1
  O  O132  1  0.61445712  0.11774198  0.11943785  1
  O  O133  1  0.63677003  0.11105140  0.60991576  1
  O  O134  1  0.59630450  0.62857988  0.12646797  1
  O  O135  1  0.60251433  0.63222176  0.63453291  1
  O  O136  1  0.46059764  0.34039732  0.36551939  1
  O  O137  1  0.37144338  0.34876505  0.88661225  1
  O  O138  1  0.38137214  0.88125052  0.38095283  1
  O  O139  1  0.38440655  0.89288207  0.87351617  1
  O  O140  1  0.90219543  0.38872792  0.36402088  1
  O  O141  1  0.84015025  0.37975651  0.86297645  1
  O  O142  1  0.89371403  0.84317939  0.38037550  1
  O  O143  1  0.88753532  0.89218243  0.88044942  1
  O  O144  1  0.25774825  0.01874291  0.36703729  1
  O  O145  1  0.25646829  0.00464725  0.86112061  1
  O  O146  1  0.25206441  0.47395510  0.38830375  1
  O  O147  1  0.29560064  0.49743305  0.87692649  1
  O  O148  1  0.73747491  0.01025490  0.36686715  1
  O  O149  1  0.76786747  0.03213080  0.89147472  1
  O  O150  1  0.74061621  0.51623388  0.39038037  1
  O  O151  1  0.73413222  0.50463166  0.94643412  1
  O  O152  1  0.25749620  0.48512943  0.12327857  1
  O  O153  1  0.23642610  0.48909025  0.61006392  1
  O  O154  1  0.25378477  1.03294648  0.15274508  1
  O  O155  1  0.24497941  1.00251073  0.62947332  1
  O  O156  1  0.79672560  0.43328342  0.11258736  1
  O  O157  1  0.72051869  0.52305459  0.64065369  1
  O  O158  1  0.72955767  0.99402898  0.14531555  1
  O  O159  1  0.73534003  0.98838826  0.60862004  1
  O  O160  1  0.00464132  0.37323135  0.24453374  1
  O  O161  1  -0.00323139  0.36238005  0.72040519  1
  O  O162  1  -0.01294338  0.87389361  0.25338424  1
  O  O163  1  -0.00335494  0.88395665  0.73020188  1
  O  O164  1  0.59924767  0.33325311  0.25365440  1
  O  O165  1  0.49942127  0.36689144  0.75499156  1
  O  O166  1  0.50468725  0.89119372  0.26612952  1
  O  O167  1  0.49863713  0.89568224  0.75965423  1
  O  O168  1  0.50963506  0.12294220  0.23987207  1
  O  O169  1  0.47397097  0.12352400  0.75079166  1
  O  O170  1  0.48312761  0.61245339  0.25126651  1
  O  O171  1  0.48007676  0.63311907  0.73975197  1
  O  O172  1  0.97640835  0.10261590  0.23024130  1
  O  O173  1  0.99071469  0.13916488  0.75245711  1
  O  O174  1  1.07567048  0.57688744  0.24755558  1
  O  O175  1  0.98582477  0.64332872  0.78034812  1
  O  O176  1  0.38416262  0.25447475  0.01363272  1
  O  O177  1  0.36493022  0.25069059  0.49728982  1
  O  O178  1  0.37817476  0.78411978  -0.01272731  1
  O  O179  1  0.36571681  0.76093961  0.49752199  1
  O  O180  1  0.89697165  0.37084917  -0.09258059  1
  O  O181  1  0.85856446  0.25027395  0.48416506  1
  O  O182  1  0.90137087  0.75698039  0.01245898  1
  O  O183  1  0.86491101  0.71671239  0.54782453  1
  O  O184  1  0.10818455  0.21081642  0.52410647  1
  O  O185  1  0.09068876  0.23758610  0.95686411  1
  O  O186  1  0.14593117  0.75023234  0.50528672  1
  O  O187  1  0.14722708  0.73478150  0.99890471  1
  O  O188  1  0.64014145  0.23677305  0.51098515  1
  O  O189  1  0.62106621  0.23098487  0.99751234  1
  O  O190  1  0.61706513  0.74991465  0.50060975  1
  O  O191  1  0.60722141  0.75548643  0.97958717  1
  O  O192  1  0.50208126  0.23758793  0.12745786  1
  O  O193  1  0.50946431  0.24779677  0.62832244  1
  O  O194  1  0.48139332  0.77683340  0.13054375  1
  O  O195  1  0.48101350  0.74258889  0.61648241  1
  O  O196  1  1.04612655  0.22436877  0.14129940  1
  O  O197  1  0.98663778  0.24418118  0.62965466  1
  O  O198  1  1.01664363  0.69579747  0.15163074  1
  O  O199  1  0.91933207  0.73872784  0.59022647  1
  O  O200  1  0.00648939  0.26368380  0.37718864  1
  O  O201  1  0.00483669  0.27229513  0.84294085  1
  O  O202  1  0.01932010  0.74530706  0.35569696  1
  O  O203  1  0.03063980  0.75560168  0.90186914  1
  O  O204  1  0.50200172  0.28193813  0.37478597  1
  O  O205  1  0.49252683  0.25293825  0.86879920  1
  O  O206  1  0.50754102  0.76654107  0.38818201  1
  O  O207  1  0.50253739  0.78042316  0.86971877  1
  O  O208  1  0.24737796  0.13799250  0.48555864  1
  O  O209  1  0.24772241  0.11040857  0.98090616  1
  O  O210  1  0.25610343  0.63840371  0.49740186  1
  O  O211  1  0.26980412  0.61809269  0.99952731  1
  O  O212  1  0.75042172  0.12948285  0.49406974  1
  O  O213  1  0.73399145  0.12149501  1.02216570  1
  O  O214  1  0.72756527  0.62802514  0.49862238  1
  O  O215  1  0.61342589  0.59624465  1.06324328  1
  O  O216  1  0.26739561  0.37416051  0.00342784  1
  O  O217  1  0.24135280  0.35712599  0.50089707  1
  O  O218  1  0.26507192  0.90537603  0.00171638  1
  O  O219  1  0.26163744  0.87828588  0.48641469  1
  O  O220  1  0.76958232  0.33340616  0.02046584  1
  O  O221  1  0.73899872  0.35768113  0.49002417  1
  O  O222  1  0.73477956  0.88899227  0.01358868  1
  O  O223  1  0.77191178  0.87776785  0.47234235  1
  O  O224  1  0.21964046  0.50817208  0.33251065  1
  O  O225  1  0.12734214  0.51732407  0.73143695  1
  O  O226  1  0.14532264  1.00168954  0.26045280  1
  O  O227  1  0.12766208  0.98266946  0.73987648  1
  O  O228  1  0.60929477  0.49486257  0.23277405  1
  O  O229  1  0.60556682  0.52098882  0.75392519  1
  O  O230  1  0.62547246  0.99256956  0.24937544  1
  O  O231  1  0.62124311  1.00273730  0.73054874  1
  O  O232  1  0.36624045  0.00296017  0.26627249  1
  O  O233  1  0.36065605  0.01200609  0.75021090  1
  O  O234  1  0.39779477  0.47844098  0.27754999  1
  O  O235  1  0.35916309  0.52503753  0.72698216  1
  O  O236  1  0.85145563  0.00133857  0.25310176  1
  O  O237  1  0.91861790  -0.04563052  0.83837356  1
  O  O238  1  0.89537609  0.55389411  0.23983763  1
  O  O239  1  0.90166062  0.52921376  0.78934866  1
  O  O240  1  0.08210788  0.41783715  0.38292257  1
  O  O241  1  0.14565810  0.36924130  0.86722811  1
  O  O242  1  0.11332392  0.85033666  0.36719147  1
  O  O243  1  0.10968079  0.87629288  0.85242028  1
  O  O244  1  0.65417358  0.36886138  0.28411662  1
  O  O245  1  0.59859193  0.37261227  0.86272263  1
  O  O246  1  0.61218105  0.87563678  0.37545849  1
  O  O247  1  0.61361207  0.89068585  0.86212156  1
  O  O248  1  0.39565972  0.12981468  0.11833083  1
  O  O249  1  0.36796754  0.12338580  0.62854583  1
  O  O250  1  0.41393954  0.63148278  0.10899761  1
  O  O251  1  0.37721828  0.64181928  0.62602202  1
  O  O252  1  0.84572734  0.13869114  0.14960059  1
  O  O253  1  0.87832521  0.04976650  0.65553508  1
  O  O254  1  0.80104179  0.60833137  0.11566133  1
  O  O255  1  0.88441002  0.63329541  0.67712134  1
  O  O256  1  0.26577602  0.21769280  0.12057757  1
  O  O257  1  0.24255688  0.25890506  0.60670943  1
  O  O258  1  0.30882110  0.75321421  0.13272449  1
  O  O259  1  0.26732855  0.75622428  0.60445345  1
  O  O260  1  0.82994067  0.29486220  0.03023454  1
  O  O261  1  0.76093090  0.25868984  0.61675720  1
  O  O262  1  0.71746116  0.76808855  0.12143964  1
  O  O263  1  0.75138622  0.69019748  0.66165329  1
  O  O264  1  0.23237814  0.24342808  0.39084356  1
  O  O265  1  0.22331208  0.22665110  0.86696805  1
  O  O266  1  0.24134642  0.75715877  0.38501686  1
  O  O267  1  0.23143299  0.79098528  0.88384763  1
  O  O268  1  0.74355432  0.23476982  0.37844283  1
  O  O269  1  0.74534453  0.20092308  0.86771982  1
  O  O270  1  0.73001435  0.74838474  0.37369493  1
  O  O271  1  0.72937333  0.77876003  0.88222450  1
  O  O272  1  -0.03795181  0.15685803  0.03470795  1
  O  O273  1  -0.00011781  0.09664713  0.46924292  1
  O  O274  1  0.04398496  0.61554683  0.01690346  1
  O  O275  1  0.01342254  0.65651252  0.51136895  1
  O  O276  1  0.50843649  0.11778773  0.00253425  1
  O  O277  1  0.51538968  0.12394748  0.50007313  1
  O  O278  1  0.47549315  0.60043774  -0.06732249  1
  O  O279  1  0.50773478  0.62371885  0.51206476  1
  O  O280  1  0.51379100  0.39501548  0.51535211  1
  O  O281  1  0.48642184  0.37137484  0.97714502  1
  O  O282  1  0.48784819  0.88851177  0.49258296  1
  O  O283  1  0.49623211  0.89680629  0.98629276  1
  O  O284  1  0.97450844  0.41124943  0.51646127  1
  O  O285  1  1.01653551  0.40020984  1.01434949  1
  O  O286  1  0.98949902  0.87508355  0.48379690  1
  O  O287  1  0.94774471  0.81111638  1.03406348  1
  O  O288  1  0.52271398  0.49914903  0.40099605  1
  O  O289  1  0.45608620  0.47348672  0.85145416  1
  O  O290  1  0.48818753  0.99960240  0.38472998  1
  O  O291  1  0.48909933  1.00330191  0.87769339  1
  O  O292  1  0.97978937  0.54558489  0.41167589  1
  O  O293  1  1.02861930  0.50799147  0.89388678  1
  O  O294  1  1.00582784  0.97010199  0.37125721  1
  O  O295  1  0.98209161  0.98432572  0.87080848  1
  O  O296  1  -0.05216418  0.01547343  0.10361695  1
  O  O297  1  0.00771877  -0.00245389  0.59400199  1
  O  O298  1  0.01736472  0.51568817  0.11820213  1
  O  O299  1  0.01514954  0.51842817  0.62256988  1
  O  O300  1  0.50616335  0.01228096  0.11937260  1
  O  O301  1  0.49450367  0.00380588  0.60898329  1
  O  O302  1  0.55507333  0.46288431  0.19553724  1
  O  O303  1  0.50048032  0.52004595  0.62752541  1
  O  O304  1  0.25802800  0.36307974  0.22800091  1
  O  O305  1  0.24139708  0.36294518  0.72553110  1
  O  O306  1  0.25567074  0.88965039  0.25172212  1
  O  O307  1  0.25578877  0.89510041  0.74549175  1
  O  O308  1  0.74633499  0.30702229  0.20168923  1
  O  O309  1  0.71483843  0.37733892  0.77341868  1
  O  O310  1  0.73445892  0.88432315  0.25899919  1
  O  O311  1  0.73840874  0.88935711  0.75226272  1
  O  O312  1  0.23820482  0.14689230  0.27439861  1
  O  O313  1  0.24785650  0.10841999  0.75368973  1
  O  O314  1  0.30655411  0.60552731  0.22549588  1
  O  O315  1  0.25059328  0.64429645  0.73137559  1
  O  O316  1  0.74924870  0.11391740  0.26320507  1
  O  O317  1  0.77343314  0.11247615  0.73820534  1
  O  O318  1  0.73407504  0.61963176  0.26864420  1
  O  O319  1  0.78204100  0.60510208  0.78286657  1
  O  O320  1  0.37945216  0.11986907  0.37412353  1
  O  O321  1  0.36180813  0.11862402  0.86545574  1
  O  O322  1  0.37817966  0.61112725  0.37900818  1
  O  O323  1  0.36154933  0.63268411  0.84912167  1
  O  O324  1  0.85697958  0.12130483  0.36881474  1
  O  O325  1  0.88792568  0.13228851  0.89247808  1
  O  O326  1  0.84313207  0.64308832  0.39029582  1
  O  O327  1  0.88263833  0.64438213  0.88540966  1
  O  O328  1  0.15275637  0.35986101  0.10767115  1
  O  O329  1  0.12499304  0.40262445  0.60001745  1
  O  O330  1  0.08218852  0.88466064  0.08831672  1
  O  O331  1  0.12612288  0.84037862  0.64752039  1
  O  O332  1  0.62800545  0.38643233  0.08980245  1
  O  O333  1  0.61665561  0.39648472  0.65155703  1
  O  O334  1  0.61928812  0.88582927  0.13697854  1
  O  O335  1  0.61441956  0.89015209  0.63523217  1
  O  O336  1  0.10578497  0.21507328  0.19577128  1
  O  O337  1  0.11702736  0.24265909  0.75579175  1
  O  O338  1  0.15517390  0.73115785  0.25642301  1
  O  O339  1  0.11795635  0.75821626  0.76808705  1
  O  O340  1  0.69718295  0.26104826  0.17139738  1
  O  O341  1  0.62855601  0.25141762  0.73541961  1
  O  O342  1  0.61720528  0.76782158  0.26685353  1
  O  O343  1  0.62130969  0.78441433  0.75431590  1
  O  O344  1  0.37721838  0.26124078  0.22821958  1
  O  O345  1  0.35168494  0.22926918  0.74832031  1
  O  O346  1  0.39250410  0.73854929  0.26502754  1
  O  O347  1  0.36584070  0.75400205  0.73228432  1
  O  O348  1  0.87720078  0.23244195  0.26784381  1
  O  O349  1  0.87385994  0.25198676  0.74803858  1
  O  O350  1  0.85379007  0.72082370  0.23402251  1
  O  O351  1  0.86365781  0.73483157  0.77786624  1
  O  O352  1  0.39721870  0.50604591  0.50731748  1
  O  O353  1  0.38555420  0.47956572  1.00141723  1
  O  O354  1  0.37604684  1.00019803  0.48708381  1
  O  O355  1  0.38407240  1.00319766  0.98567912  1
  O  O356  1  0.87944261  0.54296961  0.54042468  1
  O  O357  1  0.91233845  0.52357264  0.99873321  1
  O  O358  1  0.88629714  0.99181925  0.48524167  1
  O  O359  1  0.90981740  0.99770042  1.03287190  1
  O  O360  1  0.08311936  -0.07699164  0.02492125  1
  O  O361  1  0.11457924  -0.03233760  0.49219648  1
  O  O362  1  0.14723494  0.51942468  -0.01143873  1
  O  O363  1  0.10819853  0.53025666  0.50576906  1
  O  O364  1  0.61563534  0.00719415  0.01116598  1
  O  O365  1  0.61301069  0.00333011  0.50932595  1
  O  O366  1  0.63913375  0.44754953  0.05051269  1
  O  O367  1  0.61444589  0.51748334  0.53048053  1
  O  O368  1  0.36307405  0.35497261  0.11163192  1
  O  O369  1  0.35606029  0.38537512  0.62527311  1
  O  O370  1  0.38027554  0.90061981  0.10607012  1
  O  O371  1  0.38243664  0.86798756  0.61133210  1
  O  O372  1  0.85832328  0.40239861  0.14004283  1
  O  O373  1  0.84507820  0.42888169  0.66969166  1
  O  O374  1  0.83909084  0.87068479  0.13554491  1
  O  O375  1  0.87271449  0.87587099  0.59275082  1
  O  O376  1  0.12048442  0.11776645  0.37569154  1
  O  O377  1  0.12886998  0.09748405  0.87323403  1
  O  O378  1  0.12712299  0.64195087  0.39615029  1
  O  O379  1  0.15021942  0.64382602  0.88239503  1
  O  O380  1  0.63490395  0.11982603  0.39555977  1
  O  O381  1  0.62001248  0.10938063  0.89060718  1
  O  O382  1  0.62589145  0.64012984  0.39160914  1
  O  O383  1  0.62678599  0.66172294  0.84142543  1
