# generated using pymatgen
data_VZnO4
_symmetry_space_group_name_H-M   'P 1'
_cell_length_a   16.91129637
_cell_length_b   17.17089543
_cell_length_c   16.94589310
_cell_angle_alpha   89.91618702
_cell_angle_beta   89.57623196
_cell_angle_gamma   89.30139197
_symmetry_Int_Tables_number   1
_chemical_formula_structural   VZnO4
_chemical_formula_sum   'V64 Zn64 O256'
_cell_volume   4920.27905302
_cell_formula_units_Z   64
loop_
 _symmetry_equiv_pos_site_id
 _symmetry_equiv_pos_as_xyz
  1  'x, y, z'
loop_
 _atom_site_type_symbol
 _atom_site_label
 _atom_site_symmetry_multiplicity
 _atom_site_fract_x
 _atom_site_fract_y
 _atom_site_fract_z
 _atom_site_occupancy
  V  V0  1  0.25956964  0.36276838  0.62711449  1
  V  V1  1  0.65058435  0.61754460  0.50814823  1
  V  V2  1  0.73857413  0.48276375  0.27201134  1
  V  V3  1  0.86944619  0.75547990  0.60319089  1
  V  V4  1  0.62136113  0.35901919  0.30894051  1
  V  V5  1  0.74601242  0.49247961  0.74387475  1
  V  V6  1  0.49642482  0.13184455  0.08791632  1
  V  V7  1  0.12747281  0.85443288  0.77765345  1
  V  V8  1  0.24096495  0.75592766  0.00895253  1
  V  V9  1  0.74049199  0.75629902  -0.01153300  1
  V  V10  1  0.12227981  0.39422542  0.24340358  1
  V  V11  1  0.23328918  -0.00113256  0.77903087  1
  V  V12  1  0.24081505  0.63625290  0.88400600  1
  V  V13  1  0.11799108  -0.02166441  0.57625039  1
  V  V14  1  0.64430588  0.25381807  0.86312974  1
  V  V15  1  0.37724921  0.64059785  0.74759125  1
  V  V16  1  0.38465584  0.38817416  0.00094612  1
  V  V17  1  0.63061481  -0.00526134  0.10769044  1
  V  V18  1  0.01088928  0.50642952  0.49996706  1
  V  V19  1  0.23793166  0.24991986  0.00027647  1
  V  V20  1  0.38607358  0.50795838  0.87782697  1
  V  V21  1  0.86681018  0.50005095  0.38877822  1
  V  V22  1  0.39677130  0.75460428  0.12632129  1
  V  V23  1  0.50530902  0.62396027  0.61877543  1
  V  V24  1  0.86176023  0.61022642  0.23787343  1
  V  V25  1  0.11243906  0.61820538  0.03148889  1
  V  V26  1  0.27339843  0.50865109  0.26924331  1
  V  V27  1  0.86835559  0.50510609  0.89450997  1
  V  V28  1  0.44894499  0.14993674  0.63759218  1
  V  V29  1  0.81658719  0.03010433  0.75803130  1
  V  V30  1  0.86954104  0.24649027  0.11719987  1
  V  V31  1  0.24807446  0.49799071  0.75791108  1
  V  V32  1  0.01306967  0.73233328  0.25287152  1
  V  V33  1  -0.00144703  0.62626827  0.63074483  1
  V  V34  1  0.37392592  0.11706135  0.23844857  1
  V  V35  1  0.74232957  0.63449709  0.86358209  1
  V  V36  1  0.61632276  -0.01009352  0.63148273  1
  V  V37  1  0.62474711  0.49935018  0.10840920  1
  V  V38  1  0.00939654  0.39508366  0.87127439  1
  V  V39  1  0.74212582  0.36474316  0.10117495  1
  V  V40  1  0.89187682  0.86652342  -0.01569622  1
  V  V41  1  0.00168409  0.37350317  0.38386320  1
  V  V42  1  0.14216183  0.86505729  0.25032747  1
  V  V43  1  0.09407868  0.13960326  0.48805413  1
  V  V44  1  0.83961526  -0.00953466  0.36634868  1
  V  V45  1  0.75688335  0.23561842  0.51516106  1
  V  V46  1  0.12788275  0.49679281  0.63096212  1
  V  V47  1  0.65275287  0.87343122  0.76382337  1
  V  V48  1  0.65719548  0.12827066  -0.02094209  1
  V  V49  1  0.76257488  0.36184440  0.62972694  1
  V  V50  1  -0.00235933  0.74784004  0.76079791  1
  V  V51  1  0.50207131  0.76798396  0.75744132  1
  V  V52  1  0.00163165  0.01824448  0.00355526  1
  V  V53  1  0.13800491  0.25360690  0.36609328  1
  V  V54  1  0.50048111  0.36493069  0.86072792  1
  V  V55  1  0.38407449  0.26210343  0.12066220  1
  V  V56  1  0.50079599  0.24760586  0.27525587  1
  V  V57  1  -0.00672117  0.24491664  0.24575614  1
  V  V58  1  0.12372436  0.01512604  0.13944515  1
  V  V59  1  0.76207446  0.87480317  0.12352613  1
  V  V60  1  0.38141657  0.87906680  -0.01787350  1
  V  V61  1  0.26089618  0.11972030  0.37266329  1
  V  V62  1  0.25447947  0.39150566  0.12867098  1
  V  V63  1  -0.01408301  0.87154150  0.36491687  1
  Zn  Zn64  1  0.18826242  0.19978334  0.17816009  1
  Zn  Zn65  1  0.29391005  0.18567083  0.73421583  1
  Zn  Zn66  1  0.20156340  0.68416563  0.19524629  1
  Zn  Zn67  1  0.16773500  0.66115295  0.70701081  1
  Zn  Zn68  1  0.66755389  0.20209690  0.17029785  1
  Zn  Zn69  1  0.71046717  0.17270708  0.69382740  1
  Zn  Zn70  1  0.70425243  0.68455630  0.18182810  1
  Zn  Zn71  1  0.69055629  0.68847518  0.68768666  1
  Zn  Zn72  1  0.31628824  0.31943248  0.30461161  1
  Zn  Zn73  1  0.29892366  0.32130267  0.83136860  1
  Zn  Zn74  1  0.25301991  0.88778833  0.12874291  1
  Zn  Zn75  1  0.33873487  0.85283445  0.77653814  1
  Zn  Zn76  1  0.81800860  0.30574277  0.33444757  1
  Zn  Zn77  1  0.82281386  0.33485233  0.82131971  1
  Zn  Zn78  1  0.82241424  0.80344606  0.29445089  1
  Zn  Zn79  1  0.83369224  0.80645558  0.80984413  1
  Zn  Zn80  1  0.19842216  0.43190346  0.44425224  1
  Zn  Zn81  1  0.19068322  0.44806850  0.94814216  1
  Zn  Zn82  1  0.12014577  0.99272112  0.36538166  1
  Zn  Zn83  1  0.15192207  0.93069553  0.94401828  1
  Zn  Zn84  1  0.64071918  0.40429539  0.51700985  1
  Zn  Zn85  1  0.68106440  0.44078658  0.92633828  1
  Zn  Zn86  1  0.66154761  0.96949327  0.43310258  1
  Zn  Zn87  1  0.70813907  0.94696129  0.92458420  1
  Zn  Zn88  1  0.25965208  0.04247835  0.00700859  1
  Zn  Zn89  1  0.24828000  0.10544861  0.58414275  1
  Zn  Zn90  1  0.31245578  0.56715761  0.06630151  1
  Zn  Zn91  1  0.31642458  0.56391252  0.57102359  1
  Zn  Zn92  1  0.82488511  0.05911070  0.06293863  1
  Zn  Zn93  1  0.78635479  0.03088547  0.56058642  1
  Zn  Zn94  1  0.77393820  0.56787148  0.05903676  1
  Zn  Zn95  1  0.82320284  0.55245434  0.57094621  1
  Zn  Zn96  1  0.45468867  0.43601038  0.20301889  1
  Zn  Zn97  1  0.43493012  0.44723863  0.68720014  1
  Zn  Zn98  1  0.40988064  0.97028322  0.11935756  1
  Zn  Zn99  1  0.44458367  0.97830901  0.70896503  1
  Zn  Zn100  1  0.91864782  0.42241845  0.19666013  1
  Zn  Zn101  1  0.93331637  0.44022218  0.69903895  1
  Zn  Zn102  1  0.94711792  0.92947444  0.18409205  1
  Zn  Zn103  1  0.94998088  0.92559582  0.66944814  1
  Zn  Zn104  1  -0.10862403  0.09754259  0.24047309  1
  Zn  Zn105  1  0.02382098  0.02051644  0.79988823  1
  Zn  Zn106  1  0.05326902  0.56592089  0.30706327  1
  Zn  Zn107  1  0.05905619  0.56286883  0.82511041  1
  Zn  Zn108  1  0.57536405  0.07460654  0.28266012  1
  Zn  Zn109  1  0.58629945  0.08709493  0.77552980  1
  Zn  Zn110  1  0.58034808  0.52452342  0.38731587  1
  Zn  Zn111  1  0.56585118  0.56663880  0.81129946  1
  Zn  Zn112  1  0.45716840  0.12892530  0.43333017  1
  Zn  Zn113  1  0.40787377  0.19994272  0.91509448  1
  Zn  Zn114  1  0.54020158  0.71346672  0.43462984  1
  Zn  Zn115  1  0.42969422  0.69761831  0.93452656  1
  Zn  Zn116  1  0.88603182  0.14736546  0.44963792  1
  Zn  Zn117  1  0.97193038  0.21201564  0.94200565  1
  Zn  Zn118  1  0.95129338  0.69079096  0.41915458  1
  Zn  Zn119  1  0.92952285  0.67863392  0.94851978  1
  Zn  Zn120  1  0.05596937  0.31769834  0.05694291  1
  Zn  Zn121  1  0.08580452  0.32023763  0.56141453  1
  Zn  Zn122  1  0.06093362  0.80229961  0.07955006  1
  Zn  Zn123  1  0.07040443  0.78785268  0.53524922  1
  Zn  Zn124  1  0.56765723  0.31154066  0.04282559  1
  Zn  Zn125  1  0.56951467  0.31041221  0.68412525  1
  Zn  Zn126  1  0.56099435  0.81715128  0.04079783  1
  Zn  Zn127  1  0.59043609  0.79344962  0.59535248  1
  O  O128  1  0.12383452  0.11300098  0.14929761  1
  O  O129  1  0.13132777  0.14696107  0.58077326  1
  O  O130  1  0.12408754  0.62570747  0.13096718  1
  O  O131  1  0.11517550  0.60753689  0.62284308  1
  O  O132  1  0.61326027  0.13514772  0.09136323  1
  O  O133  1  0.63511064  0.09257247  0.66406060  1
  O  O134  1  0.66475382  0.59456321  0.11963976  1
  O  O135  1  0.61595180  0.62396371  0.62088246  1
  O  O136  1  0.36983320  0.36547905  0.39555534  1
  O  O137  1  0.38433758  0.38878347  0.88020204  1
  O  O138  1  0.39260469  0.92098000  0.36779759  1
  O  O139  1  0.35889846  0.87537004  0.88599425  1
  O  O140  1  0.89811919  0.38851610  0.36938814  1
  O  O141  1  0.88859962  0.39615712  0.88727314  1
  O  O142  1  0.87627145  0.88272835  0.36219348  1
  O  O143  1  0.88856181  0.87377529  0.88414920  1
  O  O144  1  0.23467891  0.02730658  0.35917659  1
  O  O145  1  0.23427265  -0.00567133  0.88206437  1
  O  O146  1  0.24939985  0.49395187  0.36722982  1
  O  O147  1  0.25995133  0.51147321  0.86917252  1
  O  O148  1  0.73917572  -0.01950608  0.35292191  1
  O  O149  1  0.77005812  -0.00123761  0.84357461  1
  O  O150  1  0.76765348  0.48180015  0.38695699  1
  O  O151  1  0.75324540  0.50916410  0.86929675  1
  O  O152  1  0.26643441  0.49408840  0.14247079  1
  O  O153  1  0.24683462  0.50343330  0.64200541  1
  O  O154  1  0.22949535  1.00081826  0.11578501  1
  O  O155  1  0.20599844  1.00581649  0.62121349  1
  O  O156  1  0.73039789  0.46360689  0.15206474  1
  O  O157  1  0.75732388  0.48747039  0.63758941  1
  O  O158  1  0.74193262  0.98704646  0.10672513  1
  O  O159  1  0.78216285  0.99441699  0.66881276  1
  O  O160  1  0.01355631  0.38288523  0.25568813  1
  O  O161  1  -0.00007268  0.37825621  0.77253848  1
  O  O162  1  0.00982051  0.85471223  0.25550062  1
  O  O163  1  0.01730585  0.85454672  0.74356565  1
  O  O164  1  0.51121515  0.35739859  0.27205039  1
  O  O165  1  0.49843930  0.37968133  0.75799474  1
  O  O166  1  0.43596930  0.88576997  0.32167591  1
  O  O167  1  0.47270265  0.86494052  0.74558172  1
  O  O168  1  0.49462625  0.14326127  0.23428390  1
  O  O169  1  0.47852949  0.08966793  0.72150500  1
  O  O170  1  0.56390567  0.70833456  0.27090299  1
  O  O171  1  0.48610149  0.63044148  0.75162856  1
  O  O172  1  0.99991139  0.14875582  0.25196002  1
  O  O173  1  1.04942309  0.13188201  0.83073808  1
  O  O174  1  0.96471083  0.62045196  0.23411908  1
  O  O175  1  1.01121501  0.63310686  0.73777771  1
  O  O176  1  0.36299163  0.27284008  0.00510095  1
  O  O177  1  0.38025395  0.30838219  0.45462045  1
  O  O178  1  0.36295198  0.76696348  0.00057048  1
  O  O179  1  0.35249225  0.75414577  0.41364650  1
  O  O180  1  0.88048294  0.24475447  0.02028832  1
  O  O181  1  0.95271180  0.22939113  0.62230039  1
  O  O182  1  0.86508256  0.76302634  -0.00630478  1
  O  O183  1  0.88058478  0.72733831  0.50658619  1
  O  O184  1  0.11962134  0.25197991  0.47308255  1
  O  O185  1  0.14605656  0.24660958  1.04650064  1
  O  O186  1  0.16094949  0.72097745  0.48437269  1
  O  O187  1  0.13773454  0.73439663  1.01636578  1
  O  O188  1  0.66685313  0.21759602  0.49015608  1
  O  O189  1  0.62426648  0.23515137  0.97525383  1
  O  O190  1  0.62631589  0.72758864  0.51208048  1
  O  O191  1  0.64206258  0.76982925  0.97685841  1
  O  O192  1  0.49510034  0.24741134  0.11129179  1
  O  O193  1  0.48286755  0.24094372  0.65500306  1
  O  O194  1  0.49749446  0.76338458  0.11626636  1
  O  O195  1  0.50181481  0.73502254  0.64914232  1
  O  O196  1  0.98339279  0.26598771  0.13699242  1
  O  O197  1  1.01699413  0.27295315  0.64450279  1
  O  O198  1  0.99502620  0.74083732  0.15427092  1
  O  O199  1  1.00525557  0.72877531  0.61370932  1
  O  O200  1  0.01017719  0.27053251  0.35920406  1
  O  O201  1  0.01612822  0.31305436  0.94266473  1
  O  O202  1  -0.07043526  0.75559230  0.31682330  1
  O  O203  1  -0.01201755  0.73456728  0.85745403  1
  O  O204  1  0.49401976  0.22534155  0.37076028  1
  O  O205  1  0.49911086  0.26631886  0.86786136  1
  O  O206  1  0.51852624  0.74773770  0.32434033  1
  O  O207  1  0.49688111  0.74564220  0.85636816  1
  O  O208  1  0.27018320  0.12963484  0.47238619  1
  O  O209  1  0.26590814  0.15308526  0.98946444  1
  O  O210  1  0.25883554  0.63317297  0.49476143  1
  O  O211  1  0.24564548  0.62957575  0.99444902  1
  O  O212  1  0.80433236  0.14192308  0.53720246  1
  O  O213  1  0.75469432  0.12791354  0.99290234  1
  O  O214  1  0.74929222  0.61512213  0.51012296  1
  O  O215  1  0.75051804  0.65129100  0.98545876  1
  O  O216  1  0.25943831  0.38253311  0.01686947  1
  O  O217  1  0.24158351  0.36538221  0.52570475  1
  O  O218  1  0.23539220  0.85803573  0.00539149  1
  O  O219  1  0.28262875  0.85131156  0.52342305  1
  O  O220  1  0.74781003  0.37785223  0.00367862  1
  O  O221  1  0.75445993  0.35484915  0.52270109  1
  O  O222  1  0.76632069  0.87133830  -0.00621364  1
  O  O223  1  0.71686950  0.83450472  0.44420113  1
  O  O224  1  0.12628818  0.49365664  0.25516618  1
  O  O225  1  0.14245623  0.51798570  0.74842295  1
  O  O226  1  0.12027724  0.98117915  0.24165569  1
  O  O227  1  0.12605201  0.96685251  0.76584167  1
  O  O228  1  0.62223877  0.46443770  0.29567222  1
  O  O229  1  0.64480878  0.50376701  0.75773036  1
  O  O230  1  0.62179991  1.00985413  0.20671612  1
  O  O231  1  0.61475251  0.97509764  0.74665982  1
  O  O232  1  0.38337199  0.02141730  0.22087568  1
  O  O233  1  0.33233286  -0.03146760  0.74398641  1
  O  O234  1  0.37242831  0.48683366  0.26330230  1
  O  O235  1  0.36372773  0.51647070  0.75974396  1
  O  O236  1  0.87903068  -0.01267632  0.25429533  1
  O  O237  1  0.92125790  0.00394725  0.75328811  1
  O  O238  1  0.85880003  0.49401654  0.26532117  1
  O  O239  1  0.85646920  0.49762845  0.76614553  1
  O  O240  1  0.12392511  0.36956645  0.36332288  1
  O  O241  1  0.10708193  0.42072267  0.87869762  1
  O  O242  1  0.11820338  0.87548317  0.35303556  1
  O  O243  1  0.12294487  0.84607823  0.87604792  1
  O  O244  1  0.61429759  0.35244323  0.40679585  1
  O  O245  1  0.61104368  0.36293875  0.87677349  1
  O  O246  1  0.55034967  0.97604829  0.40645273  1
  O  O247  1  0.63485623  0.88166386  0.86287661  1
  O  O248  1  0.38965245  0.14520626  0.12677747  1
  O  O249  1  0.34347613  0.14072402  0.63884827  1
  O  O250  1  0.40249252  0.64100900  0.08727656  1
  O  O251  1  0.37555984  0.63043223  0.64406121  1
  O  O252  1  0.85991556  0.14215287  0.13875476  1
  O  O253  1  0.94685232  0.16328598  0.65458837  1
  O  O254  1  0.84652484  0.58816388  0.14220393  1
  O  O255  1  0.89593991  0.62279051  0.62561898  1
  O  O256  1  0.27009728  0.27108076  0.12878376  1
  O  O257  1  0.24968317  0.26986511  0.66032366  1
  O  O258  1  0.26557555  0.73703397  0.11100512  1
  O  O259  1  0.21792416  0.69348742  0.53041612  1
  O  O260  1  0.75218249  0.25886711  0.12221228  1
  O  O261  1  0.75662451  0.25545154  0.63133368  1
  O  O262  1  0.73738698  0.76830439  0.09997258  1
  O  O263  1  0.77153460  0.74221819  0.62770316  1
  O  O264  1  0.24070917  0.24758366  0.35710173  1
  O  O265  1  0.21902063  0.28651557  0.90895292  1
  O  O266  1  0.29554450  0.76185099  0.37033622  1
  O  O267  1  0.25171892  0.73568359  0.89367292  1
  O  O268  1  0.81997755  0.24596488  0.42824939  1
  O  O269  1  0.74153936  0.26688923  0.86825374  1
  O  O270  1  0.72081979  0.79194654  0.38433596  1
  O  O271  1  0.76051695  0.73904552  0.87049366  1
  O  O272  1  -0.01075722  0.11631845  -0.00412897  1
  O  O273  1  -0.00503089  0.14808811  0.48791644  1
  O  O274  1  0.01516630  0.63218712  0.00635799  1
  O  O275  1  0.00577213  0.60679259  0.50600819  1
  O  O276  1  0.47695055  0.14160900  -0.00879348  1
  O  O277  1  0.47274268  0.12317977  0.54261701  1
  O  O278  1  0.45943798  0.63101516  0.02766474  1
  O  O279  1  0.48889262  0.64159294  0.52075418  1
  O  O280  1  0.43394656  0.32126674  0.50350000  1
  O  O281  1  0.48952646  0.37498359  0.98385293  1
  O  O282  1  0.50352418  0.83561034  0.48398042  1
  O  O283  1  0.48141788  0.87915047  0.98661502  1
  O  O284  1  1.01069861  0.37961904  0.48680432  1
  O  O285  1  1.00134868  0.43207191  1.05055972  1
  O  O286  1  1.00695500  0.80707607  0.44288712  1
  O  O287  1  0.99079440  0.85830652  1.00939667  1
  O  O288  1  0.46823342  0.48648240  0.40102309  1
  O  O289  1  0.48979654  0.49699034  0.86745952  1
  O  O290  1  0.54146636  1.05711733  0.38872279  1
  O  O291  1  0.48462200  1.01741597  0.87301741  1
  O  O292  1  1.00515357  0.49177388  0.38707839  1
  O  O293  1  0.98064968  0.50460532  0.88143480  1
  O  O294  1  0.99975134  0.96681592  0.38490652  1
  O  O295  1  1.02372001  0.98463154  0.90953231  1
  O  O296  1  0.01195432  -0.00275150  0.11768351  1
  O  O297  1  0.03226277  -0.00347873  0.62716836  1
  O  O298  1  -0.01508514  0.47744234  0.10835711  1
  O  O299  1  0.00546120  0.50260558  0.62009387  1
  O  O300  1  0.51004657  0.02785637  0.10002250  1
  O  O301  1  0.51849074  -0.01746142  0.61174102  1
  O  O302  1  0.53228303  0.49715440  0.14874556  1
  O  O303  1  0.49250190  0.52526561  0.63125547  1
  O  O304  1  0.24151016  0.38792051  0.24715649  1
  O  O305  1  0.25294988  0.39762708  0.75644759  1
  O  O306  1  0.24182138  0.86535549  0.24760598  1
  O  O307  1  0.22604828  0.85872779  0.74926379  1
  O  O308  1  0.72798263  0.35959941  0.28413437  1
  O  O309  1  0.74878099  0.38375246  0.74698992  1
  O  O310  1  0.75153300  0.86356538  0.22183468  1
  O  O311  1  0.75119171  0.86236237  0.75444016  1
  O  O312  1  0.27181017  0.14146977  0.24609541  1
  O  O313  1  0.22825486  0.09515010  0.76094585  1
  O  O314  1  0.25906606  0.60588369  0.25256621  1
  O  O315  1  0.25986429  0.62638098  0.76456066  1
  O  O316  1  0.72901220  0.13913190  0.25542021  1
  O  O317  1  0.79740340  0.12837549  0.75276294  1
  O  O318  1  0.72813908  0.57977085  0.26513236  1
  O  O319  1  0.75049470  0.61842296  0.75836826  1
  O  O320  1  0.37288888  0.11884107  0.35155364  1
  O  O321  1  0.41882776  0.05012515  0.87620317  1
  O  O322  1  0.41482042  0.53086719  0.43834493  1
  O  O323  1  0.36623160  0.62153919  0.86997684  1
  O  O324  1  0.86300274  0.09420175  0.35394863  1
  O  O325  1  0.90855057  0.19235590  0.84087832  1
  O  O326  1  0.87729012  0.59882320  0.36618001  1
  O  O327  1  0.86192782  0.61223854  0.88054657  1
  O  O328  1  0.13694674  0.37938831  0.13959379  1
  O  O329  1  0.13782954  0.39186920  0.63660558  1
  O  O330  1  0.12750727  0.87461501  0.13873813  1
  O  O331  1  0.12415908  0.87959773  0.56527067  1
  O  O332  1  0.63283823  0.37024196  0.11513618  1
  O  O333  1  0.64220785  0.37102282  0.62590734  1
  O  O334  1  0.62547724  0.89543784  0.09922024  1
  O  O335  1  0.63607852  0.88210567  0.64229012  1
  O  O336  1  0.11608914  0.26326320  0.25294753  1
  O  O337  1  0.08362394  0.17313032  0.76801534  1
  O  O338  1  0.12405200  0.75607415  0.24581175  1
  O  O339  1  0.11327547  0.75004814  0.74413992  1
  O  O340  1  0.61009672  0.25416142  0.25847460  1
  O  O341  1  0.62865462  0.23983942  0.75960974  1
  O  O342  1  0.62588472  0.74947801  0.24568540  1
  O  O343  1  0.61389871  0.76938857  0.74638712  1
  O  O344  1  0.39315781  0.25719504  0.23960920  1
  O  O345  1  0.34984640  0.22210590  0.82193395  1
  O  O346  1  0.38046481  0.73335290  0.21865791  1
  O  O347  1  0.37613898  0.74229417  0.75533306  1
  O  O348  1  0.88874014  0.25973831  0.25266072  1
  O  O349  1  0.90393941  0.24740078  0.78950321  1
  O  O350  1  0.80721778  0.70030919  0.24338329  1
  O  O351  1  0.89814101  0.75287388  0.72717408  1
  O  O352  1  0.37774073  0.49322980  0.49774282  1
  O  O353  1  0.36776867  0.49475142  0.99026927  1
  O  O354  1  0.27595440  0.90302838  0.47410492  1
  O  O355  1  0.35679326  0.97888579  1.01297665  1
  O  O356  1  0.89361527  0.49674478  0.49378465  1
  O  O357  1  0.84788739  0.50547840  0.99336959  1
  O  O358  1  0.84655179  0.99388104  0.46897924  1
  O  O359  1  0.89573552  0.98538509  1.00804412  1
  O  O360  1  0.11708870  0.00695344  0.02122241  1
  O  O361  1  0.11441444  0.03083261  0.47985438  1
  O  O362  1  0.13535807  0.52206124  0.01341660  1
  O  O363  1  0.11665533  0.49086106  0.51080520  1
  O  O364  1  0.63708037  0.02440307  -0.00847816  1
  O  O365  1  0.67247203  -0.00076358  0.54005678  1
  O  O366  1  0.62058767  0.49408966  0.00842109  1
  O  O367  1  0.62163530  0.51379073  0.49968390  1
  O  O368  1  0.38116993  0.37764086  0.12036324  1
  O  O369  1  0.35771853  0.38549989  0.63500667  1
  O  O370  1  0.36847587  0.86378076  0.11438348  1
  O  O371  1  0.43620372  0.86479469  0.49587703  1
  O  O372  1  0.84987114  0.35925030  0.13402591  1
  O  O373  1  0.86357475  0.37193219  0.63864434  1
  O  O374  1  0.86437701  0.87521469  0.11422735  1
  O  O375  1  0.89213655  0.85354319  0.60613843  1
  O  O376  1  0.13649722  0.14495303  0.37671149  1
  O  O377  1  0.11064748  0.23872138  0.78657948  1
  O  O378  1  0.04873650  0.66952543  0.34219400  1
  O  O379  1  0.14015558  0.62391663  0.87853816  1
  O  O380  1  0.68554251  0.12572986  0.31726390  1
  O  O381  1  0.63346750  0.13690652  0.87161632  1
  O  O382  1  0.61704328  0.62865487  0.40462004  1
  O  O383  1  0.64220539  0.62523316  0.87412694  1
