# generated using pymatgen
data_VZnO4
_symmetry_space_group_name_H-M   'P 1'
_cell_length_a   17.01257762
_cell_length_b   16.97992549
_cell_length_c   16.91829648
_cell_angle_alpha   89.77021908
_cell_angle_beta   89.64955678
_cell_angle_gamma   89.12401724
_symmetry_Int_Tables_number   1
_chemical_formula_structural   VZnO4
_chemical_formula_sum   'V64 Zn64 O256'
_cell_volume   4886.52714650
_cell_formula_units_Z   64
loop_
 _symmetry_equiv_pos_site_id
 _symmetry_equiv_pos_as_xyz
  1  'x, y, z'
loop_
 _atom_site_type_symbol
 _atom_site_label
 _atom_site_symmetry_multiplicity
 _atom_site_fract_x
 _atom_site_fract_y
 _atom_site_fract_z
 _atom_site_occupancy
  V  V0  1  0.86853524  0.37665196  0.00145412  1
  V  V1  1  0.25239941  0.49967160  0.76215986  1
  V  V2  1  0.01009729  0.63732451  0.61640148  1
  V  V3  1  0.00155961  0.48109028  0.50159541  1
  V  V4  1  0.60384448  0.86471281  0.74289648  1
  V  V5  1  0.39302258  0.62241595  0.74191477  1
  V  V6  1  0.00972752  0.00565311  0.49791096  1
  V  V7  1  0.12909145  0.88752081  0.73110205  1
  V  V8  1  0.23079090  0.62660223  0.39415893  1
  V  V9  1  0.00839133  0.75873278  0.75146393  1
  V  V10  1  0.86567995  0.00518973  0.37296398  1
  V  V11  1  0.49132981  0.14270045  0.63136378  1
  V  V12  1  0.59702064  0.55217554  0.52366144  1
  V  V13  1  0.74418717  0.50549471  0.75349559  1
  V  V14  1  0.45959746  0.25301767  0.23596591  1
  V  V15  1  0.73570178  -0.00182238  0.24054069  1
  V  V16  1  0.74900691  0.88356368  0.63548868  1
  V  V17  1  0.89593146  0.24452939  0.11907418  1
  V  V18  1  0.23265880  0.50340622  0.25764875  1
  V  V19  1  0.12523668  0.13951496  0.00247241  1
  V  V20  1  0.85617585  0.74808281  0.12097852  1
  V  V21  1  0.13104496  0.51165238  0.62856889  1
  V  V22  1  0.37846658  0.36568361  0.49381171  1
  V  V23  1  0.73711476  0.13505999  0.38713546  1
  V  V24  1  0.86798677  0.88261357  0.49584686  1
  V  V25  1  0.26903515  0.39998781  0.09832524  1
  V  V26  1  0.73957251  0.24543286  0.00417231  1
  V  V27  1  0.85335134  0.87755261  0.00410380  1
  V  V28  1  0.62939749  0.01688414  0.62773437  1
  V  V29  1  0.00333544  0.76120845  0.24353932  1
  V  V30  1  0.86728882  -0.00192835  0.86656394  1
  V  V31  1  0.61307811  0.35648361  0.25059755  1
  V  V32  1  0.26249843  0.63851909  0.87160742  1
  V  V33  1  0.61983809  0.60379014  0.01558142  1
  V  V34  1  0.75385276  0.47414867  0.24830055  1
  V  V35  1  0.01360863  0.87459804  0.87859437  1
  V  V36  1  0.24838872  0.13703863  0.38763464  1
  V  V37  1  0.79112964  0.38418544  0.63188252  1
  V  V38  1  0.25424093  0.00646189  0.73451210  1
  V  V39  1  0.88293441  0.13246207  0.24703653  1
  V  V40  1  0.40642389  0.78162828  0.18984286  1
  V  V41  1  0.24011757  0.74708128  0.02638417  1
  V  V42  1  0.00572088  0.62747527  0.12004220  1
  V  V43  1  0.74248807  0.13344164  0.86851082  1
  V  V44  1  0.74583092  0.74393592  0.48975894  1
  V  V45  1  0.37767399  0.77072924  0.58274009  1
  V  V46  1  0.12463042  0.35819346  0.21665389  1
  V  V47  1  0.00318613  0.35694559  0.88020617  1
  V  V48  1  0.62078899  0.75572035  0.89230889  1
  V  V49  1  0.88859203  0.61616010  0.27551484  1
  V  V50  1  0.27024691  0.25662362  -0.01187087  1
  V  V51  1  0.11831935  0.63110417  -0.02033954  1
  V  V52  1  0.52383678  0.03723818  -0.01685495  1
  V  V53  1  0.75015392  0.27641937  0.50319357  1
  V  V54  1  0.87550758  0.75844845  0.62686658  1
  V  V55  1  0.35763805  0.86334128  -0.02987173  1
  V  V56  1  0.25247984  0.11843233  0.86887687  1
  V  V57  1  0.87418831  0.62523619  0.75320670  1
  V  V58  1  0.00109466  0.87476818  0.36312771  1
  V  V59  1  0.89903905  0.14439764  0.74859145  1
  V  V60  1  0.50200176  0.01636598  0.49078656  1
  V  V61  1  0.00896748  -0.00056938  0.01228379  1
  V  V62  1  0.11739518  0.37502358  0.75845412  1
  V  V63  1  -0.00424397  0.50524188  -0.01058437  1
  Zn  Zn64  1  0.21893420  0.17387278  0.16466576  1
  Zn  Zn65  1  0.11574464  0.16346220  0.72982425  1
  Zn  Zn66  1  0.20580239  0.71353982  0.24011284  1
  Zn  Zn67  1  0.19708451  0.69748482  0.69216069  1
  Zn  Zn68  1  0.70472353  0.19529211  0.19372242  1
  Zn  Zn69  1  0.71032834  0.19718415  0.68726481  1
  Zn  Zn70  1  0.69671613  0.64706845  0.19556087  1
  Zn  Zn71  1  0.68261789  0.68158158  0.66790045  1
  Zn  Zn72  1  0.27549134  0.32300388  0.30539673  1
  Zn  Zn73  1  0.28275972  0.29359353  0.79216398  1
  Zn  Zn74  1  0.32292272  0.79963889  0.38492375  1
  Zn  Zn75  1  0.31329225  0.80718208  0.78380830  1
  Zn  Zn76  1  0.80291446  0.31038048  0.30551651  1
  Zn  Zn77  1  0.81671007  0.31555103  0.81844717  1
  Zn  Zn78  1  0.81089226  0.81279313  0.30427084  1
  Zn  Zn79  1  0.80437162  0.80682353  0.81989751  1
  Zn  Zn80  1  0.14348388  0.42703981  0.40895621  1
  Zn  Zn81  1  0.18390405  0.44624475  0.94011852  1
  Zn  Zn82  1  0.17875171  0.94980734  0.38468139  1
  Zn  Zn83  1  0.20776991  0.95073113  0.95014928  1
  Zn  Zn84  1  0.69786238  0.44278358  0.43362729  1
  Zn  Zn85  1  0.75394813  0.62658556  0.90043004  1
  Zn  Zn86  1  0.68611534  0.94750932  0.44605839  1
  Zn  Zn87  1  0.67632058  0.93985491  0.92627829  1
  Zn  Zn88  1  0.34462564  0.04050299  0.07297626  1
  Zn  Zn89  1  0.32312886  0.06493654  0.56862035  1
  Zn  Zn90  1  0.33101326  0.58892136  0.15662076  1
  Zn  Zn91  1  0.29141802  0.60870917  0.58341969  1
  Zn  Zn92  1  0.81140248  0.06569537  0.05967549  1
  Zn  Zn93  1  0.81692591  0.07273495  0.56967647  1
  Zn  Zn94  1  0.81270183  0.55432483  0.07569245  1
  Zn  Zn95  1  0.82464380  0.56520188  0.56223367  1
  Zn  Zn96  1  0.42512097  0.42797015  0.20997198  1
  Zn  Zn97  1  0.43077537  0.41981847  0.70446403  1
  Zn  Zn98  1  0.46934263  0.90237047  0.10007527  1
  Zn  Zn99  1  0.43427921  0.94526957  0.66879725  1
  Zn  Zn100  1  0.93688981  0.44287799  0.18338647  1
  Zn  Zn101  1  0.95222731  0.44571072  0.68972006  1
  Zn  Zn102  1  0.91836079  0.94174305  0.18354602  1
  Zn  Zn103  1  0.94273647  0.94694577  0.68267764  1
  Zn  Zn104  1  0.05036743  0.08492432  0.34800582  1
  Zn  Zn105  1  0.06313303  0.05269696  0.83059073  1
  Zn  Zn106  1  0.05653658  0.54810205  0.30735998  1
  Zn  Zn107  1  0.05573045  0.56616083  0.80949715  1
  Zn  Zn108  1  0.56103212  0.08309236  0.30710157  1
  Zn  Zn109  1  0.55837920  0.05527249  0.80278355  1
  Zn  Zn110  1  0.59768536  0.53342757  0.33427871  1
  Zn  Zn111  1  0.57452114  0.55809180  0.83089481  1
  Zn  Zn112  1  0.45788536  0.17960597  0.42022080  1
  Zn  Zn113  1  0.43580642  0.18017567  0.91698878  1
  Zn  Zn114  1  0.42872929  0.64450883  0.43623455  1
  Zn  Zn115  1  0.44158325  0.69558160  0.93597856  1
  Zn  Zn116  1  0.91581582  0.18234030  0.45926885  1
  Zn  Zn117  1  0.94082206  0.17974332  0.93744798  1
  Zn  Zn118  1  0.94374909  0.69852495  0.44153341  1
  Zn  Zn119  1  0.93053080  0.69852567  0.93606416  1
  Zn  Zn120  1  0.06843895  0.31883828  0.06710949  1
  Zn  Zn121  1  0.09110914  0.32437497  0.56535935  1
  Zn  Zn122  1  0.05729096  0.81142665  0.06009150  1
  Zn  Zn123  1  0.05353571  0.82966978  0.56019807  1
  Zn  Zn124  1  0.55347123  0.31323470  0.07234042  1
  Zn  Zn125  1  0.56613268  0.34022465  0.57196400  1
  Zn  Zn126  1  0.55373112  0.73779615  0.08134347  1
  Zn  Zn127  1  0.56407119  0.79948418  0.56784481  1
  O  O128  1  0.14245770  0.11365914  0.09839362  1
  O  O129  1  0.08756275  0.15855180  0.60967734  1
  O  O130  1  0.10312320  0.63108686  0.10992862  1
  O  O131  1  0.11887545  0.62275470  0.64415496  1
  O  O132  1  0.61861358  0.13268896  0.12424640  1
  O  O133  1  0.64658373  0.11493537  0.64002039  1
  O  O134  1  0.62145477  0.64783506  0.11501055  1
  O  O135  1  0.63448224  0.60571570  0.60066174  1
  O  O136  1  0.35053982  0.36352371  0.39257191  1
  O  O137  1  0.44591728  0.26695918  0.77857655  1
  O  O138  1  0.26392971  0.88965775  0.42283486  1
  O  O139  1  0.35633331  0.86406428  0.87081446  1
  O  O140  1  0.90798790  0.34038255  0.36978100  1
  O  O141  1  0.89210480  0.36706406  0.89196060  1
  O  O142  1  0.87029978  0.88735998  0.38090774  1
  O  O143  1  0.87078876  0.88388446  0.88487162  1
  O  O144  1  0.25898147  0.03534284  0.37268284  1
  O  O145  1  0.24508750  0.01147455  0.86030400  1
  O  O146  1  0.22913535  0.50248832  0.36173232  1
  O  O147  1  0.23879101  0.52098079  0.86659166  1
  O  O148  1  0.75154219  0.01110662  0.37117638  1
  O  O149  1  0.76371422  0.01439483  0.88009550  1
  O  O150  1  0.78369025  0.46472130  0.34475489  1
  O  O151  1  0.76233395  0.51703849  0.85038746  1
  O  O152  1  0.26878652  0.49974911  0.08853441  1
  O  O153  1  0.23585622  0.51548802  0.64431290  1
  O  O154  1  0.17784048  0.93125557  0.13239661  1
  O  O155  1  0.24077777  1.02286441  0.63580801  1
  O  O156  1  0.82110827  0.48157009  0.16708944  1
  O  O157  1  0.77182457  0.48988921  0.63172756  1
  O  O158  1  0.75071386  1.01627621  0.14133312  1
  O  O159  1  0.74496605  0.98923999  0.61943453  1
  O  O160  1  0.02315733  0.37203124  0.21324743  1
  O  O161  1  0.00532644  0.38533233  0.77245772  1
  O  O162  1  -0.01954092  0.87041444  0.25288661  1
  O  O163  1  0.00801251  0.87682549  0.75725319  1
  O  O164  1  0.49461677  0.34871218  0.26513229  1
  O  O165  1  0.38989167  0.33224916  0.77527054  1
  O  O166  1  0.56487747  0.80186569  0.31288390  1
  O  O167  1  0.50609469  0.87500526  0.73177643  1
  O  O168  1  0.56294014  0.09870051  0.15793746  1
  O  O169  1  0.50967677  0.12726937  0.73175278  1
  O  O170  1  0.46746139  0.59269611  0.27493731  1
  O  O171  1  0.48382822  0.59194325  0.77255254  1
  O  O172  1  0.97971028  0.13007616  0.26998438  1
  O  O173  1  1.00509443  0.12700601  0.75947589  1
  O  O174  1  0.99644449  0.64566174  0.23301600  1
  O  O175  1  0.99221057  0.64391370  0.74512699  1
  O  O176  1  0.36856769  0.25150103  -0.02139610  1
  O  O177  1  0.39816794  0.26104165  0.48523756  1
  O  O178  1  0.34548357  0.75053379  -0.00636778  1
  O  O179  1  0.38050406  0.74974428  0.47783443  1
  O  O180  1  0.87837204  0.24892043  0.00796651  1
  O  O181  1  0.84093350  0.22748990  0.52883678  1
  O  O182  1  0.86955081  0.76740112  0.00618573  1
  O  O183  1  0.87698042  0.76792953  0.51037950  1
  O  O184  1  0.16116013  0.34461823  0.48428882  1
  O  O185  1  0.12024246  0.23994585  0.99987025  1
  O  O186  1  0.14473837  0.78056048  0.49321520  1
  O  O187  1  0.12572023  0.73818190  1.00403283  1
  O  O188  1  0.65004654  0.27263131  0.51420672  1
  O  O189  1  0.64242326  0.26128490  1.01256086  1
  O  O190  1  0.64709622  0.74919237  0.50914732  1
  O  O191  1  0.62190569  0.77710806  0.98929027  1
  O  O192  1  0.48890259  0.24374691  0.13928899  1
  O  O193  1  0.52086433  0.23780929  0.61596326  1
  O  O194  1  0.50784505  0.80864095  0.15597614  1
  O  O195  1  0.47375798  0.74581894  0.60555644  1
  O  O196  1  0.99351592  0.23957229  0.11633757  1
  O  O197  1  1.04611067  0.21864588  0.58519144  1
  O  O198  1  0.98810468  0.75101349  0.12915046  1
  O  O199  1  0.99490843  0.75823262  0.63236822  1
  O  O200  1  -0.04505316  0.28471254  0.39015147  1
  O  O201  1  0.00776621  0.25907969  0.88280897  1
  O  O202  1  -0.01399142  0.76545723  0.35653038  1
  O  O203  1  -0.00821082  0.76893507  0.86442344  1
  O  O204  1  0.48953919  0.17801716  0.30787211  1
  O  O205  1  0.48389086  0.26400526  0.84553663  1
  O  O206  1  0.50679383  0.62712650  0.33573680  1
  O  O207  1  0.52414053  0.74281680  0.86658021  1
  O  O208  1  0.25590592  0.13054107  0.49241616  1
  O  O209  1  0.24304868  0.13872121  0.98237703  1
  O  O210  1  0.22512737  0.62872246  0.49542266  1
  O  O211  1  0.23212002  0.63902201  0.98319396  1
  O  O212  1  0.74763744  0.11738756  0.48730679  1
  O  O213  1  0.75652559  0.13618024  0.98415237  1
  O  O214  1  0.77296684  0.64831403  0.50641351  1
  O  O215  1  0.73369257  0.60314481  1.01250665  1
  O  O216  1  0.25360686  0.36865299  -0.01238067  1
  O  O217  1  0.28390084  0.35120159  0.52591330  1
  O  O218  1  0.23142217  0.84359373  -0.00732396  1
  O  O219  1  0.20987846  0.81155562  0.50815134  1
  O  O220  1  0.77027150  0.35781369  -0.00490029  1
  O  O221  1  0.77014980  0.38018604  0.50965217  1
  O  O222  1  0.75666209  0.88741042  -0.00393326  1
  O  O223  1  0.75782676  0.87238796  0.50817995  1
  O  O224  1  0.12934124  0.48516528  0.23689126  1
  O  O225  1  0.12817628  0.50075247  0.75008667  1
  O  O226  1  0.13254698  1.01938535  0.30405710  1
  O  O227  1  0.12261605  0.98912230  0.75077596  1
  O  O228  1  0.66647863  0.52862408  0.23615689  1
  O  O229  1  0.64563408  0.51293167  0.74885387  1
  O  O230  1  0.63648887  1.01250553  0.25622580  1
  O  O231  1  0.62240209  0.98043881  0.73367943  1
  O  O232  1  0.37503885  -0.02646339  0.27873480  1
  O  O233  1  0.35375674  -0.00423164  0.73708224  1
  O  O234  1  0.34225855  0.50160620  0.23700633  1
  O  O235  1  0.35518577  0.49349019  0.75252741  1
  O  O236  1  0.86501118  0.01489900  0.25658532  1
  O  O237  1  0.88090054  -0.00459714  0.76631204  1
  O  O238  1  0.93552384  0.52287684  0.27220355  1
  O  O239  1  0.89012384  0.52622573  0.74813048  1
  O  O240  1  0.15980180  0.35389312  0.32147406  1
  O  O241  1  0.10943331  0.38594503  0.87226805  1
  O  O242  1  0.09830847  0.87125414  0.36108929  1
  O  O243  1  0.11104728  0.87780237  0.86987839  1
  O  O244  1  0.62054430  0.41242601  0.34169586  1
  O  O245  1  0.55605620  0.40490546  0.92891993  1
  O  O246  1  0.58835238  0.88123907  0.42953225  1
  O  O247  1  0.63071224  0.86517649  0.85047526  1
  O  O248  1  0.31274331  0.11047338  0.14898029  1
  O  O249  1  0.39068023  0.13658892  0.62418639  1
  O  O250  1  0.38645805  0.68684121  0.16061819  1
  O  O251  1  0.38835517  0.60031292  0.64205688  1
  O  O252  1  0.87951447  0.12941196  0.13807300  1
  O  O253  1  0.87929675  0.11573592  0.65304984  1
  O  O254  1  0.88504869  0.64412052  0.10977633  1
  O  O255  1  0.89111904  0.64383618  0.63246989  1
  O  O256  1  0.25793319  0.25771043  0.08978457  1
  O  O257  1  0.21519938  0.24405764  0.62766126  1
  O  O258  1  0.23333435  0.74377408  0.12513127  1
  O  O259  1  0.28562144  0.72613968  0.62126499  1
  O  O260  1  0.76544293  0.23718468  0.10649720  1
  O  O261  1  0.74298519  0.28982156  0.63054239  1
  O  O262  1  0.76039411  0.74213040  0.13484048  1
  O  O263  1  0.76351535  0.76554259  0.61797422  1
  O  O264  1  0.24936208  0.24247550  0.38726084  1
  O  O265  1  0.24044314  0.23799077  0.87670496  1
  O  O266  1  0.24039635  0.72565459  0.34928132  1
  O  O267  1  0.24371315  0.73462275  0.85098500  1
  O  O268  1  0.75853833  0.24727599  0.39300254  1
  O  O269  1  0.75388341  0.24315789  0.88593783  1
  O  O270  1  0.75833814  0.76233176  0.39093988  1
  O  O271  1  0.72815128  0.73736901  0.86359636  1
  O  O272  1  0.01179046  0.10719164  -0.00398967  1
  O  O273  1  0.00074461  0.10655213  0.46197454  1
  O  O274  1  0.00255865  0.63102689  -0.00144911  1
  O  O275  1  0.01307043  0.64767006  0.51588027  1
  O  O276  1  0.51885787  0.13898941  -0.02005414  1
  O  O277  1  0.50496940  0.12258322  0.50867420  1
  O  O278  1  0.51644042  0.65253458  0.01048395  1
  O  O279  1  0.50334425  0.58430691  0.49937925  1
  O  O280  1  0.48446487  0.36570703  0.47897571  1
  O  O281  1  0.50273672  0.36701064  0.97342378  1
  O  O282  1  0.53194008  0.89152645  0.48588639  1
  O  O283  1  0.45547527  0.86047491  0.99138695  1
  O  O284  1  0.99821422  0.38438384  0.52471790  1
  O  O285  1  1.00143846  0.38576890  0.99094437  1
  O  O286  1  0.98615287  0.88234099  0.48259982  1
  O  O287  1  0.99447725  0.87808069  0.98864340  1
  O  O288  1  0.49879448  0.51814436  0.26295967  1
  O  O289  1  0.52457705  0.44906014  0.87141229  1
  O  O290  1  0.50882861  1.02064908  0.39004147  1
  O  O291  1  0.49959464  1.00825910  0.88882949  1
  O  O292  1  1.03829751  0.48093847  0.40312598  1
  O  O293  1  0.99069182  0.50966794  0.88763155  1
  O  O294  1  0.98105489  0.98607587  0.37312795  1
  O  O295  1  0.98671957  0.98474364  0.88547410  1
  O  O296  1  -0.00721002  -0.01146538  0.11025673  1
  O  O297  1  -0.00425111  -0.00089809  0.59852964  1
  O  O298  1  -0.01128699  0.52407167  0.10750187  1
  O  O299  1  0.00981543  0.52072608  0.62131000  1
  O  O300  1  0.46007393  0.00956574  0.06689848  1
  O  O301  1  0.51646582  0.01857400  0.62017423  1
  O  O302  1  0.47223536  0.49114555  0.09788391  1
  O  O303  1  0.53202111  0.39929632  0.66777319  1
  O  O304  1  0.24633681  0.39443816  0.21358295  1
  O  O305  1  0.23054333  0.39396513  0.76565536  1
  O  O306  1  0.31325035  0.95741219  0.24566218  1
  O  O307  1  0.23540456  0.88808192  0.74509763  1
  O  O308  1  0.73037751  0.36946335  0.23579377  1
  O  O309  1  0.77139572  0.39486262  0.74412032  1
  O  O310  1  0.75415973  0.89858170  0.25295582  1
  O  O311  1  0.75445387  0.87436376  0.73512218  1
  O  O312  1  0.23812554  0.14561858  0.28378496  1
  O  O313  1  0.22129081  0.11776965  0.75932800  1
  O  O314  1  0.23193002  0.60302488  0.22265033  1
  O  O315  1  0.26198424  0.61653075  0.75779986  1
  O  O316  1  0.75977622  0.12391838  0.26539237  1
  O  O317  1  0.77472495  0.14091586  0.76619511  1
  O  O318  1  0.79177644  0.60652088  0.24836681  1
  O  O319  1  0.76887441  0.61961663  0.72797815  1
  O  O320  1  0.35310595  0.13906606  0.38630602  1
  O  O321  1  0.35264462  0.12648179  0.86163714  1
  O  O322  1  0.33551502  0.60827236  0.38384234  1
  O  O323  1  0.36360174  0.62882925  0.87573603  1
  O  O324  1  0.86226250  0.11957607  0.36930506  1
  O  O325  1  0.88108404  0.11125071  0.86608307  1
  O  O326  1  0.88566716  0.63451333  0.37252967  1
  O  O327  1  0.86816067  0.64586854  0.85585377  1
  O  O328  1  0.14920046  0.38489057  0.10940274  1
  O  O329  1  0.11314894  0.39900007  0.65095590  1
  O  O330  1  0.12143490  0.88740739  0.14655569  1
  O  O331  1  0.12028192  0.88363924  0.63240207  1
  O  O332  1  0.59542283  0.38621734  0.15432421  1
  O  O333  1  0.60914495  0.33187373  0.76467224  1
  O  O334  1  0.61784375  0.77334895  0.26881160  1
  O  O335  1  0.63861169  0.88010445  0.62738261  1
  O  O336  1  0.14268525  0.25774324  0.20328997  1
  O  O337  1  0.12402190  0.27630108  0.74945014  1
  O  O338  1  0.10112864  0.76182941  0.23851688  1
  O  O339  1  0.11558974  0.76779479  0.74161075  1
  O  O340  1  0.62717381  0.25628154  0.25363416  1
  O  O341  1  0.61817246  0.25940522  0.75754560  1
  O  O342  1  0.64649281  0.69929079  0.29019219  1
  O  O343  1  0.62514327  0.76478046  0.72548514  1
  O  O344  1  0.36065552  0.26808986  0.24633564  1
  O  O345  1  0.27529327  0.25248145  0.66925932  1
  O  O346  1  0.38806318  0.79540868  0.28852528  1
  O  O347  1  0.38476851  0.72412731  0.74772020  1
  O  O348  1  0.86695903  0.24182077  0.23300073  1
  O  O349  1  0.88938280  0.24317872  0.75722675  1
  O  O350  1  0.87939060  0.74214495  0.23608423  1
  O  O351  1  0.88414324  0.75542547  0.74005394  1
  O  O352  1  0.37491105  0.46684104  0.48125675  1
  O  O353  1  0.42962105  0.54544184  1.07167348  1
  O  O354  1  0.40361553  0.99991054  0.51374551  1
  O  O355  1  0.31855195  0.95935929  1.00090197  1
  O  O356  1  0.90659401  0.51483048  0.49997107  1
  O  O357  1  0.87876694  0.48103180  1.00682624  1
  O  O358  1  0.87448438  0.99690717  0.49113364  1
  O  O359  1  0.88224113  0.98987379  0.99501731  1
  O  O360  1  0.10933695  -0.01319511  -0.00092927  1
  O  O361  1  0.10586509  -0.01455757  0.48105774  1
  O  O362  1  0.11164887  0.52329990  -0.00697620  1
  O  O363  1  0.12121027  0.50006925  0.52843582  1
  O  O364  1  0.61800140  0.00220521  0.00033556  1
  O  O365  1  0.62091683  0.00801309  0.52037838  1
  O  O366  1  0.60211887  0.51065008  0.02208119  1
  O  O367  1  0.61084960  0.44828844  0.53486458  1
  O  O368  1  0.36680972  0.38057651  0.11619678  1
  O  O369  1  0.39744496  0.37325557  0.59652432  1
  O  O370  1  0.35824072  0.85353189  0.13591436  1
  O  O371  1  0.37218935  0.86757111  0.60700630  1
  O  O372  1  0.88825376  0.35474984  0.10897001  1
  O  O373  1  0.88835613  0.36994336  0.63478264  1
  O  O374  1  0.86923122  0.86547346  0.11181978  1
  O  O375  1  0.86810922  0.87797858  0.61809990  1
  O  O376  1  0.14571813  0.13941932  0.40163107  1
  O  O377  1  0.13197932  0.11457827  0.89312783  1
  O  O378  1  0.13223737  0.61835842  0.35786618  1
  O  O379  1  0.11956655  0.63527276  0.87818538  1
  O  O380  1  0.64046057  0.13652913  0.37374843  1
  O  O381  1  0.64665587  0.12059362  0.85530860  1
  O  O382  1  0.65240552  0.55644048  0.43268905  1
  O  O383  1  0.62780517  0.63032457  0.90201748  1
