# generated using pymatgen
data_VZnO4
_symmetry_space_group_name_H-M   'P 1'
_cell_length_a   16.97139958
_cell_length_b   17.04517305
_cell_length_c   16.95090178
_cell_angle_alpha   90.03704853
_cell_angle_beta   90.34372306
_cell_angle_gamma   90.47546457
_symmetry_Int_Tables_number   1
_chemical_formula_structural   VZnO4
_chemical_formula_sum   'V64 Zn64 O256'
_cell_volume   4903.30611195
_cell_formula_units_Z   64
loop_
 _symmetry_equiv_pos_site_id
 _symmetry_equiv_pos_as_xyz
  1  'x, y, z'
loop_
 _atom_site_type_symbol
 _atom_site_label
 _atom_site_symmetry_multiplicity
 _atom_site_fract_x
 _atom_site_fract_y
 _atom_site_fract_z
 _atom_site_occupancy
  V  V0  1  0.42827533  0.17301471  0.79593534  1
  V  V1  1  -0.01576859  0.00143781  0.50571354  1
  V  V2  1  0.36243384  0.78513881  0.63139065  1
  V  V3  1  0.24473140  0.13038823  0.86838712  1
  V  V4  1  0.63610711  0.13757051  0.00798996  1
  V  V5  1  0.85781675  0.35938856  0.02965553  1
  V  V6  1  0.51370006  0.00063663  0.50157112  1
  V  V7  1  0.12218043  0.24847496  0.36000923  1
  V  V8  1  0.11474378  0.24513509  0.86166833  1
  V  V9  1  0.62848135  0.49240932  0.58547458  1
  V  V10  1  0.33986718  0.62779447  0.24129489  1
  V  V11  1  0.48054510  0.11983294  0.13339609  1
  V  V12  1  0.24645462  0.24937113  0.00710105  1
  V  V13  1  0.75177717  0.74332909  0.51005879  1
  V  V14  1  0.12335651  0.12638994  0.51007746  1
  V  V15  1  0.64704488  0.37452284  0.24941300  1
  V  V16  1  0.65040176  0.62333363  0.02805106  1
  V  V17  1  0.26762390  0.38706913  0.61020830  1
  V  V18  1  -0.00836732  -0.01674434  -0.02227461  1
  V  V19  1  0.38053366  0.36965694  0.00684019  1
  V  V20  1  0.62397757  0.72977695  0.38264546  1
  V  V21  1  0.26168785  -0.00225122  0.74409945  1
  V  V22  1  0.25644095  0.12388168  0.36336808  1
  V  V23  1  0.50254390  0.85191153  0.87997070  1
  V  V24  1  0.36653912  0.48543602  0.85989334  1
  V  V25  1  0.60997775  -0.00605666  0.12002691  1
  V  V26  1  0.38545280  -0.00518460  0.88305238  1
  V  V27  1  -0.02381142  0.89055806  0.37268559  1
  V  V28  1  0.09941526  0.50551025  0.61806198  1
  V  V29  1  0.38369465  0.50668454  0.37428775  1
  V  V30  1  0.24850654  0.76985292  0.49445974  1
  V  V31  1  -0.05913219  0.40002301  0.38673084  1
  V  V32  1  0.11468577  0.63074701  0.48858425  1
  V  V33  1  0.01150310  0.40955886  0.86630081  1
  V  V34  1  0.12119696  0.77024355  0.36858816  1
  V  V35  1  0.49221829  0.86479375  0.37695941  1
  V  V36  1  0.12667371  0.37173488  0.72990665  1
  V  V37  1  0.12835038  -0.00932471  0.62397862  1
  V  V38  1  -0.01468149  0.75969817  0.25060033  1
  V  V39  1  0.87274361  0.63360430  0.77504304  1
  V  V40  1  0.61855461  0.89930088  0.74737741  1
  V  V41  1  0.23988830  -0.01120657  0.24948821  1
  V  V42  1  0.48459844  0.25091398  0.25345377  1
  V  V43  1  -0.00964156  0.65958324  0.63212474  1
  V  V44  1  -0.00384084  0.12272227  0.10059450  1
  V  V45  1  0.74960540  0.88305563  0.62584692  1
  V  V46  1  0.25805995  0.24123950  0.50228564  1
  V  V47  1  0.75866109  0.11998845  0.40344474  1
  V  V48  1  -0.01266288  0.60740632  0.12245722  1
  V  V49  1  0.51542318  0.12271266  0.62047860  1
  V  V50  1  0.37394309  -0.00254803  0.37804140  1
  V  V51  1  0.75435789  0.36886882  0.64225104  1
  V  V52  1  0.13275251  0.73751159  0.89549602  1
  V  V53  1  0.12309825  -0.00596041  0.10000979  1
  V  V54  1  0.38166619  0.23508753  0.61800418  1
  V  V55  1  0.62436036  0.88063006  0.26227327  1
  V  V56  1  0.87571822  0.13736529  0.76425321  1
  V  V57  1  0.62904202  0.24589848  0.38383681  1
  V  V58  1  0.11014605  0.87261759  0.75672661  1
  V  V59  1  0.75388908  0.88400366  0.12860704  1
  V  V60  1  0.87035653  0.75324003  0.12401186  1
  V  V61  1  0.25695772  0.86445792  0.11819453  1
  V  V62  1  0.84991068  -0.00953814  0.86457831  1
  V  V63  1  0.75558138  0.75479110  -0.02028275  1
  Zn  Zn64  1  0.17388680  0.17621476  0.18271647  1
  Zn  Zn65  1  0.19247341  0.18528239  0.68861708  1
  Zn  Zn66  1  0.16811687  0.68840073  0.18329228  1
  Zn  Zn67  1  0.17915959  0.70228147  0.67259369  1
  Zn  Zn68  1  0.65770087  0.16235554  0.22517208  1
  Zn  Zn69  1  0.71513445  0.17166017  0.68739703  1
  Zn  Zn70  1  0.67944214  0.70207399  0.19689346  1
  Zn  Zn71  1  0.68930909  0.68032382  0.67690784  1
  Zn  Zn72  1  0.32868318  0.30827321  0.32450668  1
  Zn  Zn73  1  0.33235967  0.33814435  0.78444170  1
  Zn  Zn74  1  0.31245887  0.80701007  0.30403351  1
  Zn  Zn75  1  0.30768168  0.81759638  0.81480071  1
  Zn  Zn76  1  0.80819119  0.30223029  0.32023449  1
  Zn  Zn77  1  0.82971061  0.33922452  0.79361086  1
  Zn  Zn78  1  0.80030839  0.81136678  0.32102024  1
  Zn  Zn79  1  0.81895614  0.81756291  0.78676555  1
  Zn  Zn80  1  0.22274536  0.42011775  0.40122679  1
  Zn  Zn81  1  0.21554869  0.41200280  0.91077024  1
  Zn  Zn82  1  0.18100036  0.94307688  0.43441838  1
  Zn  Zn83  1  0.20464431  0.91226157  0.92168817  1
  Zn  Zn84  1  0.72712124  0.40538376  0.44200133  1
  Zn  Zn85  1  0.69802540  0.42567431  1.07021297  1
  Zn  Zn86  1  0.69939404  0.94401444  0.44263448  1
  Zn  Zn87  1  0.67634006  0.92585979  0.94163973  1
  Zn  Zn88  1  0.30440505  0.05998950  0.05595893  1
  Zn  Zn89  1  0.31633727  0.05685535  0.55935266  1
  Zn  Zn90  1  0.38720611  0.56396308  0.04736985  1
  Zn  Zn91  1  0.28331079  0.55932232  0.50642259  1
  Zn  Zn92  1  0.81558321  0.05291746  0.05300379  1
  Zn  Zn93  1  0.79942764  0.06308155  0.57988904  1
  Zn  Zn94  1  0.85086435  0.56291317  -0.02473693  1
  Zn  Zn95  1  0.80467354  0.56942665  0.63689614  1
  Zn  Zn96  1  0.41635562  0.43189323  0.20443357  1
  Zn  Zn97  1  0.43867488  0.44543597  0.66223398  1
  Zn  Zn98  1  0.43148215  0.93429200  0.19731040  1
  Zn  Zn99  1  0.44919208  0.94149224  0.69110563  1
  Zn  Zn100  1  0.98087066  0.40605409  0.19272270  1
  Zn  Zn101  1  0.93146610  0.44284820  0.70339224  1
  Zn  Zn102  1  0.94566270  0.94199658  0.18248727  1
  Zn  Zn103  1  0.93058035  0.94756350  0.69280064  1
  Zn  Zn104  1  0.06375388  0.06401424  0.32035860  1
  Zn  Zn105  1  0.05361587  0.06688039  0.79923980  1
  Zn  Zn106  1  -0.00429657  0.59041680  0.33926290  1
  Zn  Zn107  1  0.08254884  0.58272076  0.79616425  1
  Zn  Zn108  1  0.56309199  0.05847393  0.31622479  1
  Zn  Zn109  1  0.57706098  0.06747456  0.82444519  1
  Zn  Zn110  1  0.59242692  0.51746396  0.37847668  1
  Zn  Zn111  1  0.51704306  0.61245517  0.63400750  1
  Zn  Zn112  1  0.44413285  0.18047929  0.43537731  1
  Zn  Zn113  1  0.46104630  0.21533806  0.97420156  1
  Zn  Zn114  1  0.41649668  0.66782426  0.44620189  1
  Zn  Zn115  1  0.48832274  0.64679124  0.90156856  1
  Zn  Zn116  1  0.94602418  0.19481574  0.44133632  1
  Zn  Zn117  1  0.92621204  0.18527876  0.93483043  1
  Zn  Zn118  1  0.93408522  0.71068593  0.45662160  1
  Zn  Zn119  1  0.95224642  0.69836859  0.94127975  1
  Zn  Zn120  1  0.03801904  0.31464351  0.05089175  1
  Zn  Zn121  1  0.08648642  0.34700748  0.50755826  1
  Zn  Zn122  1  0.06897653  0.81373684  0.05990761  1
  Zn  Zn123  1  0.05772392  0.82410427  0.55415776  1
  Zn  Zn124  1  0.56077994  0.30813765  0.08304216  1
  Zn  Zn125  1  0.60110727  0.28577996  0.58932199  1
  Zn  Zn126  1  0.57427731  0.79401496  0.05925904  1
  Zn  Zn127  1  0.56696151  0.81774254  0.55665596  1
  O  O128  1  0.10909707  0.09625676  0.13525771  1
  O  O129  1  0.12839221  0.12020249  0.61280990  1
  O  O130  1  0.08233591  0.63993873  0.12324738  1
  O  O131  1  0.10753648  0.62231154  0.62537999  1
  O  O132  1  0.62404295  0.10086965  0.13034242  1
  O  O133  1  0.61248157  0.12772497  0.63353652  1
  O  O134  1  0.61163962  0.67765494  0.10967730  1
  O  O135  1  0.63154350  0.59464026  0.62167539  1
  O  O136  1  0.34394959  0.40079723  0.38143782  1
  O  O137  1  0.36199352  0.37441548  0.88934974  1
  O  O138  1  0.38854586  0.87653704  0.36836233  1
  O  O139  1  0.39107003  0.88669501  0.86978757  1
  O  O140  1  0.83518124  0.39133063  0.38952297  1
  O  O141  1  0.91247283  0.40387588  0.84128914  1
  O  O142  1  0.87732092  0.88497786  0.37197867  1
  O  O143  1  0.87491849  0.89392207  0.85289837  1
  O  O144  1  0.25224004  0.00760967  0.36962294  1
  O  O145  1  0.26030989  0.00659067  0.86263125  1
  O  O146  1  0.26280601  0.52143948  0.40038459  1
  O  O147  1  0.26652802  0.50293778  0.86507192  1
  O  O148  1  0.75225914  0.01992984  0.37988305  1
  O  O149  1  0.75170931  -0.01084191  0.88384227  1
  O  O150  1  0.78055933  0.55245364  0.39680830  1
  O  O151  1  0.69985070  0.50791149  0.84100644  1
  O  O152  1  0.16035202  0.49425800  0.14823052  1
  O  O153  1  0.27280580  0.48508324  0.59817643  1
  O  O154  1  0.23798214  1.00278101  0.13699720  1
  O  O155  1  0.24062464  1.00938862  0.63378596  1
  O  O156  1  0.76476793  0.56486236  0.21009428  1
  O  O157  1  0.73258508  0.48412192  0.62270948  1
  O  O158  1  0.73818412  0.98435580  0.12301424  1
  O  O159  1  0.73204815  0.98164570  0.62163817  1
  O  O160  1  -0.03522249  0.36367599  0.29436023  1
  O  O161  1  0.02380723  0.38289428  0.74526453  1
  O  O162  1  -0.00462393  0.87964429  0.26657014  1
  O  O163  1  0.01352086  0.88314014  0.73275773  1
  O  O164  1  0.48674017  0.35345821  0.24897550  1
  O  O165  1  0.57733788  0.39598261  0.78961050  1
  O  O166  1  0.50914186  0.87808738  0.26745015  1
  O  O167  1  0.51039897  0.88044529  0.76290915  1
  O  O168  1  0.50708846  0.12654360  0.23935776  1
  O  O169  1  0.49640434  0.11853659  0.73872326  1
  O  O170  1  0.54152092  0.55692362  0.19115543  1
  O  O171  1  0.53185734  0.66450502  0.74248984  1
  O  O172  1  0.98406292  0.09124269  0.23535611  1
  O  O173  1  0.97486320  0.12318453  0.74136230  1
  O  O174  1  0.98975634  0.65555877  0.24600107  1
  O  O175  1  0.99476664  0.62920483  0.73446882  1
  O  O176  1  0.35364856  0.25323148  -0.00109927  1
  O  O177  1  0.36715976  0.23745506  0.50275979  1
  O  O178  1  0.40653634  0.73470681  0.03611902  1
  O  O179  1  0.34736597  0.75283086  0.48345432  1
  O  O180  1  0.87712717  0.28029771  -0.03280351  1
  O  O181  1  0.91283201  0.22860368  0.56378155  1
  O  O182  1  0.87103183  0.75747170  0.01751210  1
  O  O183  1  0.84968191  0.76830520  0.49690451  1
  O  O184  1  0.13569072  0.23340972  0.49791756  1
  O  O185  1  0.14222320  0.25746222  0.96606402  1
  O  O186  1  0.12354646  0.75549317  0.48653717  1
  O  O187  1  0.12645968  0.73893811  0.99837986  1
  O  O188  1  0.61177022  0.24462889  0.48162094  1
  O  O189  1  0.63095632  0.23495043  1.03118661  1
  O  O190  1  0.62398918  0.74824674  0.48769214  1
  O  O191  1  0.65230658  0.74356376  0.98546813  1
  O  O192  1  0.49264676  0.23200209  0.14433565  1
  O  O193  1  0.49647897  0.23224086  0.61606828  1
  O  O194  1  0.46631266  0.73150569  0.08361211  1
  O  O195  1  0.46571230  0.75793913  0.59459503  1
  O  O196  1  1.02057879  0.21961523  0.10855114  1
  O  O197  1  0.96824145  0.24921694  0.60769934  1
  O  O198  1  0.98449244  0.77858809  0.14145637  1
  O  O199  1  1.00295850  0.75797920  0.62798712  1
  O  O200  1  0.02473059  0.22661520  0.36696369  1
  O  O201  1  0.01751639  0.24262838  0.87009602  1
  O  O202  1  -0.00449189  0.77233095  0.37029797  1
  O  O203  1  0.03003409  0.74642141  0.87782305  1
  O  O204  1  0.51476456  0.22858034  0.36068991  1
  O  O205  1  0.48193678  0.22520427  0.86068496  1
  O  O206  1  0.50744645  0.76490812  0.38755407  1
  O  O207  1  0.49145354  0.75481207  0.86790169  1
  O  O208  1  0.24183558  0.12576026  0.49246397  1
  O  O209  1  0.25188266  0.13210306  0.97682446  1
  O  O210  1  0.21883163  0.65328245  0.50611651  1
  O  O211  1  0.39854704  0.66631993  0.98548906  1
  O  O212  1  0.73858464  0.12125595  0.50148707  1
  O  O213  1  0.73427976  0.11713880  1.01436951  1
  O  O214  1  0.75170468  0.64626147  0.52571973  1
  O  O215  1  0.75753196  0.64358480  0.99484824  1
  O  O216  1  0.25569384  0.35808310  0.00194555  1
  O  O217  1  0.24384759  0.35215033  0.51093359  1
  O  O218  1  0.25238183  0.88969992  0.02078192  1
  O  O219  1  0.24184618  0.86911185  0.49424280  1
  O  O220  1  0.77121437  0.34060736  0.07782553  1
  O  O221  1  0.75741187  0.36063994  0.53896858  1
  O  O222  1  0.74145948  0.86266856  0.02052178  1
  O  O223  1  0.73112639  0.86796341  0.51783010  1
  O  O224  1  0.21537095  0.41808509  0.25649429  1
  O  O225  1  0.13135627  0.49681788  0.71849265  1
  O  O226  1  0.14044848  0.99957025  0.26214998  1
  O  O227  1  0.12468173  0.99920189  0.73185810  1
  O  O228  1  0.63357860  0.46968187  0.28298806  1
  O  O229  1  0.51421797  0.50297607  0.60900685  1
  O  O230  1  0.62211556  0.98453661  0.24116062  1
  O  O231  1  0.62465082  0.99829016  0.75086674  1
  O  O232  1  0.35882612  -0.00381150  0.26796251  1
  O  O233  1  0.36365574  -0.00524601  0.75035904  1
  O  O234  1  0.36304887  0.50851527  0.26466606  1
  O  O235  1  0.38840575  0.44454485  0.76216430  1
  O  O236  1  0.92213062  0.04184095  0.24547459  1
  O  O237  1  0.86668943  0.01315914  0.75962923  1
  O  O238  1  0.81805710  0.52147896  0.23860154  1
  O  O239  1  0.87478125  0.53422344  0.73129145  1
  O  O240  1  0.13406492  0.34936484  0.39327752  1
  O  O241  1  0.12896154  0.36580297  0.84935350  1
  O  O242  1  0.10908851  0.87164110  0.37794660  1
  O  O243  1  0.11234419  0.88994171  0.85586395  1
  O  O244  1  0.64530434  0.35129359  0.37117349  1
  O  O245  1  0.64046625  0.39307907  0.96489943  1
  O  O246  1  0.61855678  0.88453023  0.36813803  1
  O  O247  1  0.61259393  0.87423468  0.85964040  1
  O  O248  1  0.38208122  0.10944534  0.12673814  1
  O  O249  1  0.38487437  0.13032474  0.62247938  1
  O  O250  1  0.37142479  0.60523649  0.14539853  1
  O  O251  1  0.33742876  0.61889576  0.67379329  1
  O  O252  1  0.89579317  0.11060732  0.10957632  1
  O  O253  1  0.82691317  0.13639465  0.66196164  1
  O  O254  1  0.88226397  0.65529025  0.13876797  1
  O  O255  1  0.89364090  0.63819762  0.61037100  1
  O  O256  1  0.23095809  0.23215998  0.10301446  1
  O  O257  1  0.26446357  0.24011221  0.61529589  1
  O  O258  1  0.23040501  0.76880345  0.13020532  1
  O  O259  1  0.25817312  0.75956470  0.60840753  1
  O  O260  1  0.81913343  0.19908428  0.19588367  1
  O  O261  1  0.69947447  0.27284167  0.64941130  1
  O  O262  1  0.76300254  0.76157964  0.13198799  1
  O  O263  1  0.73068019  0.76565094  0.61567701  1
  O  O264  1  0.24991027  0.23515808  0.38182396  1
  O  O265  1  0.25105385  0.23216037  0.86134433  1
  O  O266  1  0.22662970  0.76266146  0.37645924  1
  O  O267  1  0.22665665  0.79466056  0.88690656  1
  O  O268  1  0.73829545  0.23402525  0.37989663  1
  O  O269  1  0.68810443  0.34800982  0.91891942  1
  O  O270  1  0.73162115  0.74805839  0.38863456  1
  O  O271  1  0.77091338  0.76851168  0.88503159  1
  O  O272  1  0.00127895  0.10772541  -0.00337917  1
  O  O273  1  0.01833357  0.11318414  0.49251398  1
  O  O274  1  -0.04094767  0.60678187  0.02073092  1
  O  O275  1  0.01161506  0.64767922  0.51626593  1
  O  O276  1  0.51109166  0.12986005  0.03069828  1
  O  O277  1  0.50126297  0.11256595  0.50933749  1
  O  O278  1  0.57728551  0.60520197  -0.03973805  1
  O  O279  1  0.46171516  0.67876237  0.56139502  1
  O  O280  1  0.47357088  0.34856935  0.44429534  1
  O  O281  1  0.47850976  0.33422110  1.00341684  1
  O  O282  1  0.50430830  0.89040046  0.48562000  1
  O  O283  1  0.51770487  0.86135671  0.97957556  1
  O  O284  1  0.98027445  0.34577347  0.46568148  1
  O  O285  1  1.02102311  0.38168594  0.96247106  1
  O  O286  1  0.99345982  0.89322775  0.48934484  1
  O  O287  1  1.00728717  0.88571843  0.99274926  1
  O  O288  1  0.48227454  0.48753893  0.37240748  1
  O  O289  1  0.54501647  0.42106802  0.84890451  1
  O  O290  1  0.49234972  0.99872025  0.38453456  1
  O  O291  1  0.48378395  1.01098043  0.86994046  1
  O  O292  1  0.97925944  0.49307941  0.38923041  1
  O  O293  1  1.03559520  0.50591514  0.86627956  1
  O  O294  1  0.99973521  0.99649027  0.38942619  1
  O  O295  1  1.00474473  1.00224023  0.87950562  1
  O  O296  1  0.00933425  -0.00410214  0.10101695  1
  O  O297  1  0.01523304  -0.00249845  0.61048346  1
  O  O298  1  -0.01681452  0.51584438  0.15945057  1
  O  O299  1  0.00142036  0.49747921  0.61730641  1
  O  O300  1  0.50432697  0.00339233  0.13498785  1
  O  O301  1  0.49473747  0.01086884  0.61087118  1
  O  O302  1  0.50949247  0.50966333  0.14475565  1
  O  O303  1  0.49808775  0.37580517  0.50704808  1
  O  O304  1  0.25559933  0.36445429  0.22624915  1
  O  O305  1  0.24008961  0.36937969  0.71485941  1
  O  O306  1  0.24634557  0.88684821  0.24661765  1
  O  O307  1  0.23441300  0.89830893  0.75137489  1
  O  O308  1  0.74497380  0.36230256  0.24270003  1
  O  O309  1  0.73717274  0.38585607  0.75027695  1
  O  O310  1  0.73262539  0.87070504  0.24200131  1
  O  O311  1  0.72220527  0.86219455  0.73883664  1
  O  O312  1  0.24759605  0.11677148  0.26139228  1
  O  O313  1  0.24558218  0.10892653  0.75650072  1
  O  O314  1  0.23873851  0.62266264  0.24156489  1
  O  O315  1  0.27575010  0.61880809  0.71471663  1
  O  O316  1  0.77439270  0.14394381  0.23455477  1
  O  O317  1  0.75450752  0.12010615  0.77578124  1
  O  O318  1  0.74000549  0.62505446  0.25843455  1
  O  O319  1  0.77105178  0.63636343  0.74283896  1
  O  O320  1  0.36011245  0.11546664  0.38111607  1
  O  O321  1  0.36501494  0.11475228  0.85699388  1
  O  O322  1  0.38420201  0.61904459  0.34553111  1
  O  O323  1  0.41967632  0.57129946  0.85277600  1
  O  O324  1  0.85876394  0.14328318  0.39746718  1
  O  O325  1  0.87519100  0.10550157  0.87165734  1
  O  O326  1  0.88829950  0.63334603  0.37936800  1
  O  O327  1  0.88148748  0.62229456  0.87859382  1
  O  O328  1  0.09239052  0.37610168  0.13937899  1
  O  O329  1  0.12896213  0.39466486  0.60755621  1
  O  O330  1  0.13139577  0.89279682  0.12547746  1
  O  O331  1  0.13043148  0.88998636  0.62198480  1
  O  O332  1  0.61723833  0.38373310  0.14611574  1
  O  O333  1  0.61547407  0.39660821  0.62053841  1
  O  O334  1  0.62245094  0.87694146  0.13649690  1
  O  O335  1  0.60779586  0.87404944  0.64483607  1
  O  O336  1  0.13930358  0.24877274  0.26183854  1
  O  O337  1  0.12983499  0.25844626  0.74895366  1
  O  O338  1  0.10498385  0.75569357  0.26525818  1
  O  O339  1  0.13423114  0.77275938  0.74716590  1
  O  O340  1  0.61271905  0.26407158  0.25663840  1
  O  O341  1  0.65552107  0.29395310  0.87887396  1
  O  O342  1  0.62211223  0.76451359  0.27478560  1
  O  O343  1  0.59282424  0.71276240  0.74224730  1
  O  O344  1  0.38506100  0.23506274  0.26559453  1
  O  O345  1  0.37832040  0.24411649  0.73685205  1
  O  O346  1  0.36163050  0.72805857  0.24538610  1
  O  O347  1  0.36373992  0.76773489  0.72977229  1
  O  O348  1  0.86946398  0.23815160  0.24116872  1
  O  O349  1  0.86860204  0.23544221  0.78649926  1
  O  O350  1  0.88041237  0.76690879  0.24889816  1
  O  O351  1  0.88790088  0.73298148  0.76002750  1
  O  O352  1  0.39344698  0.55533399  0.47775314  1
  O  O353  1  0.39050167  0.47941954  0.97644059  1
  O  O354  1  0.37905307  0.99863206  0.48483903  1
  O  O355  1  0.36973909  1.00560873  0.98023045  1
  O  O356  1  0.84489645  0.57286448  0.42702396  1
  O  O357  1  0.84008031  0.45395925  0.99068592  1
  O  O358  1  0.88880077  1.01636191  0.51936928  1
  O  O359  1  0.88463461  0.99126727  0.98043881  1
  O  O360  1  0.12454956  -0.00147623  0.00045202  1
  O  O361  1  0.12814934  0.01145931  0.50982139  1
  O  O362  1  0.14397371  0.43738776  0.10421536  1
  O  O363  1  0.12371080  0.52645634  0.51049585  1
  O  O364  1  0.61866168  -0.00533810  0.01902520  1
  O  O365  1  0.61087209  0.00273053  0.49590264  1
  O  O366  1  0.67596901  0.53480209  0.06730903  1
  O  O367  1  0.64117327  0.48578275  0.48162462  1
  O  O368  1  0.37426919  0.39413692  0.10471509  1
  O  O369  1  0.36941685  0.35815535  0.61955448  1
  O  O370  1  0.35633462  0.87491785  0.13872792  1
  O  O371  1  0.37544943  0.88183422  0.62121525  1
  O  O372  1  0.93268142  0.35794939  0.10185507  1
  O  O373  1  0.85678885  0.36461580  0.66143722  1
  O  O374  1  0.85773073  0.88037222  0.13689245  1
  O  O375  1  0.84941162  0.88003847  0.64355546  1
  O  O376  1  0.14069938  0.12951664  0.38206997  1
  O  O377  1  0.13395716  0.13543505  0.85795892  1
  O  O378  1  0.09769529  0.64216665  0.38657841  1
  O  O379  1  0.15391170  0.64519305  0.85847579  1
  O  O380  1  0.64575280  0.13354566  0.34665034  1
  O  O381  1  0.61463988  0.12782731  0.90877349  1
  O  O382  1  0.61000405  0.63294382  0.37368628  1
  O  O383  1  0.64895701  0.55162959  0.81527532  1
