# generated using pymatgen
data_VZnO4
_symmetry_space_group_name_H-M   'P 1'
_cell_length_a   16.93592748
_cell_length_b   16.86661754
_cell_length_c   16.89108675
_cell_angle_alpha   90.03405272
_cell_angle_beta   90.01986170
_cell_angle_gamma   89.85797074
_symmetry_Int_Tables_number   1
_chemical_formula_structural   VZnO4
_chemical_formula_sum   'V64 Zn64 O256'
_cell_volume   4824.95356453
_cell_formula_units_Z   64
loop_
 _symmetry_equiv_pos_site_id
 _symmetry_equiv_pos_as_xyz
  1  'x, y, z'
loop_
 _atom_site_type_symbol
 _atom_site_label
 _atom_site_symmetry_multiplicity
 _atom_site_fract_x
 _atom_site_fract_y
 _atom_site_fract_z
 _atom_site_occupancy
  V  V0  1  0.88652544  0.88021976  -0.01101203  1
  V  V1  1  0.39658746  -0.05199907  0.43340528  1
  V  V2  1  0.75452578  0.26104333  -0.00910172  1
  V  V3  1  0.37953797  0.20869255  0.64261030  1
  V  V4  1  -0.01033878  0.11491776  0.11776158  1
  V  V5  1  0.61790472  0.62890179  0.00406258  1
  V  V6  1  0.87829348  0.37516637  0.49410736  1
  V  V7  1  0.62826893  0.87381491  0.73862236  1
  V  V8  1  0.39436269  0.61822812  0.24805778  1
  V  V9  1  0.25258885  0.36851193  0.57789008  1
  V  V10  1  0.47760335  0.74877528  0.74962440  1
  V  V11  1  0.26192781  -0.00181962  0.76039887  1
  V  V12  1  0.62751225  0.22765792  0.37940392  1
  V  V13  1  0.87729223  0.74950116  0.12138749  1
  V  V14  1  0.49012578  0.37577574  0.38763998  1
  V  V15  1  0.62669366  0.75035234  0.87770844  1
  V  V16  1  0.13639493  0.36987519  0.25196066  1
  V  V17  1  -0.02345830  0.75641304  0.76206066  1
  V  V18  1  0.62401837  0.01564230  0.13148059  1
  V  V19  1  0.75269189  0.74471980  -0.00441920  1
  V  V20  1  0.50945384  0.48045149  -0.01291366  1
  V  V21  1  0.01425885  0.13616413  0.63030036  1
  V  V22  1  0.87532940  0.25039680  0.62449599  1
  V  V23  1  0.60752534  0.87277147  0.25546713  1
  V  V24  1  0.00255391  0.01852727  0.50485433  1
  V  V25  1  0.64006318  0.27502094  0.85257870  1
  V  V26  1  0.36201695  0.87227400  0.01457563  1
  V  V27  1  0.12643616  -0.01516430  0.64461702  1
  V  V28  1  0.73519438  0.37956591  0.62138969  1
  V  V29  1  0.74700766  -0.00085211  0.75487365  1
  V  V30  1  0.87136047  0.50113031  0.37307920  1
  V  V31  1  -0.05407042  0.42749428  -0.04778954  1
  V  V32  1  0.62189695  0.63480946  0.49309713  1
  V  V33  1  0.13862680  0.12117532  0.00789845  1
  V  V34  1  0.00495267  0.60115304  0.11668538  1
  V  V35  1  0.63163049  0.37872673  0.25365926  1
  V  V36  1  0.61548318  0.02245948  0.61649530  1
  V  V37  1  0.34421727  0.51119821  0.86609343  1
  V  V38  1  0.00013313  0.26774729  0.75276835  1
  V  V39  1  -0.00515639  0.52510064  0.50134612  1
  V  V40  1  0.75646408  0.89053609  0.12870009  1
  V  V41  1  0.14170887  0.37891827  0.74283708  1
  V  V42  1  0.02250969  0.75709270  0.23787591  1
  V  V43  1  0.01781439  0.24205011  0.24769762  1
  V  V44  1  0.34722685  0.37862264  0.00376710  1
  V  V45  1  0.51736603  0.23959790  0.23423819  1
  V  V46  1  0.26716287  0.13964773  0.86822831  1
  V  V47  1  0.73792913  0.50042209  0.75326702  1
  V  V48  1  0.12729037  0.26135454  0.88269624  1
  V  V49  1  0.40829533  0.74150123  0.12136805  1
  V  V50  1  0.86730906  0.61520059  0.77733392  1
  V  V51  1  0.88754783  0.00933263  0.87603600  1
  V  V52  1  0.87171229  0.62868025  0.25075301  1
  V  V53  1  0.23700844  0.63531503  0.35540396  1
  V  V54  1  0.01895667  0.86373984  0.38673654  1
  V  V55  1  0.62497317  0.11578841  -0.03424671  1
  V  V56  1  0.75183432  0.50315317  0.24357099  1
  V  V57  1  0.49981895  0.88954432  0.89207274  1
  V  V58  1  0.12780192  0.50625528  0.61005194  1
  V  V59  1  0.38355861  0.14041845  0.28319203  1
  V  V60  1  0.86907091  0.13322143  0.75728717  1
  V  V61  1  0.62042080  0.50520821  0.12709751  1
  V  V62  1  0.74981786  0.22603611  0.49804134  1
  V  V63  1  0.86435320  -0.00382397  0.35039403  1
  Zn  Zn64  1  0.19395030  0.16848456  0.20932596  1
  Zn  Zn65  1  0.20095052  0.19512852  0.68294810  1
  Zn  Zn66  1  0.19211205  0.65801146  0.17683097  1
  Zn  Zn67  1  0.14912677  0.69628253  0.69039799  1
  Zn  Zn68  1  0.70886183  0.20388899  0.18425518  1
  Zn  Zn69  1  0.69041998  0.18450999  0.68180650  1
  Zn  Zn70  1  0.68783691  0.69251882  0.18573045  1
  Zn  Zn71  1  0.68300815  0.68078777  0.69275199  1
  Zn  Zn72  1  0.32190958  0.29680298  0.30557477  1
  Zn  Zn73  1  0.32665649  0.31123656  0.82270822  1
  Zn  Zn74  1  0.32945358  0.79720057  0.31445012  1
  Zn  Zn75  1  0.30878203  0.82707362  0.82907516  1
  Zn  Zn76  1  0.80877045  0.31325752  0.31908056  1
  Zn  Zn77  1  0.81693503  0.33158577  0.81413283  1
  Zn  Zn78  1  0.83496386  0.83010823  0.30544062  1
  Zn  Zn79  1  0.80903806  0.81638090  0.81059974  1
  Zn  Zn80  1  0.16970367  0.44575653  0.41197982  1
  Zn  Zn81  1  0.17228276  0.44743916  0.93732510  1
  Zn  Zn82  1  0.18356536  0.96037234  0.43705411  1
  Zn  Zn83  1  0.25504228  0.99314536  0.97981749  1
  Zn  Zn84  1  0.68836304  0.43827158  0.43580301  1
  Zn  Zn85  1  0.68803888  0.44116897  0.93359873  1
  Zn  Zn86  1  0.67656694  0.93252694  0.43527699  1
  Zn  Zn87  1  0.69339749  0.93920051  0.93927857  1
  Zn  Zn88  1  0.41413805  0.03618550  0.11267767  1
  Zn  Zn89  1  0.32568112  0.00247058  0.57627800  1
  Zn  Zn90  1  0.35257272  0.52624336  0.10053789  1
  Zn  Zn91  1  0.29853866  0.59471008  0.57144385  1
  Zn  Zn92  1  0.80554193  0.07518847  0.04595181  1
  Zn  Zn93  1  0.79542747  0.01498861  0.54299938  1
  Zn  Zn94  1  0.81526436  0.55793217  0.05885230  1
  Zn  Zn95  1  0.79925969  0.55890832  0.55656616  1
  Zn  Zn96  1  0.44737863  0.42322924  0.18881262  1
  Zn  Zn97  1  0.36708047  0.40764546  0.69968769  1
  Zn  Zn98  1  0.42436324  0.94554082  0.26426235  1
  Zn  Zn99  1  0.44563156  0.93190212  0.68604653  1
  Zn  Zn100  1  0.94085836  0.42457694  0.19707010  1
  Zn  Zn101  1  0.93102626  0.44385866  0.67825356  1
  Zn  Zn102  1  0.94790910  0.93939433  0.17709940  1
  Zn  Zn103  1  0.94212829  0.95039433  0.69278042  1
  Zn  Zn104  1  0.04669025  0.05384422  0.30854680  1
  Zn  Zn105  1  0.06387349  0.07626694  0.81982985  1
  Zn  Zn106  1  0.05668504  0.56077322  0.30650662  1
  Zn  Zn107  1  0.04572582  0.55237104  0.78975932  1
  Zn  Zn108  1  0.56141343  0.04612967  0.31852489  1
  Zn  Zn109  1  0.54014432  0.05964799  0.78539548  1
  Zn  Zn110  1  0.55638857  0.55344959  0.31879035  1
  Zn  Zn111  1  0.56158769  0.56890959  0.81267376  1
  Zn  Zn112  1  0.41587499  0.13601569  0.49845294  1
  Zn  Zn113  1  0.43967185  0.19223915  0.96156779  1
  Zn  Zn114  1  0.41739310  0.65346982  0.45038194  1
  Zn  Zn115  1  0.43578546  0.68990838  0.93056962  1
  Zn  Zn116  1  0.92683304  0.18069411  0.43012518  1
  Zn  Zn117  1  0.95999528  0.23285030  0.96607231  1
  Zn  Zn118  1  0.94564272  0.69179614  0.42197989  1
  Zn  Zn119  1  0.94472058  0.68248694  0.93561815  1
  Zn  Zn120  1  0.06779639  0.31747513  0.08092643  1
  Zn  Zn121  1  0.06141354  0.32076191  0.55975019  1
  Zn  Zn122  1  0.05948110  0.79643052  0.04240751  1
  Zn  Zn123  1  0.04650092  0.80959890  0.58942042  1
  Zn  Zn124  1  0.59836760  0.30509432  0.05884949  1
  Zn  Zn125  1  0.55132030  0.29127455  0.55860852  1
  Zn  Zn126  1  0.57016032  0.82489613  0.06578479  1
  Zn  Zn127  1  0.38464318  0.79668581  0.57268291  1
  O  O128  1  0.15233999  0.15300712  0.10432573  1
  O  O129  1  0.11432698  0.13925142  0.62871544  1
  O  O130  1  0.10367918  0.60453153  0.13261091  1
  O  O131  1  0.13409219  0.60504580  0.62071235  1
  O  O132  1  0.65599597  0.10983685  0.14850039  1
  O  O133  1  0.62042688  0.12467621  0.61627467  1
  O  O134  1  0.63265834  0.61737001  0.11703160  1
  O  O135  1  0.62897031  0.64016770  0.59848378  1
  O  O136  1  0.39357919  0.34541233  0.37759698  1
  O  O137  1  0.36093393  0.39898321  0.88861092  1
  O  O138  1  0.47301582  0.77937606  0.33885216  1
  O  O139  1  0.39144484  0.87001979  0.90041663  1
  O  O140  1  0.87095156  0.38598371  0.38190738  1
  O  O141  1  0.89755157  0.38069662  0.87699478  1
  O  O142  1  0.90952907  0.89228432  0.36720923  1
  O  O143  1  0.87343555  0.88263182  0.88501536  1
  O  O144  1  0.21291930  0.02171596  0.28854026  1
  O  O145  1  0.25649590  0.02797223  0.86854821  1
  O  O146  1  0.25936746  0.52590322  0.40292097  1
  O  O147  1  0.24482156  0.51739064  0.88525998  1
  O  O148  1  0.76703418  -0.02655195  0.35545220  1
  O  O149  1  0.76536815  -0.00463756  0.86255558  1
  O  O150  1  0.76438835  0.50391567  0.36645328  1
  O  O151  1  0.75128660  0.48886103  0.85199758  1
  O  O152  1  0.24446016  0.56358022  0.06286478  1
  O  O153  1  0.23269229  0.49025219  0.59729415  1
  O  O154  1  0.15315497  0.90503628  0.15464654  1
  O  O155  1  0.23110279  1.00676554  0.64612336  1
  O  O156  1  0.74478110  0.50258365  0.13690944  1
  O  O157  1  0.74606465  0.48591103  0.62485499  1
  O  O158  1  0.76115149  0.99159917  0.11886508  1
  O  O159  1  0.72729146  1.01041066  0.64284244  1
  O  O160  1  0.01223867  0.35090731  0.24672683  1
  O  O161  1  0.00261111  0.37005959  0.73663295  1
  O  O162  1  0.01034958  0.86068500  0.23886439  1
  O  O163  1  -0.03189476  0.85676673  0.74967958  1
  O  O164  1  0.51271096  0.35713578  0.25686406  1
  O  O165  1  0.49502023  0.42794971  0.72692356  1
  O  O166  1  0.50972767  0.87947725  0.22782952  1
  O  O167  1  0.51343563  0.86478559  0.76546965  1
  O  O168  1  0.50561042  0.13723770  0.25878972  1
  O  O169  1  0.50213714  0.18398296  0.79330083  1
  O  O170  1  0.49436005  0.62533572  0.25541939  1
  O  O171  1  0.50877139  0.65104237  0.75748016  1
  O  O172  1  1.02412748  0.12621198  0.22838858  1
  O  O173  1  0.99324411  0.14437730  0.74586045  1
  O  O174  1  0.99129506  0.63341894  0.23694325  1
  O  O175  1  0.97001000  0.62639819  0.74837494  1
  O  O176  1  0.38065723  0.28424888  -0.00943878  1
  O  O177  1  0.45974306  0.22407118  0.57109384  1
  O  O178  1  0.39003848  0.75670257  0.01209096  1
  O  O179  1  0.35706211  0.69115623  0.53530934  1
  O  O180  1  0.85204731  0.23662520  -0.00399932  1
  O  O181  1  0.86558198  0.25386682  0.50217130  1
  O  O182  1  0.87290562  0.75945507  0.00135215  1
  O  O183  1  0.84464308  0.75898597  0.45554615  1
  O  O184  1  0.10126938  0.24273981  0.47948003  1
  O  O185  1  0.12554926  0.27300747  0.98184061  1
  O  O186  1  0.16054814  0.74950067  0.53642043  1
  O  O187  1  0.13098411  0.73881623  0.97116882  1
  O  O188  1  0.64074636  0.24183450  0.49089442  1
  O  O189  1  0.62798826  0.23928770  0.95871760  1
  O  O190  1  0.62983195  0.73554397  0.48421169  1
  O  O191  1  0.63403581  0.74709345  0.99943227  1
  O  O192  1  0.53205184  0.24479342  0.13632699  1
  O  O193  1  0.53494474  0.36747850  0.71448405  1
  O  O194  1  0.50697268  0.74988386  0.12529306  1
  O  O195  1  0.46992903  0.76445271  0.65039487  1
  O  O196  1  1.00312153  0.23568717  0.14110880  1
  O  O197  1  0.99272168  0.25249884  0.62985894  1
  O  O198  1  0.99394709  0.74674248  0.12635464  1
  O  O199  1  0.90983713  0.81342795  0.59408712  1
  O  O200  1  -0.03710698  0.22667236  0.33326170  1
  O  O201  1  0.01703856  0.25439125  0.86322168  1
  O  O202  1  0.00641634  0.75809288  0.35129063  1
  O  O203  1  0.00529863  0.74335618  0.85794433  1
  O  O204  1  0.52849624  0.25496670  0.37151771  1
  O  O205  1  0.51495133  0.23325069  0.85081960  1
  O  O206  1  0.49593934  0.74208884  0.39802726  1
  O  O207  1  0.51407366  0.76281076  0.87643885  1
  O  O208  1  0.32750937  0.13795421  0.57949693  1
  O  O209  1  0.24279937  0.13555284  0.97617592  1
  O  O210  1  0.25156885  0.58802669  0.46009412  1
  O  O211  1  0.25487956  0.63599740  1.02662263  1
  O  O212  1  0.76219802  0.12903296  0.50961902  1
  O  O213  1  0.73092587  0.13906997  0.98998240  1
  O  O214  1  0.72848647  0.62295887  0.49084853  1
  O  O215  1  0.74688641  0.63916966  1.00573524  1
  O  O216  1  0.24635051  0.38606607  0.00313413  1
  O  O217  1  0.23309155  0.36850946  0.47997144  1
  O  O218  1  0.26469981  0.87246781  -0.00818986  1
  O  O219  1  0.21605740  0.79629184  0.52205745  1
  O  O220  1  0.75164842  0.36376154  -0.01456250  1
  O  O221  1  0.75943779  0.37499473  0.50716883  1
  O  O222  1  0.76251216  0.86797231  0.00938748  1
  O  O223  1  0.75928498  0.91586505  0.50488361  1
  O  O224  1  0.12112213  0.46437529  0.29873846  1
  O  O225  1  0.11264117  0.48484042  0.72514482  1
  O  O226  1  0.18747159  1.04630343  0.21904755  1
  O  O227  1  0.12132423  1.00971598  0.74587620  1
  O  O228  1  0.63277408  0.50151256  0.24667554  1
  O  O229  1  0.63900044  0.51688462  0.74367322  1
  O  O230  1  0.62951771  0.98659405  0.23889300  1
  O  O231  1  0.63586048  0.98390614  0.76211792  1
  O  O232  1  0.38009499  0.05032689  0.22521037  1
  O  O233  1  0.35986960  -0.00224044  0.74792541  1
  O  O234  1  0.38185671  0.51638993  0.21940798  1
  O  O235  1  0.35710848  0.49901003  0.76500929  1
  O  O236  1  0.89439855  0.00737782  0.25348380  1
  O  O237  1  0.86890873  0.01175765  0.75568163  1
  O  O238  1  0.87078575  0.50530367  0.25423920  1
  O  O239  1  0.86401126  0.51314008  0.73947829  1
  O  O240  1  0.10189070  0.34124633  0.38710432  1
  O  O241  1  0.13109798  0.37164436  0.85247508  1
  O  O242  1  0.11602317  0.88618521  0.37260427  1
  O  O243  1  0.16257914  0.78374453  0.91193592  1
  O  O244  1  0.62139565  0.37618568  0.36571038  1
  O  O245  1  0.62492273  0.37300540  0.85867957  1
  O  O246  1  0.61416791  0.88596155  0.35646700  1
  O  O247  1  0.61744801  0.86939536  0.88087403  1
  O  O248  1  0.38420554  0.15079827  0.07902992  1
  O  O249  1  0.41047208  0.14167116  0.70499925  1
  O  O250  1  0.39162424  0.63640349  0.12430677  1
  O  O251  1  0.29654811  0.64487992  0.68265273  1
  O  O252  1  0.89050708  0.11827201  0.11128977  1
  O  O253  1  0.88622038  0.14292233  0.63706952  1
  O  O254  1  0.88042510  0.63409716  0.12927562  1
  O  O255  1  0.83455331  0.66547637  0.60408849  1
  O  O256  1  0.32175482  0.18324794  0.10555595  1
  O  O257  1  0.25844608  0.26884502  0.61595297  1
  O  O258  1  0.24168682  0.69766207  0.07528946  1
  O  O259  1  0.26429421  0.71597343  0.67899049  1
  O  O260  1  0.70852378  0.26197488  0.08751610  1
  O  O261  1  0.75763775  0.25549643  0.61162703  1
  O  O262  1  0.76458829  0.75899554  0.11525730  1
  O  O263  1  0.78114384  0.71784639  0.62018604  1
  O  O264  1  0.13376736  0.27050874  0.41341787  1
  O  O265  1  0.23507569  0.24938792  0.86002952  1
  O  O266  1  0.25573398  0.73442259  0.37211557  1
  O  O267  1  0.22866057  0.75167179  0.88422302  1
  O  O268  1  0.74597168  0.24487470  0.39003008  1
  O  O269  1  0.74583108  0.25972314  0.87048865  1
  O  O270  1  0.79213164  0.76984618  0.40152194  1
  O  O271  1  0.74056310  0.76285939  0.88781895  1
  O  O272  1  0.02344363  0.14209579  0.01461759  1
  O  O273  1  -0.00424186  0.12304161  0.51197366  1
  O  O274  1  -0.00362033  0.62708602  0.01820324  1
  O  O275  1  -0.01115372  0.62604066  0.50435520  1
  O  O276  1  0.52761959  0.13277289  -0.00350597  1
  O  O277  1  0.42461347  0.02116752  0.50969604  1
  O  O278  1  0.51726758  0.61688107  -0.00421773  1
  O  O279  1  0.51994301  0.62407501  0.50023976  1
  O  O280  1  0.51066190  0.37053223  0.48637034  1
  O  O281  1  0.52642870  0.38221269  1.00111402  1
  O  O282  1  0.42232403  0.86125683  0.47630595  1
  O  O283  1  0.50338233  0.88716439  0.99606797  1
  O  O284  1  0.97979124  0.37964200  0.50460129  1
  O  O285  1  0.98027752  0.34601116  1.01113959  1
  O  O286  1  1.01490612  0.84244296  0.48606220  1
  O  O287  1  0.98596342  0.87302394  1.00074978  1
  O  O288  1  0.48974298  0.47674344  0.36701633  1
  O  O289  1  0.51960262  0.49508562  0.88744386  1
  O  O290  1  0.47442231  0.98743432  0.36655528  1
  O  O291  1  0.49717301  0.98594366  0.86587852  1
  O  O292  1  0.98453645  0.51016381  0.39045758  1
  O  O293  1  1.00951346  0.49732126  0.88851422  1
  O  O294  1  1.00862156  0.99521212  0.39940702  1
  O  O295  1  0.98622190  0.99996581  0.86410546  1
  O  O296  1  0.01145860  0.01539256  0.11980229  1
  O  O297  1  0.01353625  0.01775672  0.63298116  1
  O  O298  1  -0.01667682  0.50250954  0.12736972  1
  O  O299  1  0.00453955  0.50002232  0.60669269  1
  O  O300  1  0.52508992  0.01888981  0.12373017  1
  O  O301  1  0.52220547  0.01677718  0.67151999  1
  O  O302  1  0.51662398  0.49748806  0.11193974  1
  O  O303  1  0.45901343  0.55532570  0.63451944  1
  O  O304  1  0.23388877  0.35704503  0.27653497  1
  O  O305  1  0.24016450  0.38154525  0.73959337  1
  O  O306  1  0.34569647  0.90472812  0.33601532  1
  O  O307  1  0.23976859  0.90006068  0.77780886  1
  O  O308  1  0.74149765  0.39224499  0.26232959  1
  O  O309  1  0.75376539  0.38579753  0.73025839  1
  O  O310  1  0.76225590  0.87239971  0.22847976  1
  O  O311  1  0.74041456  0.88256499  0.74754221  1
  O  O312  1  0.28455842  0.17870134  0.27844872  1
  O  O313  1  0.24438645  0.12396632  0.76195679  1
  O  O314  1  0.26242230  0.61705737  0.25316470  1
  O  O315  1  0.17949589  0.64995357  0.80012723  1
  O  O316  1  0.81415972  0.23716357  0.22896423  1
  O  O317  1  0.76522976  0.12214421  0.74735486  1
  O  O318  1  0.76241919  0.62036065  0.24325618  1
  O  O319  1  0.75964818  0.61372104  0.74576410  1
  O  O320  1  0.39678202  0.13798435  0.38201504  1
  O  O321  1  0.36510848  0.15533852  0.87771758  1
  O  O322  1  0.37219746  0.62466307  0.35224420  1
  O  O323  1  0.38051229  0.60488101  0.88463825  1
  O  O324  1  0.87403800  0.08555296  0.39841502  1
  O  O325  1  0.88233529  0.11560112  0.86704544  1
  O  O326  1  0.88062301  0.62047356  0.35780380  1
  O  O327  1  0.86982098  0.61468734  0.87701508  1
  O  O328  1  0.13395694  0.37788402  0.15083003  1
  O  O329  1  0.13778469  0.37897830  0.62211747  1
  O  O330  1  0.15781477  0.85045884  0.10488233  1
  O  O331  1  0.11684848  0.88575261  0.64311030  1
  O  O332  1  0.62557445  0.39018443  0.14473841  1
  O  O333  1  0.63833912  0.35811238  0.61115697  1
  O  O334  1  0.64490322  0.89187435  0.12431318  1
  O  O335  1  0.61811130  0.88215276  0.64246291  1
  O  O336  1  0.12260291  0.24883589  0.25907139  1
  O  O337  1  0.11878066  0.26736529  0.74576345  1
  O  O338  1  0.11946886  0.74403713  0.22587642  1
  O  O339  1  0.04858065  0.74177594  0.68125922  1
  O  O340  1  0.63427469  0.25562821  0.26279930  1
  O  O341  1  0.63461512  0.24758471  0.75477812  1
  O  O342  1  0.63588753  0.77523906  0.23970006  1
  O  O343  1  0.63406948  0.76190978  0.75873737  1
  O  O344  1  0.40936522  0.24320389  0.24202196  1
  O  O345  1  0.37691201  0.29179605  0.72189150  1
  O  O346  1  0.37116113  0.73441191  0.22705900  1
  O  O347  1  0.38262490  0.75282173  0.78402129  1
  O  O348  1  0.85733592  0.27424948  0.15981600  1
  O  O349  1  0.88043905  0.25262742  0.74466903  1
  O  O350  1  0.88234552  0.74574638  0.23689082  1
  O  O351  1  0.86989257  0.73145081  0.75935730  1
  O  O352  1  0.41640909  0.53155257  0.57913870  1
  O  O353  1  0.40011594  0.48936755  0.99086812  1
  O  O354  1  0.29073265  0.96778523  0.46624946  1
  O  O355  1  0.36357090  0.98167306  1.02859631  1
  O  O356  1  0.87910457  0.49960452  0.49608251  1
  O  O357  1  0.87888963  0.48448693  1.00076953  1
  O  O358  1  0.91090462  0.98468196  0.53014184  1
  O  O359  1  0.87192132  0.99286188  0.98464004  1
  O  O360  1  0.14362942  0.02085343  0.00832182  1
  O  O361  1  0.10822537  -0.00740680  0.52580451  1
  O  O362  1  0.05610214  0.47861002  -0.04114495  1
  O  O363  1  0.10206232  0.49816022  0.49859691  1
  O  O364  1  0.63989740  0.01510230  0.01229714  1
  O  O365  1  0.60936557  -0.00443158  0.52069540  1
  O  O366  1  0.62764253  0.50882446  0.00714824  1
  O  O367  1  0.62852842  0.52346506  0.49153490  1
  O  O368  1  0.36880767  0.40099918  0.10627057  1
  O  O369  1  0.35074764  0.39289869  0.58760455  1
  O  O370  1  0.36898027  0.84895505  0.11906771  1
  O  O371  1  0.36093824  0.89550461  0.62313508  1
  O  O372  1  0.85204758  0.35156114  0.15498797  1
  O  O373  1  0.86587565  0.36383476  0.61624229  1
  O  O374  1  0.87364604  0.87084391  0.11205284  1
  O  O375  1  0.86552701  0.86472030  0.62580970  1
  O  O376  1  0.16065931  0.04680758  0.35111388  1
  O  O377  1  0.12565455  0.14679474  0.88716411  1
  O  O378  1  0.13604950  0.62860489  0.35354305  1
  O  O379  1  0.12567043  0.62388893  0.84761785  1
  O  O380  1  0.62643589  0.12836581  0.37138192  1
  O  O381  1  0.62062475  0.10305408  0.86682648  1
  O  O382  1  0.61964310  0.62700489  0.38693913  1
  O  O383  1  0.62760607  0.64264123  0.88630078  1
