# generated using pymatgen
data_VZnO4
_symmetry_space_group_name_H-M   'P 1'
_cell_length_a   16.93033354
_cell_length_b   16.88836516
_cell_length_c   16.98910360
_cell_angle_alpha   89.75802007
_cell_angle_beta   89.53835572
_cell_angle_gamma   88.62136974
_symmetry_Int_Tables_number   1
_chemical_formula_structural   VZnO4
_chemical_formula_sum   'V64 Zn64 O256'
_cell_volume   4856.01737550
_cell_formula_units_Z   64
loop_
 _symmetry_equiv_pos_site_id
 _symmetry_equiv_pos_as_xyz
  1  'x, y, z'
loop_
 _atom_site_type_symbol
 _atom_site_label
 _atom_site_symmetry_multiplicity
 _atom_site_fract_x
 _atom_site_fract_y
 _atom_site_fract_z
 _atom_site_occupancy
  V  V0  1  0.05005024  0.27893334  0.26074033  1
  V  V1  1  0.50586603  0.62767318  0.12322474  1
  V  V2  1  0.46474308  0.48501977  0.49162219  1
  V  V3  1  0.50268700  0.75581694  0.26562935  1
  V  V4  1  0.50193958  0.26384862  0.74419950  1
  V  V5  1  0.77242297  0.49171476  0.21789238  1
  V  V6  1  0.37098700  0.86504229  0.50129599  1
  V  V7  1  0.74803338  0.60137731  0.85261249  1
  V  V8  1  0.38625735  0.52477789  0.87733564  1
  V  V9  1  0.13778341  -0.00696849  0.62035878  1
  V  V10  1  0.49767567  0.88422450  0.88347884  1
  V  V11  1  0.62614014  0.86681883  0.72183858  1
  V  V12  1  0.51705988  0.49979047  0.00299834  1
  V  V13  1  0.14160348  0.63056194  0.53365484  1
  V  V14  1  0.87269620  -0.01605939  0.37526085  1
  V  V15  1  0.50478153  -0.00279015  0.50506660  1
  V  V16  1  0.12284505  0.13586758  0.49636236  1
  V  V17  1  0.62652550  0.25612190  0.38467640  1
  V  V18  1  0.37336205  0.62572978  0.25649055  1
  V  V19  1  0.23312214  0.51157849  0.76488829  1
  V  V20  1  0.38302353  0.25406890  0.13946578  1
  V  V21  1  0.23220994  0.00406921  0.25783291  1
  V  V22  1  0.62191079  0.00019948  0.11852323  1
  V  V23  1  0.75167718  0.13675549  0.38108154  1
  V  V24  1  0.74342998  0.25316232  -0.01278083  1
  V  V25  1  0.24907479  0.25464619  -0.01523720  1
  V  V26  1  0.74281535  0.75551087  0.47615658  1
  V  V27  1  -0.01411161  0.63939466  0.08659224  1
  V  V28  1  0.14140081  0.72863710  0.37609188  1
  V  V29  1  0.25252402  0.51208636  0.25074947  1
  V  V30  1  0.87716699  0.12889987  0.23611568  1
  V  V31  1  0.24942706  0.38460676  0.12409596  1
  V  V32  1  0.63546482  0.65508635  0.00114113  1
  V  V33  1  0.89013873  0.72454964  0.61176092  1
  V  V34  1  0.26087761  0.09629497  0.88025904  1
  V  V35  1  0.01977129  0.87333542  0.36294235  1
  V  V36  1  0.13529146  0.52570473  0.09855573  1
  V  V37  1  0.25665127  0.85864853  0.63282240  1
  V  V38  1  0.24283103  0.64673647  0.88638246  1
  V  V39  1  0.50113445  0.63032117  0.61334880  1
  V  V40  1  0.23668300  0.76785089  0.00155016  1
  V  V41  1  0.23973094  0.88610080  0.13657958  1
  V  V42  1  0.49702707  0.12600427  0.16113333  1
  V  V43  1  0.74822990  -0.00642577  0.24863384  1
  V  V44  1  0.62571848  0.87062333  0.26653382  1
  V  V45  1  0.38552735  0.37995485  -0.01075874  1
  V  V46  1  0.73286340  0.01753253  0.71581995  1
  V  V47  1  0.38245703  0.76493633  0.11686722  1
  V  V48  1  0.36509032  0.12342543  0.73437114  1
  V  V49  1  0.87349919  0.26205614  0.62210583  1
  V  V50  1  0.01386049  0.50728551  0.54653800  1
  V  V51  1  0.89596968  0.48358370  0.89673600  1
  V  V52  1  0.63163409  0.37141302  0.23374826  1
  V  V53  1  0.47388192  0.36954280  0.35999662  1
  V  V54  1  0.51682834  0.14285164  0.60145051  1
  V  V55  1  0.90066568  0.49554026  0.39509431  1
  V  V56  1  0.25353831  0.13656879  0.37900378  1
  V  V57  1  -0.00691813  0.24006182  0.76862080  1
  V  V58  1  0.00490265  0.72478332  0.25263433  1
  V  V59  1  -0.01612347  0.11016723  0.64333681  1
  V  V60  1  0.10178024  0.88239437  0.77018356  1
  V  V61  1  0.00073399  -0.00871502  0.49691519  1
  V  V62  1  0.38113770  -0.00663687  0.36988273  1
  V  V63  1  0.48948772  0.75027433  0.75659468  1
  Zn  Zn64  1  0.18859692  0.19779038  0.19371565  1
  Zn  Zn65  1  0.17985833  0.17296551  0.69346889  1
  Zn  Zn66  1  0.18676007  0.69595320  0.18423771  1
  Zn  Zn67  1  0.18790551  0.70084400  0.71015039  1
  Zn  Zn68  1  0.68826524  0.18136580  0.18855502  1
  Zn  Zn69  1  0.68476789  0.20734581  0.66707887  1
  Zn  Zn70  1  0.68372579  0.66953581  0.20250027  1
  Zn  Zn71  1  0.67012706  0.67383291  0.67642156  1
  Zn  Zn72  1  0.24074699  0.33675381  0.32905221  1
  Zn  Zn73  1  0.29591526  0.31153352  0.77757687  1
  Zn  Zn74  1  0.31410579  0.81442797  0.31337364  1
  Zn  Zn75  1  0.31723645  0.82946021  0.81327968  1
  Zn  Zn76  1  0.82002949  0.31859306  0.30314067  1
  Zn  Zn77  1  0.84561028  0.32678863  0.81845410  1
  Zn  Zn78  1  0.81067613  0.78945159  0.28841254  1
  Zn  Zn79  1  0.71397548  0.79845358  0.85843775  1
  Zn  Zn80  1  0.15579923  0.41849870  0.49110276  1
  Zn  Zn81  1  0.20851983  0.43803755  0.92325532  1
  Zn  Zn82  1  0.19297608  0.93303665  0.43990043  1
  Zn  Zn83  1  0.18471332  0.94570310  0.94997195  1
  Zn  Zn84  1  0.68849486  0.45849811  0.37520796  1
  Zn  Zn85  1  0.73320890  0.46522046  1.00016010  1
  Zn  Zn86  1  0.69041529  0.93172613  0.44531663  1
  Zn  Zn87  1  0.63982594  0.96048536  0.91075492  1
  Zn  Zn88  1  0.28806794  0.09248607  0.08735593  1
  Zn  Zn89  1  0.31637484  0.06264061  0.55110299  1
  Zn  Zn90  1  0.32209322  0.57608540  0.06081941  1
  Zn  Zn91  1  0.31810450  0.55983841  0.58533508  1
  Zn  Zn92  1  0.83382013  0.02407162  0.06658214  1
  Zn  Zn93  1  0.81225883  0.05845629  0.55521791  1
  Zn  Zn94  1  0.81934737  0.57540228  0.07287973  1
  Zn  Zn95  1  0.82430755  0.55632926  0.56402070  1
  Zn  Zn96  1  0.44075273  0.43840871  0.18323722  1
  Zn  Zn97  1  0.46882995  0.46918028  0.69425377  1
  Zn  Zn98  1  0.44087004  0.93953646  0.18998794  1
  Zn  Zn99  1  0.43824751  0.93616723  0.67953975  1
  Zn  Zn100  1  0.96197564  0.43257996  0.15481488  1
  Zn  Zn101  1  0.94492910  0.42568751  0.70966291  1
  Zn  Zn102  1  0.97278401  0.97657614  0.20464266  1
  Zn  Zn103  1  0.89069253  0.90657846  0.76624097  1
  Zn  Zn104  1  0.05575107  0.09658275  0.31800620  1
  Zn  Zn105  1  0.08577808  0.08165360  0.79892286  1
  Zn  Zn106  1  0.07790524  0.54338909  0.31482901  1
  Zn  Zn107  1  0.06443460  0.57702405  0.84672587  1
  Zn  Zn108  1  0.57094051  0.06016603  0.32482327  1
  Zn  Zn109  1  0.52947535  0.04495948  0.77205796  1
  Zn  Zn110  1  0.55025404  0.54704422  0.30378247  1
  Zn  Zn111  1  0.56788631  0.58195177  0.82037511  1
  Zn  Zn112  1  0.45182417  0.17253753  0.40228650  1
  Zn  Zn113  1  0.41575588  0.21479870  0.89822215  1
  Zn  Zn114  1  0.43513979  0.67706182  0.43983453  1
  Zn  Zn115  1  0.44552688  0.69914920  0.94125264  1
  Zn  Zn116  1  0.93693007  0.18469292  0.42458723  1
  Zn  Zn117  1  0.91676345  0.14157764  0.93998077  1
  Zn  Zn118  1  0.94497503  0.67845573  0.44199452  1
  Zn  Zn119  1  0.88847478  0.68938952  0.90585505  1
  Zn  Zn120  1  0.06567579  0.29757549  0.07522840  1
  Zn  Zn121  1  0.01031567  0.29947851  0.53379754  1
  Zn  Zn122  1  0.05622291  0.82537191  0.08106235  1
  Zn  Zn123  1  0.06631913  0.80814052  0.56026593  1
  Zn  Zn124  1  0.55741839  0.30996893  0.06639087  1
  Zn  Zn125  1  0.55301722  0.33639096  0.55568004  1
  Zn  Zn126  1  0.56312016  0.82458800  0.06922504  1
  Zn  Zn127  1  0.56280274  0.80575491  0.54874503  1
  O  O128  1  0.18332913  0.12114611  0.11900374  1
  O  O129  1  0.11604110  0.10926438  0.61341267  1
  O  O130  1  0.14643742  0.62577051  0.10178040  1
  O  O131  1  0.12523512  0.65363729  0.62882321  1
  O  O132  1  0.60553345  0.11525800  0.14066214  1
  O  O133  1  0.61462208  0.13728737  0.59919144  1
  O  O134  1  0.61207484  0.63789019  0.11818114  1
  O  O135  1  0.59749349  0.60162060  0.62211054  1
  O  O136  1  0.37815620  0.36543176  0.34886420  1
  O  O137  1  0.38215674  0.39626964  0.89135276  1
  O  O138  1  0.36986441  0.88484008  0.38703312  1
  O  O139  1  0.39792444  0.88553356  0.86654738  1
  O  O140  1  0.87138233  0.38742922  0.37553229  1
  O  O141  1  0.90145977  0.37700765  0.90635978  1
  O  O142  1  0.89111480  0.88480043  0.37105448  1
  O  O143  1  0.83502541  0.90054687  0.92848930  1
  O  O144  1  0.25707103  -0.00105365  0.36739344  1
  O  O145  1  0.27493690  -0.00065787  0.90116674  1
  O  O146  1  0.25174933  0.51014992  0.34595146  1
  O  O147  1  0.26725740  0.53253341  0.88603231  1
  O  O148  1  0.76086244  0.00095484  0.37341932  1
  O  O149  1  0.68897739  0.06534386  0.87310187  1
  O  O150  1  0.79452164  0.48426940  0.34853892  1
  O  O151  1  0.73078150  0.50780065  0.89035906  1
  O  O152  1  0.25382581  0.49846382  0.11563265  1
  O  O153  1  0.25858753  0.50938969  0.66870596  1
  O  O154  1  0.26257351  0.99142654  0.14546265  1
  O  O155  1  0.23753830  0.99792048  0.61410393  1
  O  O156  1  0.74486913  0.49625808  0.11814170  1
  O  O157  1  0.75344897  0.47133536  0.60971624  1
  O  O158  1  0.73423010  1.00337565  0.13762356  1
  O  O159  1  0.75331528  0.99192560  0.62000754  1
  O  O160  1  0.01126286  0.37135758  0.24583965  1
  O  O161  1  0.00942271  0.33871797  0.76382224  1
  O  O162  1  0.01664287  0.88609215  0.26279731  1
  O  O163  1  0.00140751  0.89044560  0.75981809  1
  O  O164  1  0.51390890  0.38642997  0.25785473  1
  O  O165  1  0.46695296  0.35801123  0.72306947  1
  O  O166  1  0.50598576  0.86272907  0.25502052  1
  O  O167  1  0.50813718  0.86844300  0.74521262  1
  O  O168  1  0.49437346  0.12812604  0.25998420  1
  O  O169  1  0.49507493  0.14327464  0.71500493  1
  O  O170  1  0.49544788  0.63286380  0.24245533  1
  O  O171  1  0.50464307  0.64547861  0.74433347  1
  O  O172  1  0.97974488  0.08785844  0.23742342  1
  O  O173  1  0.98126903  0.08855774  0.74122293  1
  O  O174  1  1.00038191  0.62706103  0.26367526  1
  O  O175  1  1.00433751  0.66511635  0.78105174  1
  O  O176  1  0.37974347  0.27015481  -0.00607381  1
  O  O177  1  0.32244863  0.28273754  0.52165301  1
  O  O178  1  0.37947314  0.76140811  0.01616765  1
  O  O179  1  0.38448148  0.76645708  0.49072026  1
  O  O180  1  0.84410049  0.22658494  -0.00600201  1
  O  O181  1  0.91167648  0.24824748  0.51606788  1
  O  O182  1  0.87640010  0.85036497  -0.12025582  1
  O  O183  1  0.86951225  0.73980969  0.50779199  1
  O  O184  1  0.10890803  0.23401190  0.50933767  1
  O  O185  1  0.15131082  0.25950141  1.00791332  1
  O  O186  1  0.12172565  0.73410127  0.48662834  1
  O  O187  1  0.13761255  0.77146013  1.00837761  1
  O  O188  1  0.62269081  0.25901522  0.48220977  1
  O  O189  1  0.63674354  0.27667565  0.98973791  1
  O  O190  1  0.64016625  0.75307759  0.48379339  1
  O  O191  1  0.63259852  0.75469496  1.00684335  1
  O  O192  1  0.49476615  0.23463207  0.12317200  1
  O  O193  1  0.49541595  0.24446617  0.59964112  1
  O  O194  1  0.49236456  0.75116380  0.13308704  1
  O  O195  1  0.49270242  0.73291905  0.61096899  1
  O  O196  1  1.04546091  0.23179579  0.17073159  1
  O  O197  1  0.99423904  0.21883934  0.64631064  1
  O  O198  1  1.02423803  0.72694980  0.13790487  1
  O  O199  1  0.98672328  0.75169787  0.61545760  1
  O  O200  1  0.01004230  0.22004461  0.33961182  1
  O  O201  1  -0.03558365  0.20739661  0.86255586  1
  O  O202  1  0.01171840  0.75844653  0.36787977  1
  O  O203  1  -0.02949254  0.72269792  0.81830288  1
  O  O204  1  0.51341637  0.25896664  0.36561671  1
  O  O205  1  0.50657954  0.25148910  0.84557186  1
  O  O206  1  0.49864850  0.74020541  0.36242267  1
  O  O207  1  0.49881309  0.76031790  0.86106212  1
  O  O208  1  0.23421824  0.12184088  0.49187187  1
  O  O209  1  0.27378223  0.14619779  0.98187103  1
  O  O210  1  0.24260306  0.62238796  0.52471236  1
  O  O211  1  0.26332789  0.65765564  0.99832471  1
  O  O212  1  0.75617616  0.12267652  0.47887054  1
  O  O213  1  0.71530352  0.16850715  0.93902271  1
  O  O214  1  0.74801499  0.64560618  0.53280977  1
  O  O215  1  0.73151809  0.62890787  1.01888516  1
  O  O216  1  0.26893855  0.37609678  0.00553294  1
  O  O217  1  0.21028463  0.38080059  0.59502369  1
  O  O218  1  0.25200313  0.87572929  0.02055380  1
  O  O219  1  0.26306354  0.87474197  0.51123846  1
  O  O220  1  0.75351737  0.35423154  0.01617957  1
  O  O221  1  0.69975631  0.43630826  0.56298823  1
  O  O222  1  0.75563429  0.88957852  -0.07048740  1
  O  O223  1  0.75811784  0.85563012  0.49217882  1
  O  O224  1  0.14786534  0.51912815  0.22418804  1
  O  O225  1  0.13303698  0.52374904  0.77047416  1
  O  O226  1  0.13454263  1.00794804  0.26113875  1
  O  O227  1  0.12002719  0.99137248  0.72540802  1
  O  O228  1  0.63851773  0.48170875  0.26625338  1
  O  O229  1  0.57652892  0.49370081  0.74504754  1
  O  O230  1  0.63103965  0.98964356  0.25490058  1
  O  O231  1  0.63063789  0.98375671  0.73955756  1
  O  O232  1  0.37420031  -0.00516728  0.26822976  1
  O  O233  1  0.40744043  0.02610357  0.74603574  1
  O  O234  1  0.37266016  0.52053052  0.23477307  1
  O  O235  1  0.38499829  0.50404743  0.78063083  1
  O  O236  1  0.86293659  -0.00392602  0.26204220  1
  O  O237  1  0.81378335  -0.01246524  0.77276881  1
  O  O238  1  0.87313467  0.48094183  0.20725781  1
  O  O239  1  0.86496302  0.44131672  0.79189110  1
  O  O240  1  0.17068678  0.40077939  0.38705804  1
  O  O241  1  0.10943295  0.37393958  0.88247472  1
  O  O242  1  0.12079322  0.86385773  0.38177999  1
  O  O243  1  0.12270825  0.90615174  0.86491732  1
  O  O244  1  0.63112540  0.36139912  0.36664031  1
  O  O245  1  0.62252278  0.42194737  0.77820939  1
  O  O246  1  0.61988342  0.87761973  0.36386428  1
  O  O247  1  0.61478390  0.86155706  0.85929817  1
  O  O248  1  0.38737163  0.14047689  0.12675865  1
  O  O249  1  0.35298467  0.12946251  0.63298048  1
  O  O250  1  0.38801251  0.64550873  0.12886033  1
  O  O251  1  0.41887808  0.57140413  0.64322958  1
  O  O252  1  0.86234710  0.10695723  0.14001326  1
  O  O253  1  0.88673310  0.11959752  0.61613621  1
  O  O254  1  0.89523969  0.63469669  0.12621719  1
  O  O255  1  0.88716024  0.62408719  0.62917939  1
  O  O256  1  0.27030980  0.26920724  0.11331536  1
  O  O257  1  0.23007828  0.27608493  0.67899210  1
  O  O258  1  0.26154761  0.76654786  0.12189934  1
  O  O259  1  0.25537870  0.75998322  0.63248142  1
  O  O260  1  0.73172064  0.21505576  0.08427405  1
  O  O261  1  0.77451626  0.25177179  0.61474057  1
  O  O262  1  0.76261096  0.75101898  0.17733895  1
  O  O263  1  0.75298527  0.70602037  0.59461888  1
  O  O264  1  0.26670252  0.23343308  0.37756178  1
  O  O265  1  0.25523301  0.26789810  0.88535390  1
  O  O266  1  0.23872288  0.74872087  0.36744668  1
  O  O267  1  0.25888847  0.76086516  0.89268001  1
  O  O268  1  0.74765491  0.24156841  0.37015333  1
  O  O269  1  0.75670409  0.29180676  0.88694870  1
  O  O270  1  0.76265586  0.74082875  0.37680453  1
  O  O271  1  0.77535214  0.70676996  0.88394265  1
  O  O272  1  0.00789217  0.09618294  0.01151560  1
  O  O273  1  0.01511480  0.10876305  0.48709727  1
  O  O274  1  -0.03201543  0.66613282  -0.00962154  1
  O  O275  1  0.01860276  0.60901232  0.50668251  1
  O  O276  1  0.45438894  0.06752298  -0.01593019  1
  O  O277  1  0.48537587  0.11565370  0.49910243  1
  O  O278  1  0.51717960  0.62719670  0.00642231  1
  O  O279  1  0.48591419  0.59793765  0.50559819  1
  O  O280  1  0.48149361  0.37175128  0.46775207  1
  O  O281  1  0.49629505  0.39112864  1.00587322  1
  O  O282  1  0.48516294  0.88865041  0.51061438  1
  O  O283  1  0.50580149  0.87390830  0.98371472  1
  O  O284  1  1.04066208  0.40457821  0.52181273  1
  O  O285  1  1.05531238  0.35440500  0.92757229  1
  O  O286  1  1.00859404  0.88730719  0.48775155  1
  O  O287  1  0.95730223  0.88481511  1.05641630  1
  O  O288  1  0.49177127  0.48456388  0.38254413  1
  O  O289  1  0.49598231  0.51979193  0.89670874  1
  O  O290  1  0.48574513  1.00679903  0.38366648  1
  O  O291  1  0.52558600  0.98700512  0.87059408  1
  O  O292  1  0.99787965  0.48582892  0.36771392  1
  O  O293  1  0.99194836  0.51090247  0.89654727  1
  O  O294  1  0.99653334  0.99063496  0.37859377  1
  O  O295  1  1.04281326  1.03390607  0.97577800  1
  O  O296  1  -0.06647157  -0.04862850  0.09827082  1
  O  O297  1  0.00613681  0.00385108  0.60367546  1
  O  O298  1  0.02359570  0.53638210  0.10926540  1
  O  O299  1  -0.00260820  0.50434520  0.64460335  1
  O  O300  1  0.50427504  0.01822855  0.13744884  1
  O  O301  1  0.49631573  0.01810891  0.60784101  1
  O  O302  1  0.49452933  0.51725621  0.11146314  1
  O  O303  1  0.51161677  0.45402804  0.57986077  1
  O  O304  1  0.26687925  0.39902588  0.22842123  1
  O  O305  1  0.24438012  0.41175431  0.80114967  1
  O  O306  1  0.25131264  0.88715958  0.24579181  1
  O  O307  1  0.25051526  0.88201862  0.73309651  1
  O  O308  1  0.74380783  0.38045879  0.23655176  1
  O  O309  1  0.69150367  0.41613685  0.75312135  1
  O  O310  1  0.73621773  0.88109144  0.25903576  1
  O  O311  1  0.72302740  0.85215155  0.74929646  1
  O  O312  1  0.24889466  0.11355294  0.27047154  1
  O  O313  1  0.25879136  0.11490162  0.76162581  1
  O  O314  1  0.26804787  0.62694134  0.23485233  1
  O  O315  1  0.25132461  0.63220414  0.77879615  1
  O  O316  1  0.75678548  0.11226309  0.25849446  1
  O  O317  1  0.72996553  0.11751258  0.72312313  1
  O  O318  1  0.74963834  0.58944712  0.24679354  1
  O  O319  1  0.71806154  0.60470705  0.75712390  1
  O  O320  1  0.36042305  0.10744779  0.38740076  1
  O  O321  1  0.36580786  0.12521733  0.85736081  1
  O  O322  1  0.37644976  0.62809659  0.35498211  1
  O  O323  1  0.37545044  0.62871465  0.88648768  1
  O  O324  1  0.86518850  0.11604739  0.36144651  1
  O  O325  1  0.84378645  0.06171931  0.96293104  1
  O  O326  1  0.88559404  0.59686194  0.38679185  1
  O  O327  1  0.85702174  0.58493525  0.85397654  1
  O  O328  1  0.14927027  0.38991365  0.11836998  1
  O  O329  1  0.17410889  0.33027048  0.63936096  1
  O  O330  1  0.14002370  0.88264137  0.13430615  1
  O  O331  1  0.13840127  0.88152273  0.61703226  1
  O  O332  1  0.61383815  0.37805468  0.13619607  1
  O  O333  1  0.66208717  0.37827701  0.59981912  1
  O  O334  1  0.61126181  0.89594482  0.14251531  1
  O  O335  1  0.62198193  0.87141860  0.62203988  1
  O  O336  1  0.15677485  0.27716340  0.26750418  1
  O  O337  1  0.09133981  0.19607261  0.76390439  1
  O  O338  1  0.11731797  0.74143572  0.26436778  1
  O  O339  1  0.12522922  0.78419005  0.75808131  1
  O  O340  1  0.63723623  0.26549115  0.25039164  1
  O  O341  1  0.60164533  0.26622914  0.71873478  1
  O  O342  1  0.61387965  0.75872078  0.24779660  1
  O  O343  1  0.60599454  0.75633527  0.73004976  1
  O  O344  1  0.37439849  0.25802312  0.23391017  1
  O  O345  1  0.37932342  0.23437537  0.75018756  1
  O  O346  1  0.38661974  0.74542519  0.24486512  1
  O  O347  1  0.39015110  0.76262643  0.74507483  1
  O  O348  1  0.87038932  0.22998995  0.24368668  1
  O  O349  1  0.88097243  0.24947782  0.73636448  1
  O  O350  1  0.91227724  0.76649299  0.24666876  1
  O  O351  1  0.84508651  0.75211907  0.71433100  1
  O  O352  1  0.36626761  0.48802538  0.50313095  1
  O  O353  1  0.38560737  0.49894855  0.99710308  1
  O  O354  1  0.37964309  0.98899956  0.48935759  1
  O  O355  1  0.40198085  1.02237122  1.00442936  1
  O  O356  1  0.90713317  0.49433932  0.50463994  1
  O  O357  1  0.85461186  0.50006557  0.99203784  1
  O  O358  1  0.89039759  1.00459190  0.48317446  1
  O  O359  1  0.78960790  0.83444560  1.07515720  1
  O  O360  1  0.09865763  -0.00333883  0.02078733  1
  O  O361  1  0.11870731  0.00109113  0.50437072  1
  O  O362  1  0.14274127  0.50073819  0.00206220  1
  O  O363  1  0.12633559  0.52108481  0.53751467  1
  O  O364  1  0.62766837  0.00087680  0.02033277  1
  O  O365  1  0.60311379  -0.00546266  0.48479256  1
  O  O366  1  0.61548524  0.49545478  0.00287164  1
  O  O367  1  0.65046451  0.55620102  0.43855630  1
  O  O368  1  0.38036739  0.36935422  0.11372365  1
  O  O369  1  0.35343674  0.32080878  0.57358966  1
  O  O370  1  0.37187713  0.86690196  0.13614510  1
  O  O371  1  0.36387067  0.88053831  0.61423850  1
  O  O372  1  0.97797827  0.36565561  0.06830234  1
  O  O373  1  0.89457418  0.36018928  0.62599710  1
  O  O374  1  0.79955971  0.76518306  0.10169872  1
  O  O375  1  0.85643316  0.82373043  0.67732937  1
  O  O376  1  0.13931557  0.12404053  0.38778088  1
  O  O377  1  0.15739354  0.10182639  0.88101072  1
  O  O378  1  0.13243116  0.62751819  0.37847750  1
  O  O379  1  0.14411111  0.64186143  0.89595040  1
  O  O380  1  0.64041069  0.14081392  0.36601506  1
  O  O381  1  0.63783640  0.11774779  0.86010236  1
  O  O382  1  0.61755255  0.60756431  0.39138982  1
  O  O383  1  0.63596932  0.63493299  0.89515662  1
