# generated using pymatgen
data_VZnO4
_symmetry_space_group_name_H-M   'P 1'
_cell_length_a   16.91468902
_cell_length_b   16.94361379
_cell_length_c   16.85449581
_cell_angle_alpha   89.93869162
_cell_angle_beta   89.88355760
_cell_angle_gamma   89.97527087
_symmetry_Int_Tables_number   1
_chemical_formula_structural   VZnO4
_chemical_formula_sum   'V64 Zn64 O256'
_cell_volume   4830.41719120
_cell_formula_units_Z   64
loop_
 _symmetry_equiv_pos_site_id
 _symmetry_equiv_pos_as_xyz
  1  'x, y, z'
loop_
 _atom_site_type_symbol
 _atom_site_label
 _atom_site_symmetry_multiplicity
 _atom_site_fract_x
 _atom_site_fract_y
 _atom_site_fract_z
 _atom_site_occupancy
  V  V0  1  0.24357661  0.74423912  0.03648184  1
  V  V1  1  0.87629690  0.13251073  0.74065604  1
  V  V2  1  0.74224174  0.49579018  0.24183694  1
  V  V3  1  0.87981756  0.61346396  0.76314675  1
  V  V4  1  0.86856874  0.75338953  0.63396502  1
  V  V5  1  0.62851849  0.88340669  0.25495578  1
  V  V6  1  0.62442214  0.13075732  0.50320320  1
  V  V7  1  0.38478426  0.87298956  0.49195261  1
  V  V8  1  -0.01827476  0.49181690  -0.00998685  1
  V  V9  1  0.74709863  0.74956808  0.00582107  1
  V  V10  1  0.61765775  0.74255146  0.38341259  1
  V  V11  1  -0.01682808  0.25825399  0.24155894  1
  V  V12  1  0.38254001  0.37800742  0.50136572  1
  V  V13  1  0.25007281  0.00013368  0.76946382  1
  V  V14  1  0.87941823  0.87831169  -0.00108365  1
  V  V15  1  0.10906738  0.61570724  0.04794321  1
  V  V16  1  0.58070899  0.87999213  0.76236051  1
  V  V17  1  0.22282382  0.65045579  0.84101049  1
  V  V18  1  0.23926151  0.38224680  0.62901330  1
  V  V19  1  0.11921753  0.86441178  0.73797642  1
  V  V20  1  0.74779022  0.88823453  0.13155169  1
  V  V21  1  0.01134976  0.86490752  0.86576466  1
  V  V22  1  0.75003356  0.75788735  0.50789997  1
  V  V23  1  -0.00023917  0.13811036  0.62741369  1
  V  V24  1  0.39731058  0.63343352  0.74747832  1
  V  V25  1  0.74978149  0.62602913  0.37816442  1
  V  V26  1  0.01430750  0.00462838  -0.00450157  1
  V  V27  1  0.50957153  0.38334294  0.35387331  1
  V  V28  1  0.89300250  0.75416917  0.13490903  1
  V  V29  1  -0.00945849  0.62292544  0.61180739  1
  V  V30  1  0.36790919  0.62383477  0.25309644  1
  V  V31  1  0.13182854  0.14108841  -0.00622224  1
  V  V32  1  0.10677357  0.49724006  0.61913370  1
  V  V33  1  0.75214072  0.62114778  0.88035504  1
  V  V34  1  0.27965222  0.37830010  0.08895405  1
  V  V35  1  0.48465304  0.13662500  0.62539027  1
  V  V36  1  0.12599867  0.39323676  0.24583826  1
  V  V37  1  0.76248768  0.37268312  0.11791395  1
  V  V38  1  0.62598276  0.25078990  0.36026722  1
  V  V39  1  0.25226614  0.25083630  0.49910162  1
  V  V40  1  0.60789940  -0.00237874  0.62803516  1
  V  V41  1  0.25947194  0.87420385  0.62296386  1
  V  V42  1  0.12724555  0.00841213  0.62330837  1
  V  V43  1  0.50304456  0.74360873  0.24235790  1
  V  V44  1  0.87790706  0.49856238  0.38735963  1
  V  V45  1  0.79770449  0.25935888  -0.00868501  1
  V  V46  1  0.62698357  0.12478219  -0.00601792  1
  V  V47  1  0.12119356  0.12170343  0.49129920  1
  V  V48  1  0.76175805  -0.01816493  0.72823691  1
  V  V49  1  0.88842933  0.62647971  0.24748523  1
  V  V50  1  0.86507495  0.10994582  0.26015739  1
  V  V51  1  0.09157616  0.75884253  0.36853987  1
  V  V52  1  0.12693931  0.24986547  0.36682729  1
  V  V53  1  0.23782808  0.74295746  0.49712223  1
  V  V54  1  0.61122017  0.26206066  0.86412276  1
  V  V55  1  0.36357714  0.02442385  0.37990829  1
  V  V56  1  0.37669038  0.12177567  0.77160903  1
  V  V57  1  -0.01007988  0.37379265  0.38986757  1
  V  V58  1  0.51376635  0.61506873  0.11353634  1
  V  V59  1  0.87389139  -0.00036779  0.86321633  1
  V  V60  1  0.75901167  0.25822360  0.51449050  1
  V  V61  1  -0.01502995  0.13047298  0.11594849  1
  V  V62  1  0.61171402  0.76005948  0.88398798  1
  V  V63  1  0.36106039  0.50046717  0.37419588  1
  Zn  Zn64  1  0.16052008  0.22229705  0.14442971  1
  Zn  Zn65  1  0.20477638  0.18331752  0.68262533  1
  Zn  Zn66  1  0.17288328  0.69146414  0.20779022  1
  Zn  Zn67  1  0.18130732  0.68330459  0.66527062  1
  Zn  Zn68  1  0.70088466  0.19596747  0.17434435  1
  Zn  Zn69  1  0.69160914  0.17344004  0.68703652  1
  Zn  Zn70  1  0.69041520  0.68559015  0.18890562  1
  Zn  Zn71  1  0.69058759  0.70256701  0.70774100  1
  Zn  Zn72  1  0.30250064  0.29920854  0.24123141  1
  Zn  Zn73  1  0.34169152  0.32449798  0.78775793  1
  Zn  Zn74  1  0.30912646  0.80237012  0.31639200  1
  Zn  Zn75  1  0.38462093  0.75655383  0.90598106  1
  Zn  Zn76  1  0.80446741  0.31063933  0.31997308  1
  Zn  Zn77  1  0.77033955  0.28869429  0.77715524  1
  Zn  Zn78  1  0.81319838  0.81608315  0.31781966  1
  Zn  Zn79  1  0.81637207  0.80983250  0.81469480  1
  Zn  Zn80  1  0.18078961  0.43836906  0.43905794  1
  Zn  Zn81  1  0.23332579  0.48881284  0.96089280  1
  Zn  Zn82  1  0.19092984  0.93120340  0.42858832  1
  Zn  Zn83  1  0.23728797  0.85914966  0.90107350  1
  Zn  Zn84  1  0.69700389  0.42810764  0.42961502  1
  Zn  Zn85  1  0.73235125  0.40994443  0.90624027  1
  Zn  Zn86  1  0.64346345  0.91065692  0.46413523  1
  Zn  Zn87  1  0.69183303  0.94150760  0.93174096  1
  Zn  Zn88  1  0.29070145  0.02572262  0.03910200  1
  Zn  Zn89  1  0.31312675  0.05864221  0.55467141  1
  Zn  Zn90  1  0.30152740  0.56357952  0.09471592  1
  Zn  Zn91  1  0.30727746  0.55572809  0.56001182  1
  Zn  Zn92  1  0.79856525  0.06706955  0.04733016  1
  Zn  Zn93  1  0.81221711  0.06275646  0.55341595  1
  Zn  Zn94  1  0.82148752  0.56329042  0.06534374  1
  Zn  Zn95  1  0.80660028  0.56804109  0.56433361  1
  Zn  Zn96  1  0.43790271  0.44374075  0.17967330  1
  Zn  Zn97  1  0.43057968  0.44966516  0.67569508  1
  Zn  Zn98  1  0.45263222  0.92191349  0.30433842  1
  Zn  Zn99  1  0.41969428  0.92673111  0.82336893  1
  Zn  Zn100  1  0.94231280  0.44717473  0.18251930  1
  Zn  Zn101  1  0.93382060  0.44874414  0.70399157  1
  Zn  Zn102  1  0.93871234  0.94909685  0.18506738  1
  Zn  Zn103  1  0.94693888  0.93312226  0.66125306  1
  Zn  Zn104  1  0.06830522  0.07264932  0.28783275  1
  Zn  Zn105  1  0.06511986  0.06675620  0.81174712  1
  Zn  Zn106  1  0.06623883  0.56963699  0.33194348  1
  Zn  Zn107  1  0.07004263  0.55315946  0.80857416  1
  Zn  Zn108  1  0.56294989  0.05107618  0.34456780  1
  Zn  Zn109  1  0.57367336  0.06998541  0.80864111  1
  Zn  Zn110  1  0.56228358  0.56121368  0.31338171  1
  Zn  Zn111  1  0.57129281  0.57339124  0.83676000  1
  Zn  Zn112  1  0.41066980  0.22214501  0.37175083  1
  Zn  Zn113  1  0.46764099  0.17324622  0.92703970  1
  Zn  Zn114  1  0.42368878  0.69583923  0.43681584  1
  Zn  Zn115  1  0.40965716  0.58188592  0.94451603  1
  Zn  Zn116  1  0.93645229  0.18356342  0.43588710  1
  Zn  Zn117  1  0.94677966  0.18862743  0.91779629  1
  Zn  Zn118  1  0.93136248  0.69495439  0.43986137  1
  Zn  Zn119  1  0.94907873  0.68094147  0.94114330  1
  Zn  Zn120  1  0.05523778  0.32879952  0.05452205  1
  Zn  Zn121  1  0.06444339  0.30965445  0.56274903  1
  Zn  Zn122  1  0.08692188  0.82291284  0.05002613  1
  Zn  Zn123  1  0.06513512  0.84132755  0.52615986  1
  Zn  Zn124  1  0.59962632  0.32239738  0.05159830  1
  Zn  Zn125  1  0.55908878  0.30359651  0.56711243  1
  Zn  Zn126  1  0.55979099  0.81676395  0.07094711  1
  Zn  Zn127  1  0.45110386  0.80355943  0.63572734  1
  O  O128  1  0.09831196  0.13049204  0.11171105  1
  O  O129  1  0.12212118  0.12772270  0.61380597  1
  O  O130  1  0.11099166  0.61519290  0.15001356  1
  O  O131  1  0.09886145  0.61459251  0.62322172  1
  O  O132  1  0.63827566  0.14899278  0.09363664  1
  O  O133  1  0.61750123  0.11438637  0.62385234  1
  O  O134  1  0.61387025  0.63659886  0.12047290  1
  O  O135  1  0.63304702  0.59016625  0.68043833  1
  O  O136  1  0.39305045  0.39110566  0.38126656  1
  O  O137  1  0.41632947  0.39715627  0.83415969  1
  O  O138  1  0.38313760  0.86526635  0.38518078  1
  O  O139  1  0.35056547  0.85859117  0.87505461  1
  O  O140  1  0.88079671  0.38687691  0.37162665  1
  O  O141  1  0.95877398  0.33106782  0.82355442  1
  O  O142  1  0.87251711  0.89665313  0.38384058  1
  O  O143  1  0.88884399  0.87971230  0.87934147  1
  O  O144  1  0.26160158  0.00302358  0.38411048  1
  O  O145  1  0.23798696  -0.01267028  0.86648922  1
  O  O146  1  0.26217549  0.49611433  0.37733160  1
  O  O147  1  0.24404463  0.55537128  0.86963240  1
  O  O148  1  0.82887447  -0.04677754  0.42066337  1
  O  O149  1  0.77066202  -0.00631918  0.85728428  1
  O  O150  1  0.76132704  0.50575302  0.36607821  1
  O  O151  1  0.73708382  0.52297372  0.89222987  1
  O  O152  1  0.24887644  0.46528455  0.13237059  1
  O  O153  1  0.23255191  0.48640006  0.61574240  1
  O  O154  1  0.26206605  0.96636803  0.13900530  1
  O  O155  1  0.24104175  0.99419492  0.62254314  1
  O  O156  1  0.75684822  0.49769706  0.13580409  1
  O  O157  1  0.70715143  0.49863963  0.58330995  1
  O  O158  1  0.75967818  0.98537603  0.12441574  1
  O  O159  1  0.75876798  0.98750183  0.62555733  1
  O  O160  1  0.00200548  0.36601714  0.25779923  1
  O  O161  1  -0.00578994  0.36695403  0.76109000  1
  O  O162  1  0.10620180  0.91302884  0.22041344  1
  O  O163  1  0.00983953  0.88347034  0.75567636  1
  O  O164  1  0.50276148  0.38210379  0.25555295  1
  O  O165  1  0.47221083  0.40593571  0.77806823  1
  O  O166  1  0.51811832  0.85722107  0.24312871  1
  O  O167  1  0.48979336  0.84135779  0.74243457  1
  O  O168  1  0.45450933  0.09571830  0.14708573  1
  O  O169  1  0.48202509  0.11505817  0.74131147  1
  O  O170  1  0.50316625  0.63525923  0.24671298  1
  O  O171  1  0.49208879  0.59981696  0.76122257  1
  O  O172  1  0.98624798  0.13751556  0.23849837  1
  O  O173  1  0.99442976  0.12410410  0.73556410  1
  O  O174  1  0.98536971  0.62435428  0.25956178  1
  O  O175  1  0.98012049  0.61965324  0.74485194  1
  O  O176  1  0.43439725  0.24325058  0.03128794  1
  O  O177  1  0.35610366  0.26725778  0.47830481  1
  O  O178  1  0.34366757  0.74938444  0.01763817  1
  O  O179  1  0.35729203  0.76270843  0.50120361  1
  O  O180  1  0.89737176  0.25756914  -0.00334242  1
  O  O181  1  0.85637008  0.23779433  0.49425681  1
  O  O182  1  0.87358794  0.76419734  0.01291552  1
  O  O183  1  0.85674598  0.74686981  0.51344711  1
  O  O184  1  0.12878970  0.24465989  0.48626890  1
  O  O185  1  0.12407982  0.24189856  1.01165965  1
  O  O186  1  0.13653445  0.75111814  0.51837065  1
  O  O187  1  0.11889130  0.71878913  1.01624869  1
  O  O188  1  0.63093267  0.23960519  0.50520608  1
  O  O189  1  0.63355287  0.24557142  0.97385042  1
  O  O190  1  0.63475518  0.74639906  0.48442779  1
  O  O191  1  0.64050693  0.76701088  0.99864710  1
  O  O192  1  0.48572076  0.25591443  0.08409042  1
  O  O193  1  0.49898854  0.23561423  0.63668219  1
  O  O194  1  0.49892219  0.74422537  0.13927196  1
  O  O195  1  0.52824323  0.68475420  0.58325642  1
  O  O196  1  0.99483771  0.25018751  0.13754972  1
  O  O197  1  1.00365839  0.23781173  0.62563091  1
  O  O198  1  0.98935896  0.77016961  0.12678632  1
  O  O199  1  0.97425969  0.72939547  0.62327256  1
  O  O200  1  0.00003423  0.26090642  0.36748486  1
  O  O201  1  0.00083903  0.26952702  0.84839637  1
  O  O202  1  -0.01159657  0.76476477  0.37443565  1
  O  O203  1  -0.00454104  0.76835656  0.87874551  1
  O  O204  1  0.51566912  0.26992500  0.37959195  1
  O  O205  1  0.50994207  0.25735595  0.86067757  1
  O  O206  1  0.51421102  0.74052408  0.37402754  1
  O  O207  1  0.51455473  0.75643787  0.89688880  1
  O  O208  1  0.23683904  0.14271070  0.50430052  1
  O  O209  1  0.22945925  0.11443908  1.01296910  1
  O  O210  1  0.25565541  0.64512273  0.51949399  1
  O  O211  1  0.22757644  0.63314166  1.03910875  1
  O  O212  1  0.73082159  0.12889004  0.50626866  1
  O  O213  1  0.77535696  0.15979914  0.98108480  1
  O  O214  1  0.75171238  0.63205502  0.48395475  1
  O  O215  1  0.76119579  0.64515708  1.00003363  1
  O  O216  1  0.25397034  0.37786482  -0.01042761  1
  O  O217  1  0.24978264  0.36627485  0.50290927  1
  O  O218  1  0.20062192  0.84481531  0.01129581  1
  O  O219  1  0.25710573  0.87034840  0.51067216  1
  O  O220  1  0.76410543  0.37984141  0.01358794  1
  O  O221  1  0.74867083  0.35892067  0.50272572  1
  O  O222  1  0.76122183  0.87099591  0.01138247  1
  O  O223  1  0.73814467  0.85705812  0.50525917  1
  O  O224  1  0.11201676  0.49076741  0.26437581  1
  O  O225  1  0.11824306  0.49663280  0.72312547  1
  O  O226  1  0.18875362  1.05841776  0.24623183  1
  O  O227  1  0.13551904  1.00502919  0.74064463  1
  O  O228  1  0.64456482  0.50997732  0.25187131  1
  O  O229  1  0.63831281  0.53593767  0.73291811  1
  O  O230  1  0.61761754  0.98166611  0.26776780  1
  O  O231  1  0.65130555  1.01054799  0.73564438  1
  O  O232  1  0.37865828  0.00667881  0.27859887  1
  O  O233  1  0.35781995  0.00321196  0.75885771  1
  O  O234  1  0.38133132  0.51061634  0.26507494  1
  O  O235  1  0.34904648  0.53213002  0.72377159  1
  O  O236  1  0.87110220  0.00885363  0.25104480  1
  O  O237  1  0.87594748  -0.00711109  0.74438557  1
  O  O238  1  0.87098065  0.51700727  0.25399975  1
  O  O239  1  0.86342829  0.51405078  0.76637336  1
  O  O240  1  0.10653971  0.36630349  0.37149096  1
  O  O241  1  0.14071618  0.32958900  0.85374369  1
  O  O242  1  0.10676299  0.86034897  0.41395823  1
  O  O243  1  0.11848509  0.87045192  0.85312089  1
  O  O244  1  0.61853469  0.36575927  0.37384580  1
  O  O245  1  0.63314491  0.36295139  0.87025139  1
  O  O246  1  0.63171013  0.85751464  0.36471315  1
  O  O247  1  0.62829157  0.86889673  0.87250894  1
  O  O248  1  0.38484175  0.11105170  0.13307969  1
  O  O249  1  0.38337364  0.12160247  0.62074814  1
  O  O250  1  0.38970640  0.61887417  0.15069181  1
  O  O251  1  0.38755431  0.56117045  0.64789982  1
  O  O252  1  0.88113945  0.11967683  0.12681862  1
  O  O253  1  0.89345347  0.11436843  0.62460611  1
  O  O254  1  0.87656675  0.64308847  0.13676918  1
  O  O255  1  0.87301572  0.61765608  0.64069208  1
  O  O256  1  0.25389436  0.28247756  0.13420003  1
  O  O257  1  0.24394555  0.26286447  0.60632437  1
  O  O258  1  0.23772196  0.75622284  0.13759396  1
  O  O259  1  0.24635007  0.77218285  0.62141674  1
  O  O260  1  0.76885836  0.26204731  0.10190439  1
  O  O261  1  0.74788567  0.24563437  0.61565033  1
  O  O262  1  0.75839093  0.76044942  0.11705322  1
  O  O263  1  0.74954210  0.73294647  0.61463100  1
  O  O264  1  0.22772803  0.25260735  0.37886221  1
  O  O265  1  0.17261784  0.27016980  0.82225069  1
  O  O266  1  0.23658363  0.75666042  0.39249464  1
  O  O267  1  0.24302402  0.73364222  0.90172098  1
  O  O268  1  0.72963224  0.25424451  0.38769297  1
  O  O269  1  0.78483897  0.30129118  0.89007785  1
  O  O270  1  0.74904370  0.74411077  0.38428508  1
  O  O271  1  0.75222739  0.75348901  0.89564408  1
  O  O272  1  -0.00160654  0.11723639  -0.00415056  1
  O  O273  1  0.01410534  0.13055554  0.50902857  1
  O  O274  1  0.00463239  0.61714378  0.01319329  1
  O  O275  1  -0.02157017  0.61874236  0.51293896  1
  O  O276  1  0.52777338  0.10116330  -0.00793805  1
  O  O277  1  0.51646049  0.12699153  0.52165776  1
  O  O278  1  0.48780646  0.63023814  0.01668220  1
  O  O279  1  0.49420970  0.64140260  0.53287192  1
  O  O280  1  0.48205969  0.36590750  0.50758412  1
  O  O281  1  0.51994204  0.40379678  0.99864248  1
  O  O282  1  0.47798841  0.85361534  0.52923022  1
  O  O283  1  0.49283235  0.89445542  1.01055650  1
  O  O284  1  0.99413273  0.36487309  0.48817033  1
  O  O285  1  1.00023422  0.38977870  0.98269391  1
  O  O286  1  0.97438971  0.89369143  0.55518554  1
  O  O287  1  1.00199162  0.88646959  0.98825197  1
  O  O288  1  0.51230460  0.48482436  0.38055179  1
  O  O289  1  0.51228289  0.50320357  0.90937518  1
  O  O290  1  0.48214371  0.99306450  0.38966568  1
  O  O291  1  0.52887116  0.96282219  0.81226155  1
  O  O292  1  0.98662801  0.48798978  0.37662786  1
  O  O293  1  1.00458039  0.51572378  0.88916426  1
  O  O294  1  1.03781818  0.96238996  0.25392128  1
  O  O295  1  0.99561699  0.99135592  0.88000703  1
  O  O296  1  -0.01181262  0.00970413  0.09848686  1
  O  O297  1  0.02215048  0.01819058  0.62761258  1
  O  O298  1  -0.00114774  0.49506789  0.09955670  1
  O  O299  1  -0.00403072  0.50263001  0.62373978  1
  O  O300  1  0.42812004  -0.07628373  0.04850013  1
  O  O301  1  0.51091023  0.00984328  0.63321608  1
  O  O302  1  0.50957887  0.51574764  0.13021655  1
  O  O303  1  0.54409089  0.45630849  0.63186830  1
  O  O304  1  0.22255393  0.37302962  0.26883238  1
  O  O305  1  0.25799702  0.36974965  0.72773644  1
  O  O306  1  0.26273749  0.88270812  0.23966206  1
  O  O307  1  0.23303361  0.88870667  0.73706789  1
  O  O308  1  0.75490481  0.39365491  0.25448960  1
  O  O309  1  0.77221450  0.38903328  0.70601654  1
  O  O310  1  0.74135243  0.87046365  0.24197801  1
  O  O311  1  0.75196973  0.88389442  0.75171619  1
  O  O312  1  0.23112715  0.11584493  0.22512644  1
  O  O313  1  0.26050539  0.10722322  0.74885455  1
  O  O314  1  0.26963525  0.63583742  0.25295449  1
  O  O315  1  0.26250881  0.65930574  0.74337152  1
  O  O316  1  0.76879685  0.13500426  0.24234268  1
  O  O317  1  0.77495590  0.10381938  0.73416813  1
  O  O318  1  0.76088488  0.62072344  0.25842545  1
  O  O319  1  0.75580851  0.63216637  0.77527060  1
  O  O320  1  0.37298631  0.12119114  0.40179241  1
  O  O321  1  0.38631443  0.11508341  0.87205481  1
  O  O322  1  0.38672465  0.60785717  0.37289112  1
  O  O323  1  0.38173284  0.65155759  0.85518158  1
  O  O324  1  0.88156277  0.12120360  0.35982410  1
  O  O325  1  0.89139884  0.11140103  0.84988622  1
  O  O326  1  0.87076540  0.61676832  0.36755134  1
  O  O327  1  0.86548460  0.63752729  0.87232111  1
  O  O328  1  0.11415730  0.36836092  0.14696130  1
  O  O329  1  0.12995318  0.37993193  0.62234057  1
  O  O330  1  0.11006550  0.91155914  0.14486141  1
  O  O331  1  0.12823775  0.89191668  0.62739618  1
  O  O332  1  0.65740513  0.36327438  0.13699574  1
  O  O333  1  0.58894909  0.39513567  0.64165741  1
  O  O334  1  0.63876857  0.87591574  0.13766246  1
  O  O335  1  0.61088503  0.89220730  0.65906979  1
  O  O336  1  0.10839863  0.24711559  0.26036544  1
  O  O337  1  0.13296083  0.23965538  0.75664444  1
  O  O338  1  0.11622050  0.76769400  0.27041181  1
  O  O339  1  0.11903261  0.76901622  0.72355950  1
  O  O340  1  0.63155830  0.23740973  0.26247802  1
  O  O341  1  0.66195859  0.24847517  0.76785074  1
  O  O342  1  0.61870132  0.75346880  0.25886534  1
  O  O343  1  0.62283796  0.76822334  0.77161597  1
  O  O344  1  0.38883075  0.24319055  0.26561155  1
  O  O345  1  0.35729929  0.22118264  0.75779357  1
  O  O346  1  0.39526323  0.73654601  0.26880912  1
  O  O347  1  0.40594901  0.71610918  0.69117251  1
  O  O348  1  0.88342956  0.24958580  0.25823794  1
  O  O349  1  0.86535850  0.23079509  0.74391537  1
  O  O350  1  0.87260477  0.74554624  0.24278494  1
  O  O351  1  0.86021886  0.73341277  0.73982604  1
  O  O352  1  0.37255005  0.48870877  0.48823131  1
  O  O353  1  0.34256012  0.51521132  0.99982256  1
  O  O354  1  0.37100221  0.97963524  0.49303814  1
  O  O355  1  0.39028842  0.97758615  1.00116637  1
  O  O356  1  0.86421562  0.50211871  0.48525831  1
  O  O357  1  0.87954052  0.50385942  0.99055299  1
  O  O358  1  0.87245492  0.99613469  0.47102583  1
  O  O359  1  0.87432002  0.98905544  0.98550089  1
  O  O360  1  0.11189140  0.00953018  -0.00192863  1
  O  O361  1  0.13364475  0.01931876  0.50215766  1
  O  O362  1  0.12893287  0.52358607  0.00235734  1
  O  O363  1  0.11745398  0.49479476  0.51384992  1
  O  O364  1  0.67951039  0.03364398  -0.00665510  1
  O  O365  1  0.62728343  0.00587317  0.51905355  1
  O  O366  1  0.55830759  0.46282817  -0.03375224  1
  O  O367  1  0.65720426  0.49952703  0.52591261  1
  O  O368  1  0.38035308  0.37701051  0.11114425  1
  O  O369  1  0.35991887  0.38390809  0.60768329  1
  O  O370  1  0.29736241  0.90307772  0.17086938  1
  O  O371  1  0.36023947  0.88262790  0.62422216  1
  O  O372  1  0.86167527  0.37753895  0.14467641  1
  O  O373  1  0.83040683  0.39497651  0.65655521  1
  O  O374  1  0.86975284  0.87003044  0.12484857  1
  O  O375  1  0.86369379  0.85066585  0.64093791  1
  O  O376  1  0.10938542  0.13514601  0.38123565  1
  O  O377  1  0.11355022  0.13205227  0.89302826  1
  O  O378  1  0.10504822  0.65685691  0.38820621  1
  O  O379  1  0.12222829  0.65196693  0.83084070  1
  O  O380  1  0.61349407  0.13785640  0.39232481  1
  O  O381  1  0.62639841  0.14280933  0.87663464  1
  O  O382  1  0.63659467  0.63627354  0.36733909  1
  O  O383  1  0.64175137  0.65115118  0.88160367  1
