# generated using pymatgen
data_VZnO4
_symmetry_space_group_name_H-M   'P 1'
_cell_length_a   17.01301974
_cell_length_b   17.02008025
_cell_length_c   16.91642734
_cell_angle_alpha   89.67534175
_cell_angle_beta   90.52512503
_cell_angle_gamma   89.56062605
_symmetry_Int_Tables_number   1
_chemical_formula_structural   VZnO4
_chemical_formula_sum   'V64 Zn64 O256'
_cell_volume   4897.94043623
_cell_formula_units_Z   64
loop_
 _symmetry_equiv_pos_site_id
 _symmetry_equiv_pos_as_xyz
  1  'x, y, z'
loop_
 _atom_site_type_symbol
 _atom_site_label
 _atom_site_symmetry_multiplicity
 _atom_site_fract_x
 _atom_site_fract_y
 _atom_site_fract_z
 _atom_site_occupancy
  V  V0  1  0.37126179  0.87053269  0.02085571  1
  V  V1  1  0.62174571  0.74489671  0.87564414  1
  V  V2  1  0.75077595  0.38676467  0.14095932  1
  V  V3  1  0.64333460  0.65176819  0.48511146  1
  V  V4  1  0.25759207  0.24830599  0.50585511  1
  V  V5  1  0.62588650  0.23615293  0.85215109  1
  V  V6  1  0.11897570  0.63838139  0.50861262  1
  V  V7  1  0.26759581  0.74919496  0.50696499  1
  V  V8  1  0.76087680  0.62208862  0.35954305  1
  V  V9  1  0.24394246  -0.00575703  0.24794696  1
  V  V10  1  -0.00384983  -0.00283395  0.50027774  1
  V  V11  1  0.51392441  0.39628961  0.82802189  1
  V  V12  1  0.86796552  0.38461803  0.49046576  1
  V  V13  1  0.51869074  0.89674304  0.88735472  1
  V  V14  1  0.23833601  0.49292483  0.26321597  1
  V  V15  1  0.89313724  0.61268767  0.24890364  1
  V  V16  1  0.34018488  0.00056615  0.89184360  1
  V  V17  1  0.11774022  0.35595096  0.25075864  1
  V  V18  1  0.60321725  0.39281963  0.25638248  1
  V  V19  1  0.74347308  0.74184400  0.00303586  1
  V  V20  1  0.26271025  0.63286639  0.84884017  1
  V  V21  1  0.85567189  0.51032611  0.86553801  1
  V  V22  1  0.75059773  0.23115271  0.48600287  1
  V  V23  1  0.87336157  0.24676927  0.62647345  1
  V  V24  1  0.89521126  0.74710298  0.13355475  1
  V  V25  1  0.12778448  -0.01227048  0.63903167  1
  V  V26  1  0.11468076  0.12905706  0.48260191  1
  V  V27  1  0.49124636  0.66510963  0.61586935  1
  V  V28  1  0.25157045  0.36508896  0.11236724  1
  V  V29  1  -0.01155535  0.61617474  0.63816823  1
  V  V30  1  0.61959969  0.01091812  0.11688992  1
  V  V31  1  0.51027852  0.88536509  0.37105465  1
  V  V32  1  0.39931931  0.42415062  0.48155253  1
  V  V33  1  0.50254971  0.14793507  0.11358450  1
  V  V34  1  0.87022468  0.86000183  0.50531076  1
  V  V35  1  -0.00661920  0.50887378  0.00020097  1
  V  V36  1  0.00994505  0.86443621  0.36880070  1
  V  V37  1  0.23303531  0.62762705  0.37622987  1
  V  V38  1  0.11862916  0.73936382  0.87629662  1
  V  V39  1  0.74316569  0.24094662  -0.00083250  1
  V  V40  1  0.35590454  0.64546788  0.24862712  1
  V  V41  1  0.11011924  0.50919496  0.12622576  1
  V  V42  1  0.00367695  0.36185931  0.37330754  1
  V  V43  1  0.12750148  0.15383651  -0.00260232  1
  V  V44  1  0.73885097  -0.00271612  0.75312719  1
  V  V45  1  0.00613391  0.10398049  0.12868230  1
  V  V46  1  -0.00086562  0.12715464  0.63653495  1
  V  V47  1  0.74780944  0.87549069  0.13438393  1
  V  V48  1  0.74376607  0.37420074  0.62656615  1
  V  V49  1  0.88464263  0.87965593  -0.00590905  1
  V  V50  1  0.38726860  0.13453362  0.23882286  1
  V  V51  1  -0.01111541  0.36595320  0.85811564  1
  V  V52  1  0.36654732  0.12114419  0.75102095  1
  V  V53  1  0.01457932  0.49212349  0.50294425  1
  V  V54  1  0.75480643  0.01920234  0.24640334  1
  V  V55  1  -0.01174560  0.76217397  0.75271313  1
  V  V56  1  0.62052682  0.23377335  0.36357848  1
  V  V57  1  0.64300768  0.50783360  0.58781798  1
  V  V58  1  0.87109608  0.37274723  0.00097462  1
  V  V59  1  0.86907472  0.11841489  0.76210457  1
  V  V60  1  0.73967436  0.87296645  0.62546427  1
  V  V61  1  0.27027926  0.12013056  0.37544010  1
  V  V62  1  0.87295258  0.01058790  0.36801407  1
  V  V63  1  0.88477166  0.24268501  0.13639295  1
  Zn  Zn64  1  0.18745712  0.17866647  0.18423669  1
  Zn  Zn65  1  0.18318442  0.18882343  0.69342709  1
  Zn  Zn66  1  0.19797899  0.68756922  0.17040053  1
  Zn  Zn67  1  0.17747706  0.68984523  0.68795918  1
  Zn  Zn68  1  0.68833568  0.19698523  0.18489160  1
  Zn  Zn69  1  0.69006281  0.18169752  0.67569901  1
  Zn  Zn70  1  0.71597199  0.71482961  0.22438863  1
  Zn  Zn71  1  0.66752363  0.70238770  0.68189538  1
  Zn  Zn72  1  0.31017765  0.30590402  0.32722839  1
  Zn  Zn73  1  0.37825398  0.33014105  0.77709477  1
  Zn  Zn74  1  0.30067011  0.81794824  0.34402402  1
  Zn  Zn75  1  0.34063206  0.78709873  0.86740324  1
  Zn  Zn76  1  0.81698732  0.30584943  0.31373164  1
  Zn  Zn77  1  0.80859758  0.31135200  0.81218430  1
  Zn  Zn78  1  0.82546290  0.81225969  0.31967739  1
  Zn  Zn79  1  0.80669419  0.81006946  0.81226498  1
  Zn  Zn80  1  0.18714550  0.42430986  0.44093432  1
  Zn  Zn81  1  0.19199201  0.45885721  0.94172263  1
  Zn  Zn82  1  0.19102384  0.93785904  0.44587328  1
  Zn  Zn83  1  0.19724210  0.89379010  0.93819690  1
  Zn  Zn84  1  0.69931546  0.44292569  0.40932005  1
  Zn  Zn85  1  0.68849467  0.41639913  0.92692524  1
  Zn  Zn86  1  0.69646671  0.94618160  0.43787844  1
  Zn  Zn87  1  0.70281441  0.94094684  0.94457860  1
  Zn  Zn88  1  0.30656864  0.06454709  0.06527855  1
  Zn  Zn89  1  0.27991343  0.09411667  0.58973588  1
  Zn  Zn90  1  0.28669199  0.56401090  0.07960293  1
  Zn  Zn91  1  0.31135314  0.57484678  0.58042938  1
  Zn  Zn92  1  0.82158328  0.06198225  0.05892977  1
  Zn  Zn93  1  0.81352066  0.05459037  0.56672657  1
  Zn  Zn94  1  0.81558035  0.56494582  0.06986743  1
  Zn  Zn95  1  0.80910817  0.57240166  0.55310788  1
  Zn  Zn96  1  0.42148875  0.44522967  0.19058855  1
  Zn  Zn97  1  0.47904117  0.41931544  0.63350079  1
  Zn  Zn98  1  0.42660602  0.95650321  0.18597288  1
  Zn  Zn99  1  0.44995452  0.97376453  0.73690894  1
  Zn  Zn100  1  0.93559875  0.42958951  0.18766513  1
  Zn  Zn101  1  0.92240374  0.44582896  0.68367047  1
  Zn  Zn102  1  0.93851517  0.93124963  0.18627535  1
  Zn  Zn103  1  0.93047292  0.93993122  0.68841803  1
  Zn  Zn104  1  0.05738731  0.05059969  0.30538377  1
  Zn  Zn105  1  0.17738214  0.06505813  0.82085812  1
  Zn  Zn106  1  0.05856942  0.55325302  0.32133588  1
  Zn  Zn107  1  0.06572588  0.55249468  0.82719737  1
  Zn  Zn108  1  0.57035124  0.06351178  0.29789986  1
  Zn  Zn109  1  0.57333435  0.06560049  0.81510286  1
  Zn  Zn110  1  0.56181034  0.59318255  0.29036556  1
  Zn  Zn111  1  0.56521252  0.58991118  0.79177668  1
  Zn  Zn112  1  0.44250281  0.19324092  0.44531301  1
  Zn  Zn113  1  0.46174733  0.15536873  0.90911058  1
  Zn  Zn114  1  0.42684096  0.61757203  0.44741718  1
  Zn  Zn115  1  0.44660920  0.68831497  0.94498703  1
  Zn  Zn116  1  0.93334457  0.18680106  0.43949002  1
  Zn  Zn117  1  0.94288115  0.18513578  0.94402874  1
  Zn  Zn118  1  0.94127412  0.68473628  0.43449858  1
  Zn  Zn119  1  0.92499967  0.69249233  0.93363643  1
  Zn  Zn120  1  0.05975724  0.31887229  0.05982901  1
  Zn  Zn121  1  0.06086889  0.30619615  0.56282662  1
  Zn  Zn122  1  0.06165077  0.79072870  0.04709955  1
  Zn  Zn123  1  0.04889066  0.80899837  0.57430049  1
  Zn  Zn124  1  0.57586658  0.31749937  0.07262553  1
  Zn  Zn125  1  0.58461781  0.34940538  0.48223480  1
  Zn  Zn126  1  0.56897157  0.82910272  0.05512437  1
  Zn  Zn127  1  0.56453311  0.82661041  0.56098542  1
  O  O128  1  0.11138411  0.12859463  0.11558642  1
  O  O129  1  0.10604390  0.11985908  0.62576707  1
  O  O130  1  0.12280393  0.60691388  0.12751158  1
  O  O131  1  0.11077265  0.61802238  0.61190677  1
  O  O132  1  0.61160714  0.12275565  0.13372244  1
  O  O133  1  0.60488443  0.11938511  0.61581440  1
  O  O134  1  0.57120979  0.68300481  0.13891085  1
  O  O135  1  0.66690942  0.61260300  0.59436095  1
  O  O136  1  0.35307811  0.38065658  0.40086841  1
  O  O137  1  0.42866403  0.37562093  0.87657925  1
  O  O138  1  0.40710315  0.87517404  0.37751431  1
  O  O139  1  0.37852124  0.89628545  0.89065664  1
  O  O140  1  0.88684133  0.36983922  0.38549608  1
  O  O141  1  0.87368524  0.38300113  0.88253220  1
  O  O142  1  0.88229076  0.88393784  0.38868714  1
  O  O143  1  0.87076961  0.85982091  0.89618231  1
  O  O144  1  0.24624398  0.01819069  0.37847013  1
  O  O145  1  0.23700102  -0.00777574  0.89375312  1
  O  O146  1  0.23107261  0.49989926  0.36691961  1
  O  O147  1  0.27904200  0.53152999  0.90626517  1
  O  O148  1  0.76254150  -0.00283558  0.36048650  1
  O  O149  1  0.74957100  -0.00868679  0.85418501  1
  O  O150  1  0.76323050  0.52187396  0.37236396  1
  O  O151  1  0.75785765  0.49404648  0.88850684  1
  O  O152  1  0.22396150  0.48530098  0.13568448  1
  O  O153  1  0.25661348  0.48829390  0.64353973  1
  O  O154  1  0.25631538  1.00318773  0.14740287  1
  O  O155  1  0.22428811  0.99905008  0.61188291  1
  O  O156  1  0.75513140  0.48386526  0.12221848  1
  O  O157  1  0.75041642  0.48382639  0.61266155  1
  O  O158  1  0.75828227  0.99531691  0.13510978  1
  O  O159  1  0.76003657  0.98712860  0.63617260  1
  O  O160  1  0.00559073  0.37423732  0.26402987  1
  O  O161  1  -0.02011727  0.37901167  0.75887147  1
  O  O162  1  -0.00201312  0.88061293  0.26888957  1
  O  O163  1  -0.00799372  0.86122600  0.74540342  1
  O  O164  1  0.50481167  0.38584413  0.24161784  1
  O  O165  1  0.48548548  0.36266355  0.73123883  1
  O  O166  1  0.49764759  0.89522223  0.26588739  1
  O  O167  1  0.49770729  0.88450516  0.78588894  1
  O  O168  1  0.49130169  0.12620958  0.24107548  1
  O  O169  1  0.47335904  0.08721852  0.76097014  1
  O  O170  1  0.45112539  0.62497232  0.23538707  1
  O  O171  1  0.55692816  0.65391689  0.69830372  1
  O  O172  1  1.00592848  0.11968413  0.22940697  1
  O  O173  1  0.98467651  0.12820259  0.73586109  1
  O  O174  1  0.99212261  0.62584427  0.26287452  1
  O  O175  1  1.00496523  0.59427841  0.73525552  1
  O  O176  1  0.27097403  0.24877769  -0.08768861  1
  O  O177  1  0.35789430  0.24117409  0.50148157  1
  O  O178  1  0.37564423  0.77056442  -0.01343902  1
  O  O179  1  0.36113059  0.71588482  0.49102771  1
  O  O180  1  0.86551245  0.26006921  0.00432047  1
  O  O181  1  0.86396907  0.25497127  0.50498845  1
  O  O182  1  0.86609648  0.75223713  0.01808527  1
  O  O183  1  0.87841438  0.76184494  0.49719292  1
  O  O184  1  0.12074980  0.22947164  0.50332651  1
  O  O185  1  0.12270288  0.25468180  0.99347535  1
  O  O186  1  0.11395317  0.73758334  0.50580481  1
  O  O187  1  0.11211871  0.71930900  0.97728073  1
  O  O188  1  0.64518902  0.25396728  0.48101619  1
  O  O189  1  0.64187872  0.25402631  1.00649029  1
  O  O190  1  0.63330381  0.74873044  0.50098765  1
  O  O191  1  0.63909967  0.75482291  1.00116113  1
  O  O192  1  0.50456594  0.24703583  0.12188840  1
  O  O193  1  0.55503062  0.16586479  0.57403632  1
  O  O194  1  0.52436819  0.74409003  0.13189077  1
  O  O195  1  0.48372991  0.76538757  0.60628374  1
  O  O196  1  0.98320406  0.26072675  0.12473766  1
  O  O197  1  0.98547444  0.23572489  0.61549772  1
  O  O198  1  0.99293096  0.74905553  0.13087896  1
  O  O199  1  0.99878922  0.72739563  0.64272468  1
  O  O200  1  -0.00267849  0.26361946  0.38484030  1
  O  O201  1  -0.01354408  0.26844414  0.87544143  1
  O  O202  1  -0.00059127  0.76550191  0.38178517  1
  O  O203  1  0.00588823  0.73025865  0.86136419  1
  O  O204  1  0.52207185  0.24741365  0.38841654  1
  O  O205  1  0.52304242  0.23723130  0.86848360  1
  O  O206  1  0.52256018  0.78456452  0.36025487  1
  O  O207  1  0.51747728  0.76263971  0.88798121  1
  O  O208  1  0.23027983  0.12217480  0.48590151  1
  O  O209  1  0.22530515  0.12909088  1.02008814  1
  O  O210  1  0.23105685  0.62536517  0.49999123  1
  O  O211  1  0.26566549  0.58855633  0.97072982  1
  O  O212  1  0.75343230  0.13377495  0.50373434  1
  O  O213  1  0.75994539  0.14315694  1.00437116  1
  O  O214  1  0.75367994  0.63953377  0.47649090  1
  O  O215  1  0.75200700  0.64381900  1.01804220  1
  O  O216  1  0.23720658  0.38206399  0.01315121  1
  O  O217  1  0.22934628  0.34560052  0.50818471  1
  O  O218  1  0.26758865  0.87517287  0.02022513  1
  O  O219  1  0.26271940  0.84831976  0.47390059  1
  O  O220  1  0.75685542  0.36868014  0.01359337  1
  O  O221  1  0.76449445  0.37088982  0.48926734  1
  O  O222  1  0.76274568  0.86729369  0.01688150  1
  O  O223  1  0.76301739  0.88316339  0.50806495  1
  O  O224  1  0.12018559  0.49086510  0.24216742  1
  O  O225  1  0.13458833  0.44781467  0.83978633  1
  O  O226  1  0.14321942  0.99932331  0.25664623  1
  O  O227  1  0.12409657  1.00354460  0.73839758  1
  O  O228  1  0.61616334  0.49104333  0.25944832  1
  O  O229  1  0.69142140  0.55228310  0.75652971  1
  O  O230  1  0.64869277  1.00586889  0.23574715  1
  O  O231  1  0.64006681  1.00870954  0.74099188  1
  O  O232  1  0.36680229  0.02807262  0.25167729  1
  O  O233  1  0.34866568  0.00522803  0.78314435  1
  O  O234  1  0.33701752  0.50991463  0.24251143  1
  O  O235  1  0.30764180  0.46299432  0.69941855  1
  O  O236  1  0.86970594  -0.00314986  0.26137860  1
  O  O237  1  0.87734208  0.01614808  0.75400335  1
  O  O238  1  0.88653841  0.51351366  0.24472747  1
  O  O239  1  0.86236314  0.49709902  0.76546283  1
  O  O240  1  0.11174550  0.37235411  0.36524374  1
  O  O241  1  0.09816280  0.37820358  0.86666349  1
  O  O242  1  0.10626083  0.88407946  0.39100504  1
  O  O243  1  0.12200299  0.84289431  0.87959250  1
  O  O244  1  0.62899889  0.36873921  0.36282702  1
  O  O245  1  0.60805011  0.36236839  0.86769867  1
  O  O246  1  0.61495085  0.88903245  0.36474664  1
  O  O247  1  0.62055078  0.87304880  0.89710950  1
  O  O248  1  0.38880009  0.13056387  0.13109082  1
  O  O249  1  0.37143413  0.10536261  0.65047534  1
  O  O250  1  0.30675581  0.64941964  0.14771392  1
  O  O251  1  0.40194195  0.62238360  0.63148500  1
  O  O252  1  0.89278242  0.13696140  0.11451490  1
  O  O253  1  0.88331141  0.13035627  0.62421615  1
  O  O254  1  0.87767377  0.63699832  0.13787750  1
  O  O255  1  0.88958406  0.61504818  0.62026038  1
  O  O256  1  0.24122038  0.26750601  0.13284866  1
  O  O257  1  0.24754477  0.21456991  0.60456152  1
  O  O258  1  0.15922161  0.79419919  0.11844398  1
  O  O259  1  0.24397144  0.74125346  0.60563419  1
  O  O260  1  0.76142118  0.25766895  0.11696822  1
  O  O261  1  0.75240070  0.25920349  0.60543334  1
  O  O262  1  0.74466038  0.76679002  0.12536284  1
  O  O263  1  0.74523132  0.77177156  0.63572762  1
  O  O264  1  0.24631680  0.22812492  0.38988668  1
  O  O265  1  0.25033045  0.28871542  0.85512296  1
  O  O266  1  0.23218874  0.72945942  0.38817060  1
  O  O267  1  0.23369976  0.73806782  0.86540057  1
  O  O268  1  0.75214238  0.24215924  0.38166007  1
  O  O269  1  0.73678957  0.26628486  0.88975390  1
  O  O270  1  0.74179500  0.73868739  0.33520410  1
  O  O271  1  0.74437921  0.75409250  0.89760309  1
  O  O272  1  0.01429711  0.13107025  0.01309029  1
  O  O273  1  0.00293892  0.11721822  0.50511538  1
  O  O274  1  -0.01226688  0.60623982  -0.00318000  1
  O  O275  1  0.00575147  0.60897115  0.50294542  1
  O  O276  1  0.49628339  0.13129744  0.01609738  1
  O  O277  1  0.50218156  0.12582277  0.53208900  1
  O  O278  1  0.49402815  0.60250147  0.01278778  1
  O  O279  1  0.52956911  0.63447096  0.52061748  1
  O  O280  1  0.50021459  0.41807374  0.47232108  1
  O  O281  1  0.53885163  0.42119294  1.01691060  1
  O  O282  1  0.50920635  0.88657020  0.47472577  1
  O  O283  1  0.48799284  0.87893810  0.99412003  1
  O  O284  1  0.99392979  0.37760450  0.49813586  1
  O  O285  1  0.98232434  0.38098698  0.99526127  1
  O  O286  1  0.98778798  0.88289008  0.49932905  1
  O  O287  1  0.98547253  0.86531287  1.01007768  1
  O  O288  1  0.49384208  0.56847517  0.37332247  1
  O  O289  1  0.51983927  0.49592396  0.82286891  1
  O  O290  1  0.50706402  0.99179770  0.36665295  1
  O  O291  1  0.51940195  0.99802844  0.89386731  1
  O  O292  1  1.00145584  0.48243785  0.39522666  1
  O  O293  1  0.98385018  0.48997269  0.88804418  1
  O  O294  1  0.98797503  0.99276094  0.38251354  1
  O  O295  1  0.99125390  0.99131154  0.87355804  1
  O  O296  1  -0.00353899  0.00499309  0.12206393  1
  O  O297  1  -0.00110161  0.01213566  0.61833479  1
  O  O298  1  0.00325594  0.49329946  0.11669325  1
  O  O299  1  -0.00657758  0.49957171  0.60978694  1
  O  O300  1  0.51905656  0.00409320  0.12919354  1
  O  O301  1  0.46464262  -0.05656916  0.61480337  1
  O  O302  1  0.48403689  0.52164200  0.11892670  1
  O  O303  1  0.55384545  0.50169640  0.63641832  1
  O  O304  1  0.23133779  0.38206095  0.25793070  1
  O  O305  1  0.28479601  0.39539262  0.73489947  1
  O  O306  1  0.27015504  0.89987657  0.27407827  1
  O  O307  1  0.32759755  0.87498261  0.70521457  1
  O  O308  1  0.76355294  0.37841153  0.24194537  1
  O  O309  1  0.74706873  0.36733963  0.72518145  1
  O  O310  1  0.76082202  0.88167297  0.23586862  1
  O  O311  1  0.76021891  0.88748870  0.73780287  1
  O  O312  1  0.25442736  0.12216764  0.26558961  1
  O  O313  1  0.25113933  0.12755609  0.76038148  1
  O  O314  1  0.21746940  0.61221013  0.26956346  1
  O  O315  1  0.25556508  0.62274466  0.74879069  1
  O  O316  1  0.75847221  0.11690508  0.23903377  1
  O  O317  1  0.76294387  0.11179029  0.73626522  1
  O  O318  1  0.76850172  0.61500780  0.25217012  1
  O  O319  1  0.73651966  0.60992936  0.74655448  1
  O  O320  1  0.37188043  0.12147282  0.38189038  1
  O  O321  1  0.36557481  0.10399584  0.88926319  1
  O  O322  1  0.33729799  0.61709791  0.35977492  1
  O  O323  1  0.36330374  0.65903356  0.86589032  1
  O  O324  1  0.88025096  0.10911773  0.37557743  1
  O  O325  1  0.87725946  0.13735151  0.85920798  1
  O  O326  1  0.87034426  0.63600603  0.36010782  1
  O  O327  1  0.86838431  0.60820088  0.88161690  1
  O  O328  1  0.12179151  0.37866591  0.14177186  1
  O  O329  1  0.12237934  0.34276524  0.66156610  1
  O  O330  1  0.13931773  0.82730404  0.19393302  1
  O  O331  1  0.10949993  0.89026414  0.62283181  1
  O  O332  1  0.64148327  0.37243478  0.15001065  1
  O  O333  1  0.64400928  0.38466467  0.59327230  1
  O  O334  1  0.64157545  0.89330909  0.12327479  1
  O  O335  1  0.64037925  0.88613031  0.61582448  1
  O  O336  1  0.12506360  0.25935557  0.24967766  1
  O  O337  1  0.12583261  0.29127832  0.71878121  1
  O  O338  1  0.15498524  0.77558221  0.24924295  1
  O  O339  1  0.10307723  0.73772267  0.75808086  1
  O  O340  1  0.63046733  0.26125321  0.26160827  1
  O  O341  1  0.63624350  0.24476181  0.75208949  1
  O  O342  1  0.60646276  0.67493010  0.21613132  1
  O  O343  1  0.64456167  0.76225327  0.77897974  1
  O  O344  1  0.36725221  0.23131155  0.26299815  1
  O  O345  1  0.37786604  0.21968695  0.76681361  1
  O  O346  1  0.34810206  0.74266215  0.26811502  1
  O  O347  1  0.37320819  0.75958964  0.75085736  1
  O  O348  1  0.87255969  0.24575253  0.23528250  1
  O  O349  1  0.85852449  0.23875648  0.73219055  1
  O  O350  1  0.87597354  0.74618529  0.23575123  1
  O  O351  1  0.88893369  0.74454116  0.76177427  1
  O  O352  1  0.37038689  0.52405376  0.49410640  1
  O  O353  1  0.44556873  0.55942171  1.05946703  1
  O  O354  1  0.40690038  0.95165783  0.56913119  1
  O  O355  1  0.36757547  0.99199559  0.99879244  1
  O  O356  1  0.87854664  0.48428057  0.50060589  1
  O  O357  1  0.88049930  0.49090658  1.00358434  1
  O  O358  1  0.88215745  0.99811219  0.48942936  1
  O  O359  1  0.87177496  0.98014472  1.00177030  1
  O  O360  1  0.04154330  -0.01661886  -0.07535360  1
  O  O361  1  0.10924535  0.01191097  0.50577497  1
  O  O362  1  0.10431994  0.49129872  0.01468110  1
  O  O363  1  0.11488805  0.48873371  0.50888543  1
  O  O364  1  0.64426694  0.01004829  0.02004272  1
  O  O365  1  0.60753220  -0.00880807  0.48171154  1
  O  O366  1  0.59456379  0.46854259  0.00026835  1
  O  O367  1  0.63520680  0.50777990  0.48735226  1
  O  O368  1  0.34916869  0.38502355  0.12860248  1
  O  O369  1  0.38872585  0.38480124  0.57650180  1
  O  O370  1  0.39423237  0.87330904  0.11946365  1
  O  O371  1  0.35696190  0.80722607  0.69039160  1
  O  O372  1  0.86671497  0.36502592  0.12078035  1
  O  O373  1  0.86342745  0.36637618  0.61073552  1
  O  O374  1  0.86960209  0.86158209  0.12247389  1
  O  O375  1  0.87578516  0.87676640  0.60831020  1
  O  O376  1  0.10835757  0.12405429  0.38388164  1
  O  O377  1  0.12044484  0.12096829  0.90035555  1
  O  O378  1  0.12341730  0.61151958  0.39913007  1
  O  O379  1  0.14748170  0.62174707  0.86239769  1
  O  O380  1  0.63027279  0.13471164  0.36158203  1
  O  O381  1  0.64162754  0.13802796  0.86996820  1
  O  O382  1  0.64221013  0.63260193  0.37978938  1
  O  O383  1  0.61449800  0.64382112  0.87931751  1
