# generated using pymatgen
data_VZnO4
_symmetry_space_group_name_H-M   'P 1'
_cell_length_a   16.89526841
_cell_length_b   16.91236448
_cell_length_c   16.95451743
_cell_angle_alpha   90.14755301
_cell_angle_beta   89.90700555
_cell_angle_gamma   89.99345500
_symmetry_Int_Tables_number   1
_chemical_formula_structural   VZnO4
_chemical_formula_sum   'V64 Zn64 O256'
_cell_volume   4844.54331251
_cell_formula_units_Z   64
loop_
 _symmetry_equiv_pos_site_id
 _symmetry_equiv_pos_as_xyz
  1  'x, y, z'
loop_
 _atom_site_type_symbol
 _atom_site_label
 _atom_site_symmetry_multiplicity
 _atom_site_fract_x
 _atom_site_fract_y
 _atom_site_fract_z
 _atom_site_occupancy
  V  V0  1  0.89432319  0.13157815  0.25337449  1
  V  V1  1  0.12250827  0.37294515  0.72019796  1
  V  V2  1  0.47328426  0.25590074  0.25192850  1
  V  V3  1  0.73895703  -0.00591881  0.76515622  1
  V  V4  1  0.88461421  0.74357192  0.63606679  1
  V  V5  1  0.62270924  0.49806034  0.11106153  1
  V  V6  1  0.13255972  0.54632609  0.63277195  1
  V  V7  1  0.10829325  -0.00609479  0.13094111  1
  V  V8  1  0.64312207  0.47039424  0.61600800  1
  V  V9  1  -0.00664129  0.63574706  0.12992474  1
  V  V10  1  0.23520583  0.75991723  0.49259167  1
  V  V11  1  -0.00564261  0.37427392  0.88340674  1
  V  V12  1  0.27592891  0.88482826  0.61734454  1
  V  V13  1  -0.00209740  0.39196217  0.38106345  1
  V  V14  1  0.62496727  -0.00007938  0.60203896  1
  V  V15  1  0.25555921  0.61694220  0.87676810  1
  V  V16  1  0.12378428  0.85606964  0.26187793  1
  V  V17  1  0.49271572  0.74719935  0.24824754  1
  V  V18  1  0.49921158  0.49021376  0.50033975  1
  V  V19  1  0.50009022  0.66089861  0.60653865  1
  V  V20  1  0.75340333  0.49104479  0.24140805  1
  V  V21  1  -0.01537380  -0.01152036  0.48916745  1
  V  V22  1  0.87345486  0.63074225  0.77912999  1
  V  V23  1  0.75009338  0.60917090  0.37380554  1
  V  V24  1  0.12937037  0.50364445  0.11193071  1
  V  V25  1  0.36926526  0.61432191  0.25749722  1
  V  V26  1  0.49528665  0.13229751  0.62547616  1
  V  V27  1  0.87980322  0.87599453  0.01043953  1
  V  V28  1  -0.00391666  0.24703715  0.75921238  1
  V  V29  1  0.25437939  -0.00241773  0.25406198  1
  V  V30  1  0.89028907  0.25227042  0.11929933  1
  V  V31  1  0.24702667  0.37906923  0.10181078  1
  V  V32  1  0.74123399  0.74612487  0.00021918  1
  V  V33  1  0.36899925  -0.00640521  0.88104699  1
  V  V34  1  0.75198481  0.01444798  0.26417341  1
  V  V35  1  -0.01288219  0.50228691  -0.00357987  1
  V  V36  1  0.25091246  0.49128873  0.26182091  1
  V  V37  1  -0.01478760  0.84565646  0.37565419  1
  V  V38  1  0.01161267  0.86723569  0.86695872  1
  V  V39  1  0.75462252  0.49530101  0.74811079  1
  V  V40  1  0.62503357  0.75241307  0.38706167  1
  V  V41  1  0.36144488  0.26099536  0.10582772  1
  V  V42  1  0.50853415  0.62732470  0.11201048  1
  V  V43  1  0.11950024  0.13443923  0.00383255  1
  V  V44  1  0.62401173  0.87873543  0.25089948  1
  V  V45  1  0.88213835  0.00008191  0.88530730  1
  V  V46  1  0.74801581  0.88082398  0.12415505  1
  V  V47  1  0.46889373  0.00053512  0.49262569  1
  V  V48  1  0.74083199  0.23167731  0.00966474  1
  V  V49  1  0.12290356  -0.01427257  0.63418463  1
  V  V50  1  0.87241598  0.12076928  0.75685868  1
  V  V51  1  0.50376706  0.87766835  0.84922357  1
  V  V52  1  0.27373626  0.12604054  0.37353817  1
  V  V53  1  0.75080325  0.87391109  0.62645758  1
  V  V54  1  -0.00238146  0.12271766  0.62359515  1
  V  V55  1  0.61945384  0.01445879  0.11510606  1
  V  V56  1  0.14562944  0.24688898  0.87252039  1
  V  V57  1  0.47778260  0.12412126  0.11773838  1
  V  V58  1  0.61297847  0.36895390  0.25435694  1
  V  V59  1  0.12182331  0.13020614  0.48709572  1
  V  V60  1  0.48639973  0.88386124  0.37838386  1
  V  V61  1  0.75697513  0.74963756  0.50348246  1
  V  V62  1  0.35509918  0.12299563  0.75260625  1
  V  V63  1  0.62520966  0.75031937  0.86742111  1
  Zn  Zn64  1  0.16444390  0.17023441  0.19826660  1
  Zn  Zn65  1  0.17749378  0.17629134  0.69037176  1
  Zn  Zn66  1  0.19067403  0.68305705  0.17859977  1
  Zn  Zn67  1  0.21684806  0.71691955  0.70197926  1
  Zn  Zn68  1  0.69010392  0.19294329  0.18503892  1
  Zn  Zn69  1  0.68270750  0.16678694  0.69108850  1
  Zn  Zn70  1  0.69618957  0.68698200  0.19227844  1
  Zn  Zn71  1  0.68904781  0.68344008  0.69558842  1
  Zn  Zn72  1  0.26096238  0.28771337  0.27667220  1
  Zn  Zn73  1  0.30509294  0.28886931  0.66264445  1
  Zn  Zn74  1  0.30570328  0.80919436  0.31488241  1
  Zn  Zn75  1  0.31169165  0.82692416  0.80631279  1
  Zn  Zn76  1  0.81107158  0.31232330  0.30328828  1
  Zn  Zn77  1  0.81789725  0.31718925  0.80912657  1
  Zn  Zn78  1  0.81030517  0.80485326  0.30274846  1
  Zn  Zn79  1  0.81256929  0.81699515  0.81755273  1
  Zn  Zn80  1  0.19706297  0.44963434  0.45846961  1
  Zn  Zn81  1  0.17989980  0.43332194  0.92725022  1
  Zn  Zn82  1  0.17823378  0.94330758  0.43780797  1
  Zn  Zn83  1  0.18020155  0.96971707  0.93501341  1
  Zn  Zn84  1  0.64247487  0.45732906  0.41437372  1
  Zn  Zn85  1  0.70944122  0.43782326  0.94028454  1
  Zn  Zn86  1  0.69514054  0.92817935  0.43485105  1
  Zn  Zn87  1  0.68206186  0.93734868  0.93970613  1
  Zn  Zn88  1  0.29396887  0.05178183  0.06155202  1
  Zn  Zn89  1  0.29047254  0.09680745  0.57593616  1
  Zn  Zn90  1  0.31710670  0.59340324  0.07064476  1
  Zn  Zn91  1  0.33078298  0.56247834  0.58304669  1
  Zn  Zn92  1  0.81378902  0.06994259  0.06947635  1
  Zn  Zn93  1  0.81438264  0.05678375  0.57328253  1
  Zn  Zn94  1  0.81274503  0.56328942  0.06419068  1
  Zn  Zn95  1  0.81215623  0.56537787  0.55840884  1
  Zn  Zn96  1  0.43548873  0.44091485  0.17271129  1
  Zn  Zn97  1  0.47857065  0.52719516  0.70797284  1
  Zn  Zn98  1  0.43715174  0.93641325  0.18251886  1
  Zn  Zn99  1  0.43446849  0.94507807  0.68491745  1
  Zn  Zn100  1  0.93753441  0.43550317  0.17942177  1
  Zn  Zn101  1  0.93943222  0.49697638  0.66623377  1
  Zn  Zn102  1  0.93497213  0.93531546  0.20538999  1
  Zn  Zn103  1  0.93783782  0.93325563  0.69204127  1
  Zn  Zn104  1  0.06147159  0.05270483  0.31337035  1
  Zn  Zn105  1  0.06538921  0.05918295  0.81754164  1
  Zn  Zn106  1  0.06343306  0.56087361  0.29051850  1
  Zn  Zn107  1  0.05914060  0.55515969  0.80475761  1
  Zn  Zn108  1  0.56642400  0.07575947  0.29704587  1
  Zn  Zn109  1  0.54029205  0.05723139  0.80708720  1
  Zn  Zn110  1  0.57059492  0.56529954  0.30694875  1
  Zn  Zn111  1  0.60798815  0.55185044  0.82870042  1
  Zn  Zn112  1  0.47795056  0.16375842  0.41174184  1
  Zn  Zn113  1  0.42037867  0.17185661  0.94399203  1
  Zn  Zn114  1  0.44002426  0.67984636  0.43427529  1
  Zn  Zn115  1  0.45091644  0.67564454  0.82124384  1
  Zn  Zn116  1  0.91686062  0.17877047  0.44510735  1
  Zn  Zn117  1  0.94205391  0.18198757  0.94547075  1
  Zn  Zn118  1  0.92675908  0.66469269  0.44370253  1
  Zn  Zn119  1  0.94206893  0.69608120  0.95150373  1
  Zn  Zn120  1  0.06794334  0.31253779  0.06418315  1
  Zn  Zn121  1  -0.01980213  0.32769255  0.57909944  1
  Zn  Zn122  1  0.06237836  0.82684595  0.06855499  1
  Zn  Zn123  1  0.06199984  0.80837254  0.55713045  1
  Zn  Zn124  1  0.56850106  0.30131521  0.07916635  1
  Zn  Zn125  1  0.57093577  0.30904987  0.54650652  1
  Zn  Zn126  1  0.56590803  0.81246687  0.06446003  1
  Zn  Zn127  1  0.56068470  0.82723593  0.56596043  1
  O  O128  1  0.12419249  0.11287344  0.11124869  1
  O  O129  1  0.10615276  0.10970355  0.62034208  1
  O  O130  1  0.11560537  0.60758742  0.12149464  1
  O  O131  1  0.14182846  0.64210957  0.66288367  1
  O  O132  1  0.61763061  0.11594095  0.12809847  1
  O  O133  1  0.61343678  0.10596736  0.62485485  1
  O  O134  1  0.61778586  0.61509080  0.13510216  1
  O  O135  1  0.58985390  0.64750041  0.65245131  1
  O  O136  1  0.32060880  0.34387200  0.49652691  1
  O  O137  1  0.49011347  0.29828390  0.77916799  1
  O  O138  1  0.38968625  0.86617348  0.37285768  1
  O  O139  1  0.39287001  0.88021039  0.86966505  1
  O  O140  1  0.89436427  0.37901800  0.37415227  1
  O  O141  1  0.89642040  0.37726035  0.86967228  1
  O  O142  1  0.88533836  0.86347176  0.36272475  1
  O  O143  1  0.88126472  0.88455697  0.88782764  1
  O  O144  1  0.24099166  0.00735685  0.36316832  1
  O  O145  1  0.27128499  -0.02891210  0.86671978  1
  O  O146  1  0.24603312  0.48338191  0.36063240  1
  O  O147  1  0.24845843  0.50851966  0.86860053  1
  O  O148  1  0.74666271  -0.00412070  0.36187903  1
  O  O149  1  0.75771293  -0.00823581  0.86821448  1
  O  O150  1  0.74625214  0.50484486  0.37704793  1
  O  O151  1  0.71781258  0.50428854  0.85052788  1
  O  O152  1  0.24155448  0.49537701  0.11632713  1
  O  O153  1  0.24345719  0.51668013  0.63653279  1
  O  O154  1  0.23236162  1.00361238  0.14564208  1
  O  O155  1  0.22885507  0.99364848  0.60627970  1
  O  O156  1  0.73719733  0.50704826  0.13617110  1
  O  O157  1  0.74910765  0.50489321  0.62896068  1
  O  O158  1  0.73443319  0.99903535  0.13322856  1
  O  O159  1  0.73826630  0.99528410  0.63363973  1
  O  O160  1  0.00692679  0.38683208  0.27530014  1
  O  O161  1  0.00797415  0.35617528  0.76270572  1
  O  O162  1  0.00468503  0.86454994  0.26663568  1
  O  O163  1  -0.00687425  0.86927516  0.76767262  1
  O  O164  1  0.50062268  0.36512743  0.23439477  1
  O  O165  1  0.54531141  0.32092745  0.73824215  1
  O  O166  1  0.50348084  0.86807460  0.25776564  1
  O  O167  1  0.50852835  0.88215732  0.75022165  1
  O  O168  1  0.49760400  0.14942553  0.23227049  1
  O  O169  1  0.50408754  0.13031762  0.72912290  1
  O  O170  1  0.50083264  0.64136430  0.25749898  1
  O  O171  1  0.49764336  0.57435757  0.80662957  1
  O  O172  1  0.99378820  0.12504852  0.25196178  1
  O  O173  1  0.99162430  0.12577509  0.74984848  1
  O  O174  1  1.00415362  0.63229523  0.23112339  1
  O  O175  1  0.97560710  0.61995757  0.76486871  1
  O  O176  1  0.35526614  0.23944732  0.00891993  1
  O  O177  1  0.36353792  0.30498913  0.54643059  1
  O  O178  1  0.40316132  0.83898496  0.04734270  1
  O  O179  1  0.35091105  0.71746097  0.50672662  1
  O  O180  1  0.86910448  0.23412013  0.01416018  1
  O  O181  1  0.91511514  0.27183871  0.50245455  1
  O  O182  1  0.85984690  0.77184071  0.00041852  1
  O  O183  1  0.85976296  0.74766952  0.51468549  1
  O  O184  1  0.11458404  0.22409217  0.51070365  1
  O  O185  1  0.13058963  0.24050333  0.99024148  1
  O  O186  1  0.13718889  0.73922539  0.50903367  1
  O  O187  1  0.17381273  0.79688202  1.00975654  1
  O  O188  1  0.65440941  0.25091721  0.47596968  1
  O  O189  1  0.64001227  0.24918731  1.01111915  1
  O  O190  1  0.62574929  0.76067464  0.48974677  1
  O  O191  1  0.63518358  0.75815854  0.99475669  1
  O  O192  1  0.47658398  0.24490752  0.12188901  1
  O  O193  1  0.50843253  0.22895024  0.60085295  1
  O  O194  1  0.51339884  0.74299554  0.14441368  1
  O  O195  1  0.48053932  0.75992303  0.60392922  1
  O  O196  1  0.99268607  0.24597460  0.11659184  1
  O  O197  1  0.99584620  0.22753036  0.64234185  1
  O  O198  1  1.01141735  0.73077782  0.09781640  1
  O  O199  1  0.98139503  0.75799981  0.62220485  1
  O  O200  1  0.01316417  0.28965803  0.38608346  1
  O  O201  1  0.00113860  0.25566225  0.87389402  1
  O  O202  1  -0.01170035  0.74663611  0.39313798  1
  O  O203  1  0.00924535  0.76920816  0.89554147  1
  O  O204  1  0.47150144  0.26011840  0.35111013  1
  O  O205  1  0.48592272  0.28472707  0.92510618  1
  O  O206  1  0.50965017  0.76011884  0.37094436  1
  O  O207  1  0.51162260  0.76457803  0.86736940  1
  O  O208  1  0.23097058  0.11050601  0.47667751  1
  O  O209  1  0.20813295  0.07912470  0.98300213  1
  O  O210  1  0.29200862  0.65761083  0.51375523  1
  O  O211  1  0.23949914  0.60013838  0.97940024  1
  O  O212  1  0.77221732  0.16776498  0.54561561  1
  O  O213  1  0.74888489  0.13128046  0.99499640  1
  O  O214  1  0.74442310  0.64329232  0.48650156  1
  O  O215  1  0.75549113  0.64814799  1.01056597  1
  O  O216  1  0.24735864  0.37838271  0.00285360  1
  O  O217  1  0.25244518  0.37449248  0.52876993  1
  O  O218  1  0.23021321  0.84320238  -0.00065596  1
  O  O219  1  0.24107813  0.86908018  0.50166498  1
  O  O220  1  0.76758855  0.34324578  -0.03537802  1
  O  O221  1  0.71135499  0.29447914  0.44396951  1
  O  O222  1  0.75640518  0.88100839  0.01110997  1
  O  O223  1  0.74765161  0.86438851  0.51407763  1
  O  O224  1  0.14531326  0.50368103  0.23514224  1
  O  O225  1  0.11828845  0.48197184  0.73089980  1
  O  O226  1  0.12913951  0.99017771  0.24750210  1
  O  O227  1  0.11930957  1.00356499  0.73337483  1
  O  O228  1  0.62327266  0.48428485  0.24259606  1
  O  O229  1  0.64034425  0.50063247  0.72291949  1
  O  O230  1  0.62764497  0.99420258  0.24527301  1
  O  O231  1  0.63934605  1.01166489  0.75911667  1
  O  O232  1  0.35412444  -0.01625425  0.24415694  1
  O  O233  1  0.39133012  0.01353191  0.76307751  1
  O  O234  1  0.36891741  0.50712136  0.24479084  1
  O  O235  1  0.39709121  0.43425822  0.73786123  1
  O  O236  1  0.85817350  0.01590728  0.24537184  1
  O  O237  1  0.86725539  0.00295225  0.76536674  1
  O  O238  1  0.85315207  0.48834739  0.24032042  1
  O  O239  1  0.86476752  0.51784595  0.75312515  1
  O  O240  1  0.10193616  0.40302613  0.39726449  1
  O  O241  1  0.11954301  0.35944628  0.86409476  1
  O  O242  1  0.10531985  0.87327219  0.36803471  1
  O  O243  1  0.10670155  0.90008913  0.88013942  1
  O  O244  1  0.61058238  0.36728144  0.35420222  1
  O  O245  1  0.60823784  0.37641815  0.88319253  1
  O  O246  1  0.61492444  0.87132337  0.36725200  1
  O  O247  1  0.60580801  0.87196744  0.88689444  1
  O  O248  1  0.37379670  0.12813478  0.11962011  1
  O  O249  1  0.38938241  0.10644933  0.63694484  1
  O  O250  1  0.40304066  0.62245518  0.14722206  1
  O  O251  1  0.41670423  0.61033279  0.65048208  1
  O  O252  1  0.87235136  0.13374263  0.14241132  1
  O  O253  1  0.88865483  0.10834902  0.64780734  1
  O  O254  1  0.89393993  0.62042774  0.11881477  1
  O  O255  1  0.87097918  0.64254836  0.63198035  1
  O  O256  1  0.25526604  0.26871629  0.12639475  1
  O  O257  1  0.25174251  0.20234608  0.61100441  1
  O  O258  1  0.26861495  0.68939559  0.09931937  1
  O  O259  1  0.25528664  0.77832569  0.61480913  1
  O  O260  1  0.75952936  0.24760019  0.11306666  1
  O  O261  1  0.75263708  0.21591988  0.60289760  1
  O  O262  1  0.73299046  0.77326412  0.11179095  1
  O  O263  1  0.74415933  0.75485790  0.61495056  1
  O  O264  1  0.26106994  0.22707699  0.37276962  1
  O  O265  1  0.24060013  0.25080412  0.86610497  1
  O  O266  1  0.24593766  0.75265210  0.39192055  1
  O  O267  1  0.24557693  0.71610444  0.90168396  1
  O  O268  1  0.75693549  0.25345414  0.39187622  1
  O  O269  1  0.75254713  0.28422055  0.90314688  1
  O  O270  1  0.73678518  0.76729882  0.39137900  1
  O  O271  1  0.73990958  0.77018895  0.89394229  1
  O  O272  1  0.02248069  0.11026493  -0.01028854  1
  O  O273  1  -0.00711561  0.11543551  0.51453636  1
  O  O274  1  -0.00020060  0.60499395  -0.00200571  1
  O  O275  1  0.07476961  0.61483959  0.44371878  1
  O  O276  1  0.49747922  0.13050322  0.01916496  1
  O  O277  1  0.49012096  0.10459244  0.51031794  1
  O  O278  1  0.50130459  0.64325145  0.01841036  1
  O  O279  1  0.50668143  0.62440178  0.50879571  1
  O  O280  1  0.51171763  0.38925384  0.49388676  1
  O  O281  1  0.48551332  0.33904682  0.97604607  1
  O  O282  1  0.50242296  0.88964446  0.48506220  1
  O  O283  1  0.47392559  0.87473027  1.02792623  1
  O  O284  1  0.98724407  0.41048971  0.48329467  1
  O  O285  1  1.00656384  0.37865543  0.98844494  1
  O  O286  1  0.99754764  0.88005089  0.48593093  1
  O  O287  1  0.98109676  0.87862985  1.00360297  1
  O  O288  1  0.53255326  0.51285982  0.40095267  1
  O  O289  1  0.55705129  0.42733210  0.86524588  1
  O  O290  1  0.49326542  0.99132474  0.38033142  1
  O  O291  1  0.49625000  0.98401330  0.87955511  1
  O  O292  1  0.99294881  0.49664062  0.36186128  1
  O  O293  1  1.01339365  0.48531937  0.88683085  1
  O  O294  1  0.99047139  0.99918210  0.38926641  1
  O  O295  1  0.98494723  0.99209965  0.87469984  1
  O  O296  1  0.00867653  0.00105347  0.14528623  1
  O  O297  1  0.00173451  0.00130277  0.62147519  1
  O  O298  1  0.00953145  0.49779185  0.11446845  1
  O  O299  1  0.03155307  0.53665078  0.61855050  1
  O  O300  1  0.50573375  0.01680312  0.13733867  1
  O  O301  1  0.51161927  -0.00461863  0.60505803  1
  O  O302  1  0.51265185  0.51281455  0.11909251  1
  O  O303  1  0.53018030  0.49132734  0.61242620  1
  O  O304  1  0.26405402  0.39300617  0.22996314  1
  O  O305  1  0.22146128  0.35399209  0.71485292  1
  O  O306  1  0.23232017  0.88292026  0.26499213  1
  O  O307  1  0.27251060  0.89366824  0.71827071  1
  O  O308  1  0.73243018  0.38380018  0.25622298  1
  O  O309  1  0.76711675  0.39407861  0.74618003  1
  O  O310  1  0.74052286  0.88970457  0.24243836  1
  O  O311  1  0.75081724  0.88997933  0.74487447  1
  O  O312  1  0.24598563  0.11129232  0.26440270  1
  O  O313  1  0.25648706  0.10883818  0.74839126  1
  O  O314  1  0.26396425  0.61269206  0.24892908  1
  O  O315  1  0.27122353  0.63017545  0.77335021  1
  O  O316  1  0.73509040  0.11430675  0.25536491  1
  O  O317  1  0.76546562  0.10920077  0.74801867  1
  O  O318  1  0.72767907  0.59680990  0.26551691  1
  O  O319  1  0.76195557  0.61636437  0.74974521  1
  O  O320  1  0.37279515  0.11874980  0.38142996  1
  O  O321  1  0.37827253  0.11222032  0.86178239  1
  O  O322  1  0.38250783  0.62206244  0.35634860  1
  O  O323  1  0.35894181  0.61407164  0.88599475  1
  O  O324  1  0.87320139  0.13566222  0.35543806  1
  O  O325  1  0.88158045  0.10941922  0.86897887  1
  O  O326  1  0.84369456  0.64076061  0.36095235  1
  O  O327  1  0.86758008  0.64127658  0.87813434  1
  O  O328  1  0.13915816  0.38437814  0.12101628  1
  O  O329  1  0.08743783  0.36083570  0.62734758  1
  O  O330  1  0.11348798  0.88042565  0.15410512  1
  O  O331  1  0.11533179  0.88538284  0.62444383  1
  O  O332  1  0.61666636  0.39321933  0.12749347  1
  O  O333  1  0.64551310  0.36950483  0.61365726  1
  O  O334  1  0.62495060  0.88955746  0.13489207  1
  O  O335  1  0.63369729  0.89229142  0.62531457  1
  O  O336  1  0.15183822  0.26269704  0.25423897  1
  O  O337  1  0.11413375  0.24682978  0.75850898  1
  O  O338  1  0.13778936  0.75688088  0.24828843  1
  O  O339  1  0.20387241  0.78750336  0.79012179  1
  O  O340  1  0.61246369  0.26664837  0.22795852  1
  O  O341  1  0.64257553  0.21397906  0.79664862  1
  O  O342  1  0.61922380  0.76478651  0.26064975  1
  O  O343  1  0.64600869  0.76145245  0.76979498  1
  O  O344  1  0.37127705  0.25780084  0.22933493  1
  O  O345  1  0.36566911  0.22460467  0.74116151  1
  O  O346  1  0.38812016  0.74532343  0.25341272  1
  O  O347  1  0.37282447  0.73661122  0.76896795  1
  O  O348  1  0.87134266  0.24030496  0.23901142  1
  O  O349  1  0.87827649  0.22913667  0.76340572  1
  O  O350  1  0.80098563  0.72681897  0.22595870  1
  O  O351  1  0.86478318  0.74209078  0.74545996  1
  O  O352  1  0.39916099  0.50242952  0.50939043  1
  O  O353  1  0.37596797  0.52377643  1.00762398  1
  O  O354  1  0.37329891  1.00082037  0.49538433  1
  O  O355  1  0.36801352  1.01151073  0.98188465  1
  O  O356  1  0.90368175  0.56848602  0.49411619  1
  O  O357  1  0.88693079  0.49343315  1.00442995  1
  O  O358  1  0.88450771  1.00031455  0.50747289  1
  O  O359  1  0.86561518  0.99483077  0.99016210  1
  O  O360  1  0.11789118  -0.03389679  0.03368081  1
  O  O361  1  0.10138609  0.00628689  0.50735077  1
  O  O362  1  0.11647148  0.49221498  0.00868526  1
  O  O363  1  0.16371460  0.52813192  0.53107490  1
  O  O364  1  0.62137540  -0.00127655  0.01745940  1
  O  O365  1  0.63568876  0.00230270  0.50386804  1
  O  O366  1  0.64232136  0.49716455  0.01262454  1
  O  O367  1  0.64167824  0.50183601  0.51729674  1
  O  O368  1  0.36712939  0.36895019  0.10831373  1
  O  O369  1  0.37803733  0.40044446  0.67315968  1
  O  O370  1  0.36855752  0.86948236  0.11127505  1
  O  O371  1  0.37540004  0.89147719  0.60397996  1
  O  O372  1  0.87938834  0.35378854  0.12981419  1
  O  O373  1  0.90725392  0.40160090  0.61910279  1
  O  O374  1  0.86401014  0.88969526  0.11837032  1
  O  O375  1  0.85831146  0.86263745  0.63688837  1
  O  O376  1  0.10477416  0.12799366  0.38759008  1
  O  O377  1  0.12084048  0.14128190  0.87662305  1
  O  O378  1  0.11837059  0.61439582  0.38339945  1
  O  O379  1  0.15129589  0.61103836  0.85330842  1
  O  O380  1  0.58437006  0.13926922  0.38389822  1
  O  O381  1  0.60851639  0.16964523  0.84814730  1
  O  O382  1  0.63683656  0.64951238  0.37084077  1
  O  O383  1  0.62494571  0.65161591  0.88164367  1
