# generated using pymatgen
data_VZnO4
_symmetry_space_group_name_H-M   'P 1'
_cell_length_a   16.92597417
_cell_length_b   16.93958917
_cell_length_c   16.93059724
_cell_angle_alpha   89.82579560
_cell_angle_beta   90.06520655
_cell_angle_gamma   89.85095562
_symmetry_Int_Tables_number   1
_chemical_formula_structural   VZnO4
_chemical_formula_sum   'V64 Zn64 O256'
_cell_volume   4854.28268858
_cell_formula_units_Z   64
loop_
 _symmetry_equiv_pos_site_id
 _symmetry_equiv_pos_as_xyz
  1  'x, y, z'
loop_
 _atom_site_type_symbol
 _atom_site_label
 _atom_site_symmetry_multiplicity
 _atom_site_fract_x
 _atom_site_fract_y
 _atom_site_fract_z
 _atom_site_occupancy
  V  V0  1  0.11752314  0.86754826  0.72653199  1
  V  V1  1  0.73475977  0.48665163  0.74671408  1
  V  V2  1  0.11438664  0.60971375  -0.00036083  1
  V  V3  1  0.38187006  0.76640997  0.62850571  1
  V  V4  1  0.37069311  0.88701887  -0.00500241  1
  V  V5  1  0.89476866  0.01155618  0.89892684  1
  V  V6  1  0.37671716  0.14420363  0.75583496  1
  V  V7  1  0.87395243  0.39626990  0.50817324  1
  V  V8  1  0.72696529  0.37778206  0.13144919  1
  V  V9  1  0.22906255  0.16618932  0.85377698  1
  V  V10  1  0.48335935  0.24303841  0.23990462  1
  V  V11  1  0.49998706  0.50570917  0.00816684  1
  V  V12  1  0.62858549  0.62691122  0.01511543  1
  V  V13  1  0.76284870  0.25187064  0.50489212  1
  V  V14  1  0.49124574  0.74988030  0.26556202  1
  V  V15  1  0.50026911  0.89504749  0.37873533  1
  V  V16  1  0.38801058  0.50377610  0.38691848  1
  V  V17  1  0.74876387  0.62387315  0.87369818  1
  V  V18  1  0.24876703  -0.01167941  0.76601463  1
  V  V19  1  0.25086369  -0.00808533  0.25219546  1
  V  V20  1  0.24618719  0.62603208  0.87722780  1
  V  V21  1  0.72249559  0.61961842  0.37890154  1
  V  V22  1  0.27670375  0.50640929  0.24309763  1
  V  V23  1  -0.00638131  -0.01073518  0.48066554  1
  V  V24  1  0.13014070  0.14813641  0.01747669  1
  V  V25  1  0.39018904  0.63825929  0.75070962  1
  V  V26  1  0.48823194  0.00313095  0.51061231  1
  V  V27  1  0.50572927  0.36767216  0.87852410  1
  V  V28  1  0.13434372  0.01707063  0.61269594  1
  V  V29  1  -0.00839802  0.61852726  0.13396780  1
  V  V30  1  0.37507210  0.49745377  0.88407568  1
  V  V31  1  0.49591795  0.36447716  0.38244006  1
  V  V32  1  -0.03461522  0.12453617  0.61721587  1
  V  V33  1  0.62718154  0.87251235  0.23575961  1
  V  V34  1  0.51921763  0.11598082  0.12457382  1
  V  V35  1  0.75217508  0.12899577  0.88082558  1
  V  V36  1  0.24802915  0.62165128  0.38206371  1
  V  V37  1  0.00323465  0.35811743  0.86736387  1
  V  V38  1  0.63077466  0.24662878  0.36961205  1
  V  V39  1  0.12116359  0.48982520  0.13643361  1
  V  V40  1  0.73624847  0.01712610  0.26497326  1
  V  V41  1  0.02851738  0.25998248  0.24510454  1
  V  V42  1  0.73025038  0.24746185  0.00383157  1
  V  V43  1  0.76798334  0.74958938  0.49648891  1
  V  V44  1  0.75635109  0.76541579  0.00747206  1
  V  V45  1  0.50594151  0.49593773  0.52756475  1
  V  V46  1  0.48309501  0.64602852  0.12348362  1
  V  V47  1  0.63814888  0.11377791  0.51170443  1
  V  V48  1  0.11367046  0.74792034  0.37074146  1
  V  V49  1  0.25059105  0.49940231  0.73242988  1
  V  V50  1  0.87785444  0.75734402  0.12812405  1
  V  V51  1  0.28948607  0.37228497  0.12439510  1
  V  V52  1  0.88669914  0.72642536  0.62396048  1
  V  V53  1  0.87925844  0.50333505  0.87816162  1
  V  V54  1  0.10661626  0.76489150  0.87833601  1
  V  V55  1  0.52241190  0.00492219  -0.01158963  1
  V  V56  1  0.62593555  0.76478225  0.87114609  1
  V  V57  1  -0.00443047  0.39042490  0.37923413  1
  V  V58  1  0.24881284  0.75223296  0.50995071  1
  V  V59  1  0.88063529  0.36644453  0.00841428  1
  V  V60  1  -0.01718040  0.13005210  0.13158416  1
  V  V61  1  0.24781599  0.75475512  0.01035136  1
  V  V62  1  0.86399668  0.60920238  0.26283931  1
  V  V63  1  0.13454069  0.25419804  0.38861518  1
  Zn  Zn64  1  0.21120778  0.19769057  0.19528635  1
  Zn  Zn65  1  0.18482792  0.20780905  0.57530903  1
  Zn  Zn66  1  0.18907125  0.67776198  0.19314076  1
  Zn  Zn67  1  0.18112282  0.68594039  0.69548869  1
  Zn  Zn68  1  0.68762112  0.19732417  0.18848789  1
  Zn  Zn69  1  0.75804610  0.14572906  0.65633103  1
  Zn  Zn70  1  0.68612002  0.69180856  0.19257568  1
  Zn  Zn71  1  0.74594961  0.73938447  0.72071714  1
  Zn  Zn72  1  0.31713622  0.31799494  0.30606642  1
  Zn  Zn73  1  0.23549385  0.30472912  0.71910603  1
  Zn  Zn74  1  0.32340442  0.80555208  0.32741704  1
  Zn  Zn75  1  0.30888549  0.82212716  0.81660414  1
  Zn  Zn76  1  0.80868753  0.33143017  0.32103881  1
  Zn  Zn77  1  0.80776866  0.31367804  0.81895863  1
  Zn  Zn78  1  0.79947597  0.79320983  0.29887749  1
  Zn  Zn79  1  0.93831819  0.80544514  0.79663582  1
  Zn  Zn80  1  0.20469981  0.41291860  0.40553039  1
  Zn  Zn81  1  0.19509574  0.42040771  0.94821488  1
  Zn  Zn82  1  0.18367241  0.92387850  0.43560605  1
  Zn  Zn83  1  0.07182715  0.95761491  0.96052859  1
  Zn  Zn84  1  0.68407376  0.43485708  0.43805560  1
  Zn  Zn85  1  0.68521595  0.43754125  0.94341909  1
  Zn  Zn86  1  0.68384105  0.92553196  0.42575592  1
  Zn  Zn87  1  0.70195674  0.94467293  0.93245869  1
  Zn  Zn88  1  0.25162771  0.03141692  -0.03516739  1
  Zn  Zn89  1  0.31601097  0.06027824  0.58511812  1
  Zn  Zn90  1  0.31130297  0.57323718  0.06078358  1
  Zn  Zn91  1  0.32982156  0.57204898  0.56376148  1
  Zn  Zn92  1  0.81471793  0.06602173  0.06250892  1
  Zn  Zn93  1  0.81725376  0.05173960  0.51303132  1
  Zn  Zn94  1  0.80818880  0.54845315  0.06314550  1
  Zn  Zn95  1  0.79707889  0.56837810  0.56589622  1
  Zn  Zn96  1  0.47050683  0.44270370  0.19643513  1
  Zn  Zn97  1  0.41397058  0.42391443  0.70718146  1
  Zn  Zn98  1  0.43987046  0.92676331  0.17433102  1
  Zn  Zn99  1  0.41013936  0.96071570  0.67894984  1
  Zn  Zn100  1  0.93141286  0.43332030  0.19104472  1
  Zn  Zn101  1  0.92582859  0.44304156  0.69919509  1
  Zn  Zn102  1  0.98667974  0.92285977  0.12757230  1
  Zn  Zn103  1  0.95336187  0.96630282  0.69482614  1
  Zn  Zn104  1  0.07218740  0.08126442  0.31228191  1
  Zn  Zn105  1  0.05870579  0.06620285  0.79643006  1
  Zn  Zn106  1  0.06731252  0.56561449  0.30883142  1
  Zn  Zn107  1  0.08856792  0.50692368  0.83810426  1
  Zn  Zn108  1  0.56567241  0.06823995  0.31473333  1
  Zn  Zn109  1  0.56311289  0.07314793  0.80400716  1
  Zn  Zn110  1  0.56047491  0.56305651  0.30259030  1
  Zn  Zn111  1  0.56533166  0.56926242  0.82163208  1
  Zn  Zn112  1  0.45836025  0.19178115  0.46791772  1
  Zn  Zn113  1  0.44996991  0.16790763  0.91473689  1
  Zn  Zn114  1  0.44339216  0.67997899  0.45240378  1
  Zn  Zn115  1  0.42697268  0.71910780  0.92604113  1
  Zn  Zn116  1  0.95478120  0.19249991  0.43760187  1
  Zn  Zn117  1  0.94338592  0.19115293  0.94621925  1
  Zn  Zn118  1  0.94386490  0.66396187  0.44793405  1
  Zn  Zn119  1  0.93637397  0.68273178  0.94673853  1
  Zn  Zn120  1  0.06426666  0.31683895  0.05879490  1
  Zn  Zn121  1  0.05400914  0.30999427  0.57865759  1
  Zn  Zn122  1  0.09149225  0.79536750  0.08587641  1
  Zn  Zn123  1  0.05902276  0.80054475  0.54289885  1
  Zn  Zn124  1  0.54713447  0.30681567  0.05539090  1
  Zn  Zn125  1  0.59568676  0.34280353  0.54138680  1
  Zn  Zn126  1  0.56082331  0.82218135  0.05315489  1
  Zn  Zn127  1  0.54861813  0.85607566  0.59313885  1
  O  O128  1  0.14575683  0.14682451  0.11682860  1
  O  O129  1  0.12652431  0.11618638  0.62104758  1
  O  O130  1  0.11103468  0.61705842  0.11874120  1
  O  O131  1  0.09444926  0.62054773  0.64148448  1
  O  O132  1  0.61715629  0.12528259  0.12346009  1
  O  O133  1  0.65344090  0.11881937  0.61240383  1
  O  O134  1  0.62034783  0.63201575  0.11683829  1
  O  O135  1  0.61100944  0.67402135  0.60471177  1
  O  O136  1  0.38814275  0.38855865  0.36952790  1
  O  O137  1  0.37926534  0.40029344  0.88908854  1
  O  O138  1  0.40230162  0.86793827  0.38060413  1
  O  O139  1  0.38267432  0.83078320  0.90319552  1
  O  O140  1  0.88638612  0.37606135  0.38686616  1
  O  O141  1  0.88623087  0.38065139  0.88133051  1
  O  O142  1  0.89395836  0.87246279  0.34145608  1
  O  O143  1  0.88097500  0.90373755  0.85125834  1
  O  O144  1  0.25164088  -0.00754845  0.35912704  1
  O  O145  1  0.21810375  -0.00865922  0.86104926  1
  O  O146  1  0.26688328  0.50128756  0.36485383  1
  O  O147  1  0.26237084  0.51010067  0.88468403  1
  O  O148  1  0.75528783  -0.00677720  0.36223504  1
  O  O149  1  0.77071057  0.02168125  0.88716624  1
  O  O150  1  0.73477702  0.51903080  0.38452576  1
  O  O151  1  0.74768193  0.51168168  0.87548625  1
  O  O152  1  0.25378016  0.50410920  0.13548433  1
  O  O153  1  0.25811896  0.52068200  0.63565059  1
  O  O154  1  0.23392922  0.97030421  0.15332501  1
  O  O155  1  0.23930762  0.99922941  0.64444893  1
  O  O156  1  0.73939452  0.47780411  0.11745328  1
  O  O157  1  0.75204172  0.50724902  0.64893192  1
  O  O158  1  0.77435374  0.99597608  0.15166318  1
  O  O159  1  0.75347973  0.98025974  0.59810849  1
  O  O160  1  -0.01673080  0.35900733  0.26348834  1
  O  O161  1  -0.00522208  0.37955678  0.76834633  1
  O  O162  1  -0.04126214  0.87362439  0.30782935  1
  O  O163  1  0.01250486  0.87790952  0.74532999  1
  O  O164  1  0.49550499  0.34676059  0.26368497  1
  O  O165  1  0.48357647  0.36930286  0.77953779  1
  O  O166  1  0.50250750  0.87037982  0.25673517  1
  O  O167  1  0.59473971  0.92331840  0.73025087  1
  O  O168  1  0.50333743  0.13058334  0.23691756  1
  O  O169  1  0.47851355  0.14759327  0.78993962  1
  O  O170  1  0.50685390  0.64438750  0.23302153  1
  O  O171  1  0.48751832  0.63600001  0.76671399  1
  O  O172  1  1.01208340  0.14996079  0.24150685  1
  O  O173  1  0.97839437  0.08334348  0.71643458  1
  O  O174  1  0.98660319  0.61780247  0.23904270  1
  O  O175  1  1.03891375  0.58330637  0.68434326  1
  O  O176  1  0.32515110  0.10013248  0.08951171  1
  O  O177  1  0.39656223  0.24213946  0.55393401  1
  O  O178  1  0.34486039  0.72907946  0.01386047  1
  O  O179  1  0.36684207  0.73607568  0.52049330  1
  O  O180  1  0.86820879  0.26412796  -0.00177031  1
  O  O181  1  0.86263854  0.24496041  0.48328821  1
  O  O182  1  0.86544038  0.74431174  0.01419289  1
  O  O183  1  0.87324612  0.74715343  0.50459232  1
  O  O184  1  0.11317567  0.24995055  0.48938936  1
  O  O185  1  0.12452019  0.24805841  0.99279672  1
  O  O186  1  0.14341377  0.73849331  0.48890989  1
  O  O187  1  0.11858194  0.73136960  0.98658603  1
  O  O188  1  0.63721075  0.24642519  0.49600606  1
  O  O189  1  0.63157801  0.24847272  0.99835100  1
  O  O190  1  0.61532888  0.72866984  0.55633414  1
  O  O191  1  0.63988073  0.74544072  1.00204283  1
  O  O192  1  0.49297876  0.23575726  0.13272369  1
  O  O193  1  0.42516659  0.30185374  0.59781123  1
  O  O194  1  0.49732288  0.74712501  0.11758704  1
  O  O195  1  0.48215232  0.77034403  0.62931906  1
  O  O196  1  1.00736344  0.25488634  0.14201375  1
  O  O197  1  0.98588439  0.22198697  0.62210824  1
  O  O198  1  0.98700559  0.72505498  0.11830862  1
  O  O199  1  0.98334713  0.75417583  0.61409556  1
  O  O200  1  0.01665897  0.25300745  0.36213259  1
  O  O201  1  0.00327241  0.25915947  0.87302827  1
  O  O202  1  0.01573142  0.73062726  0.39103241  1
  O  O203  1  0.00102868  0.74270929  0.87305699  1
  O  O204  1  0.49871033  0.25499246  0.38117282  1
  O  O205  1  0.48744354  0.27519851  0.91852407  1
  O  O206  1  0.49696507  0.73994898  0.36668950  1
  O  O207  1  0.52698147  0.74967699  0.88361225  1
  O  O208  1  0.28529166  0.14791112  0.44237375  1
  O  O209  1  0.23318659  0.15034761  0.96205406  1
  O  O210  1  0.26003211  0.62228804  0.48539670  1
  O  O211  1  0.23211357  0.63037330  0.99628678  1
  O  O212  1  0.74453842  0.13734254  0.48639871  1
  O  O213  1  0.75122410  0.13635857  0.99449614  1
  O  O214  1  0.74039400  0.63815671  0.49038928  1
  O  O215  1  0.73593005  0.62191245  1.00430928  1
  O  O216  1  0.26521403  0.38515566  0.02568958  1
  O  O217  1  0.20182748  0.41163145  0.52411361  1
  O  O218  1  0.25697991  0.85613344  -0.00659994  1
  O  O219  1  0.25606145  0.85000109  0.49200805  1
  O  O220  1  0.75108104  0.36201981  0.00574727  1
  O  O221  1  0.76447178  0.36454596  0.49181927  1
  O  O222  1  0.75521137  0.86329600  0.00230884  1
  O  O223  1  0.72580025  0.84152509  0.49162715  1
  O  O224  1  0.14080013  0.50729728  0.23755884  1
  O  O225  1  0.15184415  0.48665253  0.74820292  1
  O  O226  1  0.14532093  0.99791736  0.26162619  1
  O  O227  1  0.12419934  0.98299404  0.72998073  1
  O  O228  1  0.57132176  0.47936320  0.23375318  1
  O  O229  1  0.63614851  0.50932854  0.75883184  1
  O  O230  1  0.63075677  0.99086560  0.25443782  1
  O  O231  1  0.63123407  0.99131309  0.74974737  1
  O  O232  1  0.35471564  -0.00721440  0.24303791  1
  O  O233  1  0.34702058  -0.04299273  0.77399841  1
  O  O234  1  0.37820549  0.50499050  0.25724962  1
  O  O235  1  0.37091812  0.52366325  0.76951536  1
  O  O236  1  0.83263227  -0.00508584  0.21116336  1
  O  O237  1  0.87163877  -0.03559719  0.79322486  1
  O  O238  1  0.86647026  0.51059818  0.24537295  1
  O  O239  1  0.85475793  0.49768185  0.77346967  1
  O  O240  1  0.10124911  0.37063849  0.37791026  1
  O  O241  1  0.10150730  0.39928066  0.88841352  1
  O  O242  1  0.12667480  0.84809894  0.37505457  1
  O  O243  1  0.10862161  0.86225740  0.88633302  1
  O  O244  1  0.60808700  0.36091716  0.38092260  1
  O  O245  1  0.60572592  0.38101778  0.88448504  1
  O  O246  1  0.60506983  0.87396573  0.35762796  1
  O  O247  1  0.64013717  0.86383401  0.88471440  1
  O  O248  1  0.37303908  0.12919717  0.13695426  1
  O  O249  1  0.39089323  0.07894645  0.67237332  1
  O  O250  1  0.38481869  0.63240734  0.12685739  1
  O  O251  1  0.38131177  0.63433044  0.64672214  1
  O  O252  1  0.88414448  0.13790575  0.12262415  1
  O  O253  1  0.86125727  0.10824788  0.61145004  1
  O  O254  1  0.88573120  0.61133657  0.12338970  1
  O  O255  1  0.88437666  0.62646985  0.62388611  1
  O  O256  1  0.27389392  0.27416769  0.14464012  1
  O  O257  1  0.27806255  0.15542823  0.53422866  1
  O  O258  1  0.20866787  0.75290308  0.10803909  1
  O  O259  1  0.24595421  0.73557241  0.61346816  1
  O  O260  1  0.74740324  0.25493473  0.11005103  1
  O  O261  1  0.75749851  0.25131792  0.60418239  1
  O  O262  1  0.76263733  0.74496437  0.11669635  1
  O  O263  1  0.77042111  0.74198884  0.60714541  1
  O  O264  1  0.23302550  0.29707959  0.38194654  1
  O  O265  1  0.22812941  0.26276247  0.82883617  1
  O  O266  1  0.25513444  0.73099404  0.38146596  1
  O  O267  1  0.22645784  0.73910913  0.88508795  1
  O  O268  1  0.73239203  0.25925679  0.37557356  1
  O  O269  1  0.75642134  0.24126407  0.89397718  1
  O  O270  1  0.75977506  0.73275337  0.38621956  1
  O  O271  1  0.75057980  0.73494271  0.89887360  1
  O  O272  1  0.01545389  0.14134991  0.02530501  1
  O  O273  1  -0.01258968  0.11057380  0.50934902  1
  O  O274  1  0.00938770  0.61334561  0.00895357  1
  O  O275  1  -0.01926236  0.58436377  0.51630901  1
  O  O276  1  0.49160738  0.11342805  0.01337354  1
  O  O277  1  0.51970197  0.10797772  0.51431634  1
  O  O278  1  0.51159421  0.63208574  0.00968007  1
  O  O279  1  0.50481159  0.59552818  0.50804525  1
  O  O280  1  0.49199074  0.37595259  0.48685122  1
  O  O281  1  0.50148423  0.40331637  1.00427283  1
  O  O282  1  0.51908634  0.89310621  0.48653578  1
  O  O283  1  0.48934594  0.90158251  1.00118358  1
  O  O284  1  0.98730697  0.37307068  0.49122934  1
  O  O285  1  0.98540424  0.37139378  0.99223030  1
  O  O286  1  1.01591727  0.89079261  0.48971362  1
  O  O287  1  1.03378277  0.88066071  1.03243892  1
  O  O288  1  0.49523609  0.49057654  0.38096703  1
  O  O289  1  0.49007742  0.50353785  0.88549511  1
  O  O290  1  0.49828281  1.00075537  0.38570273  1
  O  O291  1  0.50721015  1.01743028  0.88991732  1
  O  O292  1  1.00222245  0.48867828  0.36483276  1
  O  O293  1  0.97913610  0.51160482  0.87087694  1
  O  O294  1  1.03171553  1.01382354  0.38912597  1
  O  O295  1  1.00003208  1.01164185  0.88456286  1
  O  O296  1  -0.00056960  0.03214475  0.14513961  1
  O  O297  1  0.01966955  0.00328967  0.59815880  1
  O  O298  1  0.01394404  0.50179358  0.13527376  1
  O  O299  1  0.01519866  0.51660112  0.65143868  1
  O  O300  1  0.49679294  0.01416834  0.12259818  1
  O  O301  1  0.50198392  -0.03018519  0.61052557  1
  O  O302  1  0.49289333  0.52364758  0.10947956  1
  O  O303  1  0.47879022  0.48026376  0.62227258  1
  O  O304  1  0.26220649  0.39828499  0.23801772  1
  O  O305  1  0.29157833  0.40323291  0.73775915  1
  O  O306  1  0.25611148  0.88616134  0.26770349  1
  O  O307  1  0.22248281  0.87459137  0.75911654  1
  O  O308  1  0.75458410  0.35909125  0.22867041  1
  O  O309  1  0.74280805  0.38595890  0.75983948  1
  O  O310  1  0.73001930  0.86994761  0.25165682  1
  O  O311  1  0.79362996  0.93346533  0.64528877  1
  O  O312  1  0.25310739  0.09461627  0.24355393  1
  O  O313  1  0.26172959  0.10187158  0.76167941  1
  O  O314  1  0.25785993  0.61298771  0.26250760  1
  O  O315  1  0.24620132  0.61684514  0.76512152  1
  O  O316  1  0.73111414  0.11686216  0.25833916  1
  O  O317  1  0.78728473  0.15709006  0.76933556  1
  O  O318  1  0.75284753  0.62872331  0.26661326  1
  O  O319  1  0.75272162  0.62747275  0.77378032  1
  O  O320  1  0.35257338  0.16622855  0.41244193  1
  O  O321  1  0.34730187  0.14528873  0.86382759  1
  O  O322  1  0.37503018  0.60794486  0.37938440  1
  O  O323  1  0.36027527  0.63799106  0.86778625  1
  O  O324  1  0.87556568  0.15790609  0.33258759  1
  O  O325  1  0.87853990  0.11659574  0.88790409  1
  O  O326  1  0.87719990  0.61981982  0.36109818  1
  O  O327  1  0.85869033  0.61204448  0.89638547  1
  O  O328  1  0.12882943  0.39063523  0.12317886  1
  O  O329  1  0.13753682  0.45682148  0.54883486  1
  O  O330  1  0.07107688  0.86081762  0.17562513  1
  O  O331  1  0.12343546  0.85993936  0.62822538  1
  O  O332  1  0.62767040  0.36226069  0.12247162  1
  O  O333  1  0.59843161  0.32964170  0.66726636  1
  O  O334  1  0.61432210  0.88254734  0.13616113  1
  O  O335  1  0.63276877  0.88397417  0.67205254  1
  O  O336  1  0.12942159  0.26563310  0.25253090  1
  O  O337  1  0.15511367  0.29326513  0.64085413  1
  O  O338  1  0.12472147  0.72778430  0.27110589  1
  O  O339  1  0.12109687  0.75985882  0.76658251  1
  O  O340  1  0.60962932  0.24183483  0.26736218  1
  O  O341  1  0.58746797  0.26355201  0.69811843  1
  O  O342  1  0.60966941  0.76436913  0.24129600  1
  O  O343  1  0.64837258  0.75487078  0.77194096  1
  O  O344  1  0.38534890  0.23787685  0.26080623  1
  O  O345  1  0.34820014  0.23122288  0.71902388  1
  O  O346  1  0.39227604  0.75802145  0.24858612  1
  O  O347  1  0.36115692  0.74491413  0.74195192  1
  O  O348  1  0.86894379  0.21541456  0.28525311  1
  O  O349  1  0.84369525  0.21679266  0.76049882  1
  O  O350  1  0.86786298  0.72652669  0.23124104  1
  O  O351  1  0.86338250  0.75939621  0.72506034  1
  O  O352  1  0.38523683  0.49535315  0.49164069  1
  O  O353  1  0.38856357  0.52579711  0.98871716  1
  O  O354  1  0.38970631  1.01272149  0.50689825  1
  O  O355  1  0.35380867  0.98530514  0.97689953  1
  O  O356  1  0.86024066  0.49391818  0.49877288  1
  O  O357  1  0.86054322  0.47991423  0.98448206  1
  O  O358  1  0.89276615  0.98740483  0.46584278  1
  O  O359  1  0.88218267  0.99431420  0.99832597  1
  O  O360  1  0.14029714  0.03882497  -0.00224836  1
  O  O361  1  0.15104560  -0.00335143  0.51422764  1
  O  O362  1  0.13662628  0.50877968  0.01930865  1
  O  O363  1  0.11877621  0.51350370  0.50315084  1
  O  O364  1  0.62086127  -0.00152320  -0.00118178  1
  O  O365  1  0.63852065  0.01394972  0.49182758  1
  O  O366  1  0.61098478  0.52008824  -0.00527142  1
  O  O367  1  0.60842415  0.46055762  0.52583685  1
  O  O368  1  0.38859529  0.38789723  0.13255311  1
  O  O369  1  0.36976746  0.35476193  0.61541084  1
  O  O370  1  0.37740563  0.87215625  0.09677916  1
  O  O371  1  0.35998603  0.86365071  0.63179302  1
  O  O372  1  0.87114722  0.38094719  0.10924675  1
  O  O373  1  0.88949842  0.38535348  0.60820532  1
  O  O374  1  0.89118655  0.85386998  0.13771440  1
  O  O375  1  0.86945260  0.91631247  0.62273069  1
  O  O376  1  0.14320555  0.15737442  0.36295903  1
  O  O377  1  0.13152005  0.13698964  0.84272804  1
  O  O378  1  0.14512565  0.61742254  0.37775118  1
  O  O379  1  0.12765280  0.60736866  0.88949547  1
  O  O380  1  0.61307958  0.14317643  0.39209558  1
  O  O381  1  0.65808898  0.12153884  0.84907855  1
  O  O382  1  0.62368963  0.62964765  0.36880043  1
  O  O383  1  0.63718013  0.63614794  0.89017412  1
