# generated using pymatgen
data_VZnO4
_symmetry_space_group_name_H-M   'P 1'
_cell_length_a   16.92938402
_cell_length_b   16.88580508
_cell_length_c   16.90993099
_cell_angle_alpha   90.08013730
_cell_angle_beta   89.93228008
_cell_angle_gamma   90.10016727
_symmetry_Int_Tables_number   1
_chemical_formula_structural   VZnO4
_chemical_formula_sum   'V64 Zn64 O256'
_cell_volume   4833.96356553
_cell_formula_units_Z   64
loop_
 _symmetry_equiv_pos_site_id
 _symmetry_equiv_pos_as_xyz
  1  'x, y, z'
loop_
 _atom_site_type_symbol
 _atom_site_label
 _atom_site_symmetry_multiplicity
 _atom_site_fract_x
 _atom_site_fract_y
 _atom_site_fract_z
 _atom_site_occupancy
  V  V0  1  0.24868041  0.23968615  -0.00747674  1
  V  V1  1  0.37005037  0.12996514  0.25804018  1
  V  V2  1  -0.00174172  0.37779885  0.87782349  1
  V  V3  1  0.62735584  0.49511338  0.14534128  1
  V  V4  1  0.86902779  0.86151520  -0.01162642  1
  V  V5  1  0.63457488  0.24763451  0.87715102  1
  V  V6  1  0.03826025  0.49822651  0.01046398  1
  V  V7  1  0.00719361  0.00701804  0.48980264  1
  V  V8  1  0.13508162  0.49449303  0.62660750  1
  V  V9  1  0.85983139  0.49007621  0.34899195  1
  V  V10  1  0.50681328  0.36819526  0.37820931  1
  V  V11  1  0.13564418  0.62212744  0.47961229  1
  V  V12  1  0.89469875  0.23993997  0.13410909  1
  V  V13  1  0.86463937  0.73684280  0.12393339  1
  V  V14  1  0.14431053  0.24095369  0.37760536  1
  V  V15  1  0.12342424  0.36451219  0.24391270  1
  V  V16  1  0.51790802  0.02145002  0.49702787  1
  V  V17  1  0.48524740  0.62251963  0.15784973  1
  V  V18  1  -0.00227281  0.36029200  0.36577418  1
  V  V19  1  0.74949105  0.24515803  0.01417514  1
  V  V20  1  0.74884072  0.65425648  0.36231026  1
  V  V21  1  0.39238435  0.25022399  0.63637221  1
  V  V22  1  0.63255904  -0.00007115  0.65264233  1
  V  V23  1  0.50566986  0.86768183  0.36611391  1
  V  V24  1  0.63256460  0.50597876  0.62575220  1
  V  V25  1  0.13116100  0.86459658  0.26329578  1
  V  V26  1  0.36367231  0.00422478  0.38325947  1
  V  V27  1  0.24641523  0.50168520  0.25227306  1
  V  V28  1  0.87227415  0.36556862  0.49318879  1
  V  V29  1  0.74194545  0.23237533  0.49054297  1
  V  V30  1  0.76831439  0.11774299  0.86910951  1
  V  V31  1  0.63886966  0.37646632  0.75452814  1
  V  V32  1  0.62745557  0.63542025  0.49455905  1
  V  V33  1  0.26854987  0.74987294  0.50159267  1
  V  V34  1  0.88596869  0.23817396  0.63892564  1
  V  V35  1  0.37965687  0.24753404  0.12698875  1
  V  V36  1  0.49976532  0.37409262  0.87008389  1
  V  V37  1  0.24685542  -0.01307244  0.73954074  1
  V  V38  1  0.37939292  0.88305995  0.52257306  1
  V  V39  1  0.50786434  0.25611498  0.25058404  1
  V  V40  1  0.76013981  0.87886634  0.60912001  1
  V  V41  1  -0.01184298  -0.01450788  -0.00114258  1
  V  V42  1  0.35488873  0.13372788  0.77875964  1
  V  V43  1  0.86569402  0.38860923  0.01604705  1
  V  V44  1  0.74980975  0.90436423  0.13133243  1
  V  V45  1  0.50504068  0.50719315  -0.00045866  1
  V  V46  1  0.49587342  0.49659693  0.50170030  1
  V  V47  1  0.11553871  0.03114056  0.62438223  1
  V  V48  1  -0.00208031  0.49906365  0.49857135  1
  V  V49  1  -0.00696350  0.73132169  0.76112531  1
  V  V50  1  0.61312451  0.75481468  0.87034309  1
  V  V51  1  0.37687777  0.37774309  -0.00520075  1
  V  V52  1  0.11669971  0.11550352  0.02093107  1
  V  V53  1  0.86885626  0.00821456  0.37477741  1
  V  V54  1  0.24483375  0.00237207  0.23933169  1
  V  V55  1  0.25147563  0.85662070  0.11279949  1
  V  V56  1  0.25116527  0.25983093  0.52215161  1
  V  V57  1  0.03266067  0.63006588  0.12403878  1
  V  V58  1  0.11150294  0.24187375  0.87316708  1
  V  V59  1  0.37137066  0.50256527  0.36717654  1
  V  V60  1  0.39488432  0.88245623  0.00341370  1
  V  V61  1  0.00493880  0.74526950  0.25908983  1
  V  V62  1  0.25058861  0.37691837  0.12413951  1
  V  V63  1  0.75823338  0.37387036  0.62843826  1
  Zn  Zn64  1  0.19335304  0.18863718  0.18875540  1
  Zn  Zn65  1  0.18329295  0.18985127  0.69611047  1
  Zn  Zn66  1  0.22859463  0.70718376  0.21586537  1
  Zn  Zn67  1  0.12126160  0.71915987  0.62974470  1
  Zn  Zn68  1  0.68084946  0.17955485  0.19066988  1
  Zn  Zn69  1  0.70447855  0.18653737  0.68497108  1
  Zn  Zn70  1  0.67131927  0.67857276  0.17046551  1
  Zn  Zn71  1  0.68667843  0.70067441  0.67658293  1
  Zn  Zn72  1  0.32016447  0.32393332  0.31855388  1
  Zn  Zn73  1  0.31222423  0.34764840  0.77370337  1
  Zn  Zn74  1  0.31380350  0.81904027  0.32691310  1
  Zn  Zn75  1  0.34283155  0.85775471  0.80865142  1
  Zn  Zn76  1  0.80227449  0.30129329  0.30379626  1
  Zn  Zn77  1  0.82217939  0.31694183  0.82187509  1
  Zn  Zn78  1  0.82368369  0.83224545  0.29698633  1
  Zn  Zn79  1  0.79509209  0.78774783  0.80518895  1
  Zn  Zn80  1  0.18605577  0.42879116  0.43612799  1
  Zn  Zn81  1  0.20188795  0.41694459  0.91643431  1
  Zn  Zn82  1  0.18954591  0.93386377  0.45112549  1
  Zn  Zn83  1  0.24976446  0.97820506  0.95146900  1
  Zn  Zn84  1  0.68456293  0.42896548  0.43878281  1
  Zn  Zn85  1  0.68769508  0.44064743  0.95348620  1
  Zn  Zn86  1  0.69099393  0.94148513  0.42635504  1
  Zn  Zn87  1  0.68733188  0.94133114  0.94223231  1
  Zn  Zn88  1  0.32942027  0.06487443  0.07028553  1
  Zn  Zn89  1  0.29855855  0.07911813  0.56499986  1
  Zn  Zn90  1  0.31471690  0.56302480  0.06555350  1
  Zn  Zn91  1  0.30947546  0.55815418  0.56487329  1
  Zn  Zn92  1  0.81391479  0.06339069  0.05253083  1
  Zn  Zn93  1  0.81974561  0.05396278  0.56706455  1
  Zn  Zn94  1  0.83068913  0.54336280  0.14235201  1
  Zn  Zn95  1  0.80375525  0.55203244  0.53656043  1
  Zn  Zn96  1  0.43833745  0.43530483  0.18824504  1
  Zn  Zn97  1  0.45691669  0.41423016  0.67003138  1
  Zn  Zn98  1  0.43369759  0.93185948  0.19161175  1
  Zn  Zn99  1  0.44057671  1.04498270  0.67224124  1
  Zn  Zn100  1  0.95124882  0.43227629  0.17763380  1
  Zn  Zn101  1  0.98487581  0.39021735  0.66503468  1
  Zn  Zn102  1  0.93541143  0.92816223  0.18975262  1
  Zn  Zn103  1  0.97272156  0.88528429  0.62510435  1
  Zn  Zn104  1  0.07428942  0.05521572  0.32169946  1
  Zn  Zn105  1  0.10790789  0.03148922  0.84143035  1
  Zn  Zn106  1  0.05934751  0.55139710  0.30874997  1
  Zn  Zn107  1  0.08567025  0.54756629  0.82487175  1
  Zn  Zn108  1  0.54353822  0.08201122  0.33266368  1
  Zn  Zn109  1  0.57586325  0.10202073  0.77019741  1
  Zn  Zn110  1  0.56693154  0.56352034  0.32223908  1
  Zn  Zn111  1  0.55652535  0.55452490  0.80823024  1
  Zn  Zn112  1  0.41721015  0.19552156  0.44780879  1
  Zn  Zn113  1  0.44396704  0.18838665  0.93095734  1
  Zn  Zn114  1  0.43927684  0.68619483  0.44002735  1
  Zn  Zn115  1  0.43465243  0.70204071  0.95130853  1
  Zn  Zn116  1  0.93322474  0.17712481  0.43234111  1
  Zn  Zn117  1  0.93848959  0.18327856  0.95679342  1
  Zn  Zn118  1  0.91824256  0.66966540  0.42839142  1
  Zn  Zn119  1  0.93912708  0.67215593  0.95249581  1
  Zn  Zn120  1  0.06205704  0.31129151  0.05862925  1
  Zn  Zn121  1  0.06634556  0.30672235  0.55139441  1
  Zn  Zn122  1  0.05025434  0.84453187  0.08791385  1
  Zn  Zn123  1  0.01569760  0.78979888  0.48677619  1
  Zn  Zn124  1  0.56523217  0.31596646  0.06254950  1
  Zn  Zn125  1  0.56919352  0.30912123  0.56265953  1
  Zn  Zn126  1  0.57774703  0.83283735  0.06813720  1
  Zn  Zn127  1  0.59199160  0.84425754  0.52261703  1
  O  O128  1  0.12652943  0.12873616  0.12023472  1
  O  O129  1  0.11008566  0.13053409  0.62759704  1
  O  O130  1  0.12863918  0.63100187  0.12166320  1
  O  O131  1  0.11924074  0.60540499  0.59316420  1
  O  O132  1  0.61350040  0.09847474  0.13252193  1
  O  O133  1  0.62303431  0.11179490  0.65963161  1
  O  O134  1  0.59281374  0.60773863  0.12936363  1
  O  O135  1  0.63887410  0.61187826  0.61790452  1
  O  O136  1  0.38948406  0.39133243  0.37991094  1
  O  O137  1  0.39712665  0.36080016  0.87843780  1
  O  O138  1  0.38522375  0.89453156  0.37803351  1
  O  O139  1  0.39841340  0.88557539  0.89719980  1
  O  O140  1  0.87825158  0.37375270  0.37222092  1
  O  O141  1  0.88895697  0.37416512  0.90253876  1
  O  O142  1  0.88814256  0.93079919  0.29758388  1
  O  O143  1  0.85118307  0.84625185  0.89106123  1
  O  O144  1  0.26219080  -0.00348363  0.37330175  1
  O  O145  1  0.21941109  -0.00827974  0.84488988  1
  O  O146  1  0.26266490  0.48635164  0.36520073  1
  O  O147  1  0.23227864  0.57535400  0.91969686  1
  O  O148  1  0.76902931  -0.00245727  0.37277391  1
  O  O149  1  0.74481066  0.02030250  0.88601387  1
  O  O150  1  0.76124436  0.47804593  0.36542575  1
  O  O151  1  0.75976656  0.51529891  0.88820124  1
  O  O152  1  0.26014189  0.48549122  0.13717923  1
  O  O153  1  0.23521949  0.48955336  0.61576571  1
  O  O154  1  0.25287749  1.00319335  0.14012351  1
  O  O155  1  0.23005556  1.01052226  0.62757550  1
  O  O156  1  0.72340950  0.52461080  0.12771666  1
  O  O157  1  0.73755742  0.48514612  0.60921282  1
  O  O158  1  0.77946810  1.00118354  0.14224678  1
  O  O159  1  0.73922370  0.99739140  0.63297856  1
  O  O160  1  0.01741016  0.37216116  0.24950462  1
  O  O161  1  -0.01192313  0.38627444  0.77940899  1
  O  O162  1  0.02358518  0.85679611  0.23961412  1
  O  O163  1  -0.01387788  0.83391336  0.73914169  1
  O  O164  1  0.49239136  0.36467653  0.26269296  1
  O  O165  1  0.51724576  0.38150737  0.76547954  1
  O  O166  1  0.50590247  0.88674609  0.26652167  1
  O  O167  1  0.43608407  0.82023163  0.73004810  1
  O  O168  1  0.48495177  0.14653309  0.26063063  1
  O  O169  1  0.46390885  0.11394526  0.76547342  1
  O  O170  1  0.48646532  0.61583208  0.25742343  1
  O  O171  1  0.47224531  0.60712812  0.74643253  1
  O  O172  1  1.00722282  0.11194951  0.23416223  1
  O  O173  1  0.93009344  0.03662793  0.75844423  1
  O  O174  1  1.01799948  0.63534363  0.23871212  1
  O  O175  1  1.00931956  0.62894341  0.79044989  1
  O  O176  1  0.37027909  0.25392828  0.00600052  1
  O  O177  1  0.37213878  0.26354340  0.53140753  1
  O  O178  1  0.38125184  0.77877446  0.00739589  1
  O  O179  1  0.37666594  0.76340569  0.51284236  1
  O  O180  1  0.86190742  0.25983415  0.01431315  1
  O  O181  1  0.87228451  0.25652567  0.50347749  1
  O  O182  1  0.87934121  0.75055809  0.01399798  1
  O  O183  1  0.91483686  0.74117448  0.51119335  1
  O  O184  1  0.13914216  0.25224012  0.48682891  1
  O  O185  1  0.13634894  0.23860402  1.00634211  1
  O  O186  1  0.10637644  0.71790179  0.47489079  1
  O  O187  1  0.13243833  0.74774014  0.98612188  1
  O  O188  1  0.64227730  0.24700516  0.50650879  1
  O  O189  1  0.63960991  0.26247239  0.98943491  1
  O  O190  1  0.60984689  0.73092985  0.51695167  1
  O  O191  1  0.59965089  0.75081058  0.97761226  1
  O  O192  1  0.49093724  0.26164524  0.13828758  1
  O  O193  1  0.49211543  0.26185230  0.63523317  1
  O  O194  1  0.50342962  0.73034099  0.14307999  1
  O  O195  1  0.43169018  0.75290970  0.69962250  1
  O  O196  1  0.99475621  0.24584050  0.12168596  1
  O  O197  1  0.98461799  0.27077828  0.62363872  1
  O  O198  1  1.00882978  0.73830282  0.12614755  1
  O  O199  1  0.98171864  0.68961399  0.66811267  1
  O  O200  1  0.00494021  0.25770471  0.37971621  1
  O  O201  1  0.00384870  0.26021332  0.89624202  1
  O  O202  1  -0.00856938  0.74295074  0.35791732  1
  O  O203  1  -0.00485129  0.73780577  0.86895921  1
  O  O204  1  0.48693285  0.26205562  0.37084148  1
  O  O205  1  0.52245732  0.26431888  0.88653502  1
  O  O206  1  0.48388433  0.76935113  0.37695049  1
  O  O207  1  0.50660602  0.75344264  0.86877689  1
  O  O208  1  0.26923757  0.16002273  0.49223412  1
  O  O209  1  0.25015252  0.13920509  1.00988484  1
  O  O210  1  0.24805138  0.63635617  0.50073423  1
  O  O211  1  0.25686323  0.62100647  0.98119679  1
  O  O212  1  0.75812235  0.13509561  0.50936223  1
  O  O213  1  0.74879441  0.14189578  0.99092519  1
  O  O214  1  0.73766710  0.62621242  0.48220184  1
  O  O215  1  0.79337358  0.57669579  0.92545418  1
  O  O216  1  0.25889344  0.36290258  0.00653887  1
  O  O217  1  0.25428269  0.35873780  0.49207108  1
  O  O218  1  0.24576321  0.87655086  0.01325059  1
  O  O219  1  0.27532652  0.87620271  0.50214626  1
  O  O220  1  0.76137995  0.36703949  0.00202324  1
  O  O221  1  0.75753496  0.36514851  0.50635998  1
  O  O222  1  0.76397581  0.88477889  0.01243709  1
  O  O223  1  0.74921708  0.88744178  0.50844279  1
  O  O224  1  0.13874920  0.47557779  0.25845904  1
  O  O225  1  0.11775804  0.51275584  0.72432262  1
  O  O226  1  0.14141412  0.99320780  0.25470560  1
  O  O227  1  0.12846466  1.00129814  0.72846838  1
  O  O228  1  0.61320439  0.49486437  0.24534012  1
  O  O229  1  0.62575033  0.49597667  0.73374932  1
  O  O230  1  0.57296608  1.04273878  0.17411715  1
  O  O231  1  0.61182795  0.98720381  0.74948389  1
  O  O232  1  0.36657084  0.00983479  0.26131930  1
  O  O233  1  0.35116604  0.01538961  0.74538651  1
  O  O234  1  0.36401251  0.49540761  0.25935608  1
  O  O235  1  0.41211755  0.56872078  0.70513064  1
  O  O236  1  0.95146729  0.07140683  0.20727757  1
  O  O237  1  0.87898551  -0.01149987  0.77554972  1
  O  O238  1  0.87292209  0.49197147  0.24520035  1
  O  O239  1  0.84452044  0.56247301  0.70151471  1
  O  O240  1  0.11793761  0.36094971  0.36420235  1
  O  O241  1  0.10619910  0.35634583  0.89247175  1
  O  O242  1  0.13284606  0.88108680  0.36280711  1
  O  O243  1  0.17833010  0.76599571  0.93297428  1
  O  O244  1  0.60672806  0.37651802  0.37411104  1
  O  O245  1  0.62913488  0.37570987  0.87045382  1
  O  O246  1  0.60624993  0.86958822  0.39884503  1
  O  O247  1  0.61887218  0.85942512  0.87703958  1
  O  O248  1  0.37592487  0.13923255  0.13978700  1
  O  O249  1  0.37486996  0.14062296  0.63378700  1
  O  O250  1  0.38892315  0.62378702  0.12349515  1
  O  O251  1  0.38716496  0.61200382  0.64360859  1
  O  O252  1  0.87434081  0.14276983  0.10849312  1
  O  O253  1  0.87907770  0.13901914  0.62732698  1
  O  O254  1  0.89406116  0.63600648  0.12590379  1
  O  O255  1  0.83415809  0.60744065  0.64322605  1
  O  O256  1  0.26104643  0.25899994  0.11888646  1
  O  O257  1  0.24028692  0.25793384  0.62350284  1
  O  O258  1  0.25053798  0.75613146  0.11419476  1
  O  O259  1  0.21672853  0.76523513  0.58810773  1
  O  O260  1  0.73824209  0.24089987  0.11533613  1
  O  O261  1  0.76616090  0.25809802  0.61717752  1
  O  O262  1  0.76506287  0.72874279  0.12726328  1
  O  O263  1  0.74107890  0.77609645  0.61763132  1
  O  O264  1  0.24497618  0.25320436  0.37097175  1
  O  O265  1  0.23128422  0.25396009  0.89285129  1
  O  O266  1  0.24334595  0.76552006  0.40518356  1
  O  O267  1  0.31296718  0.73766407  0.84476401  1
  O  O268  1  0.75711429  0.24487916  0.39105895  1
  O  O269  1  0.74661962  0.24940456  0.88537645  1
  O  O270  1  0.77679266  0.75033520  0.36862469  1
  O  O271  1  0.71569838  0.74750870  0.89252062  1
  O  O272  1  0.00905732  0.10121132  0.01071964  1
  O  O273  1  -0.00318570  0.10913506  0.49936189  1
  O  O274  1  0.01576529  0.60779049  0.00911858  1
  O  O275  1  0.00286194  0.59833057  0.47271874  1
  O  O276  1  0.50544912  0.10433094  -0.01051424  1
  O  O277  1  0.49631554  0.11964916  0.48623499  1
  O  O278  1  0.47890024  0.60381631  -0.01688619  1
  O  O279  1  0.51574854  0.60762286  0.49145831  1
  O  O280  1  0.50811238  0.38458537  0.49245781  1
  O  O281  1  0.49469237  0.38264607  0.99301858  1
  O  O282  1  0.48786605  0.89524459  0.49234928  1
  O  O283  1  0.49109866  0.89460488  1.03267928  1
  O  O284  1  0.98951068  0.37940269  0.48351663  1
  O  O285  1  0.99439723  0.39361236  1.00918839  1
  O  O286  1  0.98815477  0.89819952  0.50389330  1
  O  O287  1  0.98050677  0.86930666  0.99457181  1
  O  O288  1  0.49416862  0.48998419  0.38488353  1
  O  O289  1  0.50688688  0.48356818  0.88575024  1
  O  O290  1  0.48984330  0.99754748  0.38366940  1
  O  O291  1  0.54198934  1.04543474  0.94845126  1
  O  O292  1  0.98385497  0.48092843  0.36604254  1
  O  O293  1  1.01752612  0.48848544  0.89852439  1
  O  O294  1  1.00414281  0.99633081  0.38556097  1
  O  O295  1  1.02773172  0.98311850  0.90452140  1
  O  O296  1  0.00967829  -0.03571572  0.10298348  1
  O  O297  1  0.01614102  -0.00411848  0.61937731  1
  O  O298  1  0.01515525  0.51241111  0.12047885  1
  O  O299  1  -0.01506248  0.49695373  0.59824850  1
  O  O300  1  0.50874851  0.01752806  0.13665737  1
  O  O301  1  0.52151537  0.00649825  0.60515185  1
  O  O302  1  0.49563055  0.50494835  0.11540255  1
  O  O303  1  0.51919208  0.48780435  0.61164776  1
  O  O304  1  0.24517367  0.37615260  0.24111263  1
  O  O305  1  0.25473731  0.42689547  0.82109630  1
  O  O306  1  0.24789016  0.88692791  0.24749670  1
  O  O307  1  0.26266953  0.88607330  0.73623002  1
  O  O308  1  0.73587197  0.36539093  0.24242244  1
  O  O309  1  0.75121034  0.37800878  0.74173830  1
  O  O310  1  0.74165244  0.86157614  0.22347561  1
  O  O311  1  0.75004052  0.86118615  0.73595559  1
  O  O312  1  0.25859688  0.11461785  0.25124703  1
  O  O313  1  0.25145904  0.11925990  0.75421533  1
  O  O314  1  0.23298189  0.59782023  0.24576717  1
  O  O315  1  0.23578919  0.64005740  0.72857735  1
  O  O316  1  0.70574222  0.10979891  0.28344593  1
  O  O317  1  0.75940978  0.13201416  0.76950242  1
  O  O318  1  0.72848377  0.63969035  0.26518638  1
  O  O319  1  0.74810970  0.68588689  0.76830453  1
  O  O320  1  0.37614543  0.11507819  0.36966142  1
  O  O321  1  0.35581296  0.13728553  0.87887811  1
  O  O322  1  0.37974970  0.60119314  0.38720923  1
  O  O323  1  0.36081039  0.68013437  0.85465164  1
  O  O324  1  0.88580248  0.10618005  0.35287766  1
  O  O325  1  0.86769674  0.12816627  0.88732085  1
  O  O326  1  0.85072475  0.60243171  0.36629001  1
  O  O327  1  0.86360747  0.59817476  0.89436812  1
  O  O328  1  0.13589636  0.36370685  0.13635823  1
  O  O329  1  0.09857885  0.39305129  0.62352675  1
  O  O330  1  0.14691820  0.87302593  0.14341958  1
  O  O331  1  0.05551966  0.80889753  0.59812613  1
  O  O332  1  0.61993227  0.39632319  0.11876447  1
  O  O333  1  0.63764443  0.37723763  0.63579070  1
  O  O334  1  0.65159570  0.90944769  0.10320229  1
  O  O335  1  0.63240407  0.89741044  0.61481883  1
  O  O336  1  0.13424907  0.25907073  0.25979008  1
  O  O337  1  0.11747852  0.24300695  0.77436937  1
  O  O338  1  0.12824493  0.75719490  0.25803416  1
  O  O339  1  0.09680623  0.74900508  0.74897427  1
  O  O340  1  0.60594540  0.24725216  0.24883237  1
  O  O341  1  0.63809193  0.26603841  0.76508475  1
  O  O342  1  0.57929918  0.76095935  0.15979190  1
  O  O343  1  0.61701078  0.76393316  0.76587845  1
  O  O344  1  0.37415349  0.24757633  0.24419760  1
  O  O345  1  0.35749935  0.23852736  0.75006933  1
  O  O346  1  0.32962965  0.73244792  0.26158083  1
  O  O347  1  0.27683280  0.69844613  0.71411960  1
  O  O348  1  0.87291367  0.24622615  0.23321652  1
  O  O349  1  0.87350370  0.25913906  0.73700861  1
  O  O350  1  0.89856158  0.75686920  0.23315718  1
  O  O351  1  0.88861610  0.73457236  0.76891254  1
  O  O352  1  0.39307757  0.50128554  0.50420806  1
  O  O353  1  0.37761618  0.48120357  1.00101554  1
  O  O354  1  0.37442077  1.00295061  0.49287724  1
  O  O355  1  0.35536927  0.99064503  0.99476721  1
  O  O356  1  0.87904420  0.48622419  0.47884119  1
  O  O357  1  0.86508965  0.48691967  1.03479487  1
  O  O358  1  0.88497838  1.00320928  0.48218927  1
  O  O359  1  0.88390674  0.98465770  0.99261741  1
  O  O360  1  0.14905985  0.02206353  0.00306861  1
  O  O361  1  0.11990018  0.00091149  0.51192654  1
  O  O362  1  0.13554816  0.48418136  0.00398182  1
  O  O363  1  0.11048542  0.49222408  0.49877160  1
  O  O364  1  0.59911184  0.01248873  -0.00994968  1
  O  O365  1  0.61636281  0.01678707  0.48217112  1
  O  O366  1  0.60766258  0.50582196  0.00402012  1
  O  O367  1  0.62113142  0.50617373  0.50621019  1
  O  O368  1  0.36983629  0.36616570  0.11662494  1
  O  O369  1  0.36388888  0.35628067  0.66605062  1
  O  O370  1  0.35765367  0.88463545  0.12230855  1
  O  O371  1  0.38561606  0.90165412  0.61638501  1
  O  O372  1  0.88162367  0.35927377  0.11896213  1
  O  O373  1  0.86952457  0.37576685  0.61104586  1
  O  O374  1  0.86425043  0.85727868  0.11781525  1
  O  O375  1  0.85980500  0.89277102  0.62768078  1
  O  O376  1  0.12567699  0.14352324  0.36668341  1
  O  O377  1  0.11271153  0.13837306  0.89654828  1
  O  O378  1  0.13606235  0.59278730  0.38267369  1
  O  O379  1  0.17257568  0.60990017  0.87888566  1
  O  O380  1  0.65648877  0.11156337  0.34316957  1
  O  O381  1  0.63039958  0.14608895  0.86546849  1
  O  O382  1  0.63396666  0.63465653  0.38487363  1
  O  O383  1  0.60988576  0.64922599  0.85761104  1
