# generated using pymatgen
data_VZnO4
_symmetry_space_group_name_H-M   'P 1'
_cell_length_a   17.00438265
_cell_length_b   17.03136115
_cell_length_c   17.06715415
_cell_angle_alpha   89.51002014
_cell_angle_beta   90.07581935
_cell_angle_gamma   89.96936411
_symmetry_Int_Tables_number   1
_chemical_formula_structural   VZnO4
_chemical_formula_sum   'V64 Zn64 O256'
_cell_volume   4942.59485592
_cell_formula_units_Z   64
loop_
 _symmetry_equiv_pos_site_id
 _symmetry_equiv_pos_as_xyz
  1  'x, y, z'
loop_
 _atom_site_type_symbol
 _atom_site_label
 _atom_site_symmetry_multiplicity
 _atom_site_fract_x
 _atom_site_fract_y
 _atom_site_fract_z
 _atom_site_occupancy
  V  V0  1  0.51626200  0.62719384  0.12231333  1
  V  V1  1  0.74547218  0.47235577  0.75840022  1
  V  V2  1  0.86153209  0.61609557  0.75623699  1
  V  V3  1  0.37719027  0.72820403  0.59251137  1
  V  V4  1  0.87208459  0.49466984  0.88462937  1
  V  V5  1  0.49549363  0.12086616  0.13398686  1
  V  V6  1  -0.00117979  0.23946586  0.77156338  1
  V  V7  1  0.50584747  0.38243212  0.87020573  1
  V  V8  1  0.74338335  0.72977175  -0.00174539  1
  V  V9  1  0.78362861  -0.00421986  0.24726163  1
  V  V10  1  0.50596143  0.51063578  0.49354792  1
  V  V11  1  0.12603211  0.61229779  0.51751481  1
  V  V12  1  0.01407446  0.50213847  0.01717175  1
  V  V13  1  0.13023648  0.38294859  0.74363552  1
  V  V14  1  0.23103021  0.63021361  0.36734992  1
  V  V15  1  0.37524482  0.50178300  0.35522068  1
  V  V16  1  0.37861841  0.37379579  0.49310456  1
  V  V17  1  0.74727623  0.25555639  0.02470097  1
  V  V18  1  0.36871916  0.60991698  0.79472141  1
  V  V19  1  0.13611042  0.25243680  0.91060141  1
  V  V20  1  0.88949023  0.22405624  0.13005505  1
  V  V21  1  0.86062562  0.86667630  0.00645765  1
  V  V22  1  0.62551626  0.25788683  0.87369981  1
  V  V23  1  0.49221428  0.24393214  0.24965976  1
  V  V24  1  0.77717093  0.63782378  0.35496651  1
  V  V25  1  0.26497645  0.12140315  0.88549459  1
  V  V26  1  0.48971195  0.73595697  0.75712597  1
  V  V27  1  0.11666021  0.87938478  0.27927687  1
  V  V28  1  0.14265255  0.64636375  -0.00554940  1
  V  V29  1  0.52335481  0.76074828  0.23594482  1
  V  V30  1  -0.00345647  0.74999920  0.27644081  1
  V  V31  1  0.83405998  0.26249861  0.60194678  1
  V  V32  1  0.23715112  0.50095012  0.23925802  1
  V  V33  1  0.51179671  0.00815457  0.48459103  1
  V  V34  1  0.75298782  0.73560486  0.50905860  1
  V  V35  1  0.63858351  0.49416320  0.61085848  1
  V  V36  1  0.76045452  0.12878248  0.87745236  1
  V  V37  1  0.24328803  0.85563503  0.12404354  1
  V  V38  1  -0.00567323  -0.01489479  -0.00707007  1
  V  V39  1  0.63695893  -0.01614997  0.13886056  1
  V  V40  1  -0.00278337  0.65799387  0.11426779  1
  V  V41  1  0.62205455  0.71065174  0.87289605  1
  V  V42  1  0.52705948  0.88624349  0.86441600  1
  V  V43  1  0.86613322  0.39733231  0.47472663  1
  V  V44  1  0.64114070  0.23532781  0.36345853  1
  V  V45  1  0.00531181  0.37285602  0.89004421  1
  V  V46  1  0.27480292  0.23269471  0.02487753  1
  V  V47  1  0.86650951  -0.02705316  0.42144344  1
  V  V48  1  0.62821996  0.11769847  0.01855021  1
  V  V49  1  -0.00045493  0.23759168  0.26332365  1
  V  V50  1  0.52323506  0.49406770  0.01361479  1
  V  V51  1  0.36386488  0.64323776  0.23470038  1
  V  V52  1  0.25942337  0.37539827  0.12993494  1
  V  V53  1  0.11712791  0.36873713  0.25708843  1
  V  V54  1  0.37362404  0.86871629  0.47022375  1
  V  V55  1  0.38150074  0.87090756  -0.01615370  1
  V  V56  1  0.33200048  0.41819559  -0.04624921  1
  V  V57  1  0.51762039  0.38695335  0.34887603  1
  V  V58  1  -0.02203510  0.60695777  0.62598946  1
  V  V59  1  0.51938737  0.87539254  0.35819800  1
  V  V60  1  0.04464119  0.15551364  0.61395036  1
  V  V61  1  0.87673770  0.37787510  0.02485882  1
  V  V62  1  0.26467340  0.87986499  0.61915040  1
  V  V63  1  0.01388679  0.73668028  0.75458316  1
  Zn  Zn64  1  0.19210182  0.19238002  0.20371253  1
  Zn  Zn65  1  0.18264921  0.18910877  0.73143788  1
  Zn  Zn66  1  0.16677572  0.69622563  0.18416943  1
  Zn  Zn67  1  0.20781581  0.67711072  0.69249374  1
  Zn  Zn68  1  0.69518882  0.17732455  0.20593939  1
  Zn  Zn69  1  0.68760537  0.18687151  0.69598174  1
  Zn  Zn70  1  0.70231302  0.68791894  0.18566698  1
  Zn  Zn71  1  0.67043809  0.66719521  0.68523948  1
  Zn  Zn72  1  0.32123869  0.31944815  0.30620482  1
  Zn  Zn73  1  0.26563149  0.49165942  0.72614250  1
  Zn  Zn74  1  0.32448941  0.85011156  0.27361007  1
  Zn  Zn75  1  0.31869197  0.82101841  0.80851429  1
  Zn  Zn76  1  0.82066160  0.31988493  0.30233281  1
  Zn  Zn77  1  0.81685141  0.30624698  0.83298588  1
  Zn  Zn78  1  0.82153946  0.81733257  0.32017857  1
  Zn  Zn79  1  0.82254698  0.77604324  0.83753495  1
  Zn  Zn80  1  0.19121293  0.44149669  0.43149624  1
  Zn  Zn81  1  0.16250587  0.48232791  0.89878162  1
  Zn  Zn82  1  0.18478030  0.79600275  0.44278627  1
  Zn  Zn83  1  0.19837700  0.93120799  0.94576843  1
  Zn  Zn84  1  0.69430051  0.45567339  0.42333009  1
  Zn  Zn85  1  0.69176146  0.43574238  0.94910478  1
  Zn  Zn86  1  0.69452046  0.93002758  0.42740166  1
  Zn  Zn87  1  0.73605876  0.91718474  0.88219279  1
  Zn  Zn88  1  0.35876761  0.05997682  0.01643023  1
  Zn  Zn89  1  0.36958138  0.02374407  0.57688162  1
  Zn  Zn90  1  0.31475034  0.56606558  0.06266467  1
  Zn  Zn91  1  0.31104850  0.54806383  0.54402929  1
  Zn  Zn92  1  0.81342162  0.05138790  0.05846067  1
  Zn  Zn93  1  0.89233359  0.06595085  0.58579532  1
  Zn  Zn94  1  0.82095608  0.56756087  0.07031704  1
  Zn  Zn95  1  0.80017149  0.56220162  0.55762800  1
  Zn  Zn96  1  0.43725154  0.44296041  0.18511843  1
  Zn  Zn97  1  0.43769565  0.44581123  0.67884060  1
  Zn  Zn98  1  0.44086814  0.93743126  0.14963947  1
  Zn  Zn99  1  0.48177582  0.89247554  0.64545495  1
  Zn  Zn100  1  0.94475466  0.44994605  0.20270831  1
  Zn  Zn101  1  0.93505521  0.42393990  0.69857066  1
  Zn  Zn102  1  0.93856820  0.90483206  0.17575210  1
  Zn  Zn103  1  0.94031703  0.90416631  0.83182645  1
  Zn  Zn104  1  -0.00931493  0.03120130  0.28762271  1
  Zn  Zn105  1  0.05504797  0.07715658  0.87080816  1
  Zn  Zn106  1  0.04883665  0.56423066  0.29642908  1
  Zn  Zn107  1  0.05314236  0.57286022  0.82184256  1
  Zn  Zn108  1  0.57081010  0.05835811  0.30891470  1
  Zn  Zn109  1  0.60832212  0.04848543  0.83971665  1
  Zn  Zn110  1  0.55001844  0.59126223  0.32671155  1
  Zn  Zn111  1  0.55769316  0.54940877  0.80121355  1
  Zn  Zn112  1  0.50397254  0.22284160  0.47139391  1
  Zn  Zn113  1  0.44741309  0.19472676  0.94350910  1
  Zn  Zn114  1  0.43870280  0.68950483  0.41033781  1
  Zn  Zn115  1  0.43969872  0.68767839  0.94815002  1
  Zn  Zn116  1  0.98174174  0.26717636  0.47136391  1
  Zn  Zn117  1  0.94284970  0.18146128  0.95668944  1
  Zn  Zn118  1  0.93425943  0.68270451  0.45257777  1
  Zn  Zn119  1  0.93829755  0.68250714  0.93694864  1
  Zn  Zn120  1  0.06582067  0.32045093  0.08133830  1
  Zn  Zn121  1  0.05081084  0.43748864  0.55550888  1
  Zn  Zn122  1  0.06754504  0.83206392  0.02723862  1
  Zn  Zn123  1  0.08927038  0.77446630  0.60402593  1
  Zn  Zn124  1  0.55791814  0.30882562  0.07567340  1
  Zn  Zn125  1  0.66832915  0.32728118  0.54520461  1
  Zn  Zn126  1  0.56837925  0.81049862  0.04609087  1
  Zn  Zn127  1  0.59791349  0.81257645  0.52507087  1
  O  O128  1  0.14352998  0.09589281  0.15175033  1
  O  O129  1  0.14199660  0.14277491  0.63991107  1
  O  O130  1  0.11222982  0.63551086  0.10184232  1
  O  O131  1  0.13768054  0.60904692  0.61570010  1
  O  O132  1  0.62919100  0.11951427  0.12555237  1
  O  O133  1  0.55417180  0.18311232  0.63213377  1
  O  O134  1  0.61319760  0.62191715  0.13856133  1
  O  O135  1  0.60437338  0.57553424  0.66181541  1
  O  O136  1  0.38807855  0.39053784  0.36442475  1
  O  O137  1  0.40162032  0.36603308  0.89811316  1
  O  O138  1  0.38246154  0.86053845  0.36763105  1
  O  O139  1  0.37245976  0.88620318  0.88514979  1
  O  O140  1  0.86650966  0.39391723  0.37502037  1
  O  O141  1  0.88784412  0.37576956  0.90001376  1
  O  O142  1  0.88414371  0.87732160  0.39967847  1
  O  O143  1  0.82923516  0.88557932  0.82492731  1
  O  O144  1  0.16506094  0.04356189  0.41297097  1
  O  O145  1  0.24221763  0.02502431  0.89687205  1
  O  O146  1  0.25799530  0.50915882  0.35507454  1
  O  O147  1  0.27335264  0.46590950  0.88930362  1
  O  O148  1  0.77384099  -0.00632419  0.36960772  1
  O  O149  1  0.72105834  0.02998950  0.87032894  1
  O  O150  1  0.71734478  0.53512494  0.34335430  1
  O  O151  1  0.76480636  0.48227650  0.87329860  1
  O  O152  1  0.25430924  0.48534149  0.12949354  1
  O  O153  1  0.24989561  0.49678509  0.61660062  1
  O  O154  1  0.20353205  1.04616974  0.16870819  1
  O  O155  1  0.27047095  0.98001174  0.60090087  1
  O  O156  1  0.75722412  0.50633772  0.14855829  1
  O  O157  1  0.74111521  0.49386070  0.64037613  1
  O  O158  1  0.74583783  0.99515852  0.13442784  1
  O  O159  1  0.70505503  1.07387274  0.63941243  1
  O  O160  1  0.01505844  0.36443766  0.23984376  1
  O  O161  1  0.00483679  0.36566482  0.77908151  1
  O  O162  1  0.00540632  0.85936009  0.25692212  1
  O  O163  1  -0.00841535  0.83404521  0.75689810  1
  O  O164  1  0.49798629  0.36107245  0.24477224  1
  O  O165  1  0.49872075  0.39375218  0.77248696  1
  O  O166  1  0.49564116  0.86419318  0.24003300  1
  O  O167  1  0.48439455  0.84743331  0.76739636  1
  O  O168  1  0.50426588  0.13253186  0.24401118  1
  O  O169  1  0.42037781  0.23622457  0.75568613  1
  O  O170  1  0.48895548  0.64322030  0.23907596  1
  O  O171  1  0.47735450  0.62417094  0.76689117  1
  O  O172  1  1.00563337  0.13980440  0.25476091  1
  O  O173  1  1.02232634  0.14297998  0.78288667  1
  O  O174  1  1.01497090  0.65303084  0.22163778  1
  O  O175  1  0.98601548  0.61099243  0.73873505  1
  O  O176  1  0.37260541  0.24428747  0.01842052  1
  O  O177  1  0.40280746  0.27654893  0.48123255  1
  O  O178  1  0.39107332  0.77272348  0.00608283  1
  O  O179  1  0.39200657  0.75162017  0.48976426  1
  O  O180  1  0.87231977  0.25625307  0.02115265  1
  O  O181  1  0.85924814  0.27791776  0.50297824  1
  O  O182  1  0.85184104  0.75253494  -0.03856374  1
  O  O183  1  0.85480279  0.74077485  0.50883270  1
  O  O184  1  0.22112174  0.24009160  0.53465194  1
  O  O185  1  0.12857625  0.25141678  1.01016977  1
  O  O186  1  0.12583519  0.71917295  0.50416859  1
  O  O187  1  0.12674408  0.74311826  0.97728105  1
  O  O188  1  0.61692816  0.26215804  0.46645393  1
  O  O189  1  0.64229981  0.25199352  1.02156981  1
  O  O190  1  0.63693660  0.72323496  0.47311949  1
  O  O191  1  0.63238367  0.74248801  0.97929987  1
  O  O192  1  0.50343240  0.23711437  0.14159329  1
  O  O193  1  0.51702761  0.23946640  0.60201703  1
  O  O194  1  0.50852430  0.74030077  0.12579496  1
  O  O195  1  0.46651088  0.73925088  0.65518178  1
  O  O196  1  0.99127038  0.24447699  0.12868632  1
  O  O197  1  1.00917842  0.24112436  0.66606541  1
  O  O198  1  1.00389590  0.75542991  0.09501730  1
  O  O199  1  0.99672255  0.71599836  0.63903752  1
  O  O200  1  -0.01436560  0.25422604  0.35901947  1
  O  O201  1  0.01537517  0.25497135  0.89625837  1
  O  O202  1  0.00234369  0.73038122  0.37405673  1
  O  O203  1  0.01154372  0.70734814  0.85229311  1
  O  O204  1  0.51815776  0.27079914  0.35771727  1
  O  O205  1  0.51730980  0.26634233  0.89135429  1
  O  O206  1  0.50272496  0.75784653  0.34247810  1
  O  O207  1  0.51329361  0.74373977  0.87327634  1
  O  O208  1  0.31416187  0.11994191  0.46586309  1
  O  O209  1  0.26058800  0.13148010  1.01808413  1
  O  O210  1  0.23322849  0.60899809  0.47415489  1
  O  O211  1  0.24087811  0.63158301  1.01052174  1
  O  O212  1  0.73141868  0.12304186  0.49381393  1
  O  O213  1  0.74192127  0.13781555  1.00586205  1
  O  O214  1  0.74871377  0.62668828  0.48015702  1
  O  O215  1  0.75585994  0.63003296  0.99849391  1
  O  O216  1  0.26493421  0.36349764  0.01909348  1
  O  O217  1  0.27831551  0.38234136  0.47674889  1
  O  O218  1  0.27514518  0.88293826  0.01838953  1
  O  O219  1  0.27285527  0.85922970  0.48723019  1
  O  O220  1  0.76115204  0.36101930  0.00969309  1
  O  O221  1  0.75357760  0.39025454  0.49324269  1
  O  O222  1  0.75699399  0.85925340  -0.01876590  1
  O  O223  1  0.71486018  0.83943981  0.49623872  1
  O  O224  1  0.13328061  0.49053822  0.24672414  1
  O  O225  1  0.12047366  0.48134905  0.78312514  1
  O  O226  1  0.08922371  0.97765314  0.26788495  1
  O  O227  1  0.12384326  0.92962399  0.80643828  1
  O  O228  1  0.62069744  0.43646936  0.17886259  1
  O  O229  1  0.64764409  0.48376720  0.77328818  1
  O  O230  1  0.63788743  0.99336384  0.24003664  1
  O  O231  1  0.60950929  1.08634300  0.72886887  1
  O  O232  1  0.25862204  0.07898448  0.21216355  1
  O  O233  1  0.41951662  0.11593851  0.70369731  1
  O  O234  1  0.35923115  0.51024265  0.24433857  1
  O  O235  1  0.38091139  0.51076771  0.75374232  1
  O  O236  1  0.88695295  -0.00549667  0.23345316  1
  O  O237  1  0.65052037  0.03519764  0.67779937  1
  O  O238  1  0.79756551  0.47341501  0.21050162  1
  O  O239  1  0.86685904  0.49399130  0.76458769  1
  O  O240  1  0.13053670  0.37796662  0.35610273  1
  O  O241  1  0.11584552  0.36591855  0.89859278  1
  O  O242  1  0.12694160  0.86889008  0.37798014  1
  O  O243  1  0.15500858  0.86284761  0.80103834  1
  O  O244  1  0.61579280  0.39884037  0.35551036  1
  O  O245  1  0.61908332  0.36564908  0.89048285  1
  O  O246  1  0.61705995  0.87420462  0.35565342  1
  O  O247  1  0.62607290  0.87325184  0.85645789  1
  O  O248  1  0.39948268  0.10753690  0.11878630  1
  O  O249  1  0.37975545  0.12871750  0.64283385  1
  O  O250  1  0.38210680  0.62490345  0.13510949  1
  O  O251  1  0.37899424  0.62965522  0.58854862  1
  O  O252  1  0.88193829  0.12705545  0.11766015  1
  O  O253  1  0.86234789  0.16811469  0.62377986  1
  O  O254  1  0.89867933  0.63769646  0.11090304  1
  O  O255  1  0.87476687  0.60735445  0.63827847  1
  O  O256  1  0.24973888  0.25591741  0.12696237  1
  O  O257  1  0.25680556  0.25490713  0.59518244  1
  O  O258  1  0.24913465  0.75726230  0.12852100  1
  O  O259  1  0.28095104  0.74346139  0.62656422  1
  O  O260  1  0.76762587  0.24167061  0.12622097  1
  O  O261  1  0.72867135  0.25855118  0.61667241  1
  O  O262  1  0.73838701  0.74742252  0.09529116  1
  O  O263  1  0.73008991  0.71896667  0.60750586  1
  O  O264  1  0.24899135  0.24027919  0.36555586  1
  O  O265  1  0.24639907  0.24567859  0.91445916  1
  O  O266  1  0.24534962  0.72866615  0.36763341  1
  O  O267  1  0.21069468  0.84338259  0.86388443  1
  O  O268  1  0.73796929  0.26131588  0.35222025  1
  O  O269  1  0.74018387  0.24865076  0.90182018  1
  O  O270  1  0.76358220  0.73834505  0.38033305  1
  O  O271  1  0.72349793  0.72964938  0.86576635  1
  O  O272  1  0.00562475  0.08984804  -0.01180147  1
  O  O273  1  0.03659217  0.18147414  0.51666691  1
  O  O274  1  0.00787120  0.61435432  0.00268258  1
  O  O275  1  0.00876299  0.61738827  0.52262387  1
  O  O276  1  0.52069028  0.13880793  0.02199675  1
  O  O277  1  0.49705008  0.10690287  0.47410681  1
  O  O278  1  0.50046678  0.61401482  0.01717321  1
  O  O279  1  0.50918055  0.60198653  0.44120839  1
  O  O280  1  0.49977268  0.40589386  0.46190834  1
  O  O281  1  0.50871361  0.39185776  1.01987420  1
  O  O282  1  0.50253189  0.86536993  0.46431761  1
  O  O283  1  0.50500636  0.86851928  0.96672202  1
  O  O284  1  0.97303423  0.37619553  0.49998722  1
  O  O285  1  0.99527311  0.38544576  1.00891776  1
  O  O286  1  1.00691871  0.88299997  0.54103038  1
  O  O287  1  0.95944162  0.86355155  0.96240798  1
  O  O288  1  0.48995797  0.49234786  0.32885520  1
  O  O289  1  0.51081838  0.48527247  0.89870269  1
  O  O290  1  0.50290709  0.98228235  0.36504614  1
  O  O291  1  0.51680860  0.98578140  0.85336193  1
  O  O292  1  0.95387524  0.51076930  0.29222258  1
  O  O293  1  0.99102794  0.48883265  0.89565718  1
  O  O294  1  0.94157588  1.03196357  0.38977880  1
  O  O295  1  0.98404020  0.99333742  0.87618190  1
  O  O296  1  -0.00927586  -0.03596541  0.09176229  1
  O  O297  1  -0.00431888  0.06805193  0.62860544  1
  O  O298  1  -0.00288713  0.50901628  0.11566356  1
  O  O299  1  -0.00638907  0.50262778  0.63340095  1
  O  O300  1  0.52335114  0.01632224  0.14053905  1
  O  O301  1  0.48399919  -0.00323413  0.58926312  1
  O  O302  1  0.49943688  0.51418304  0.12162052  1
  O  O303  1  0.49060466  0.51259467  0.59050726  1
  O  O304  1  0.24306397  0.38147424  0.24640144  1
  O  O305  1  0.23040162  0.38046087  0.74580237  1
  O  O306  1  0.21667082  0.87634610  0.24029553  1
  O  O307  1  0.28446274  0.87536078  0.71692907  1
  O  O308  1  0.76140754  0.41043088  0.24030564  1
  O  O309  1  0.75903108  0.37403106  0.76002489  1
  O  O310  1  0.76638389  0.89443980  0.25613113  1
  O  O311  1  0.71542728  0.89321537  0.67471926  1
  O  O312  1  0.23404737  0.17904732  0.32481459  1
  O  O313  1  0.26809772  0.14344956  0.78741173  1
  O  O314  1  0.25084550  0.62164349  0.24456150  1
  O  O315  1  0.26770023  0.61094736  0.76129730  1
  O  O316  1  0.76096990  0.09723670  0.25022200  1
  O  O317  1  0.76014490  0.15630676  0.78150985  1
  O  O318  1  0.77903942  0.64642565  0.25353509  1
  O  O319  1  0.76074540  0.60457956  0.74998384  1
  O  O320  1  0.32325705  0.09483683  0.39915143  1
  O  O321  1  0.36984469  0.11757269  0.91184071  1
  O  O322  1  0.36581901  0.61909002  0.34941664  1
  O  O323  1  0.37365582  0.60841801  0.89375590  1
  O  O324  1  0.79032205  0.13567680  0.45470128  1
  O  O325  1  0.85642510  0.12714548  0.90249951  1
  O  O326  1  0.87145716  0.61485432  0.38239985  1
  O  O327  1  0.88085973  0.60257088  0.86469307  1
  O  O328  1  0.14489236  0.36987543  0.14418171  1
  O  O329  1  0.10428156  0.38365437  0.64780262  1
  O  O330  1  0.14621620  0.87621355  0.10725169  1
  O  O331  1  0.16609625  0.85513381  0.60614272  1
  O  O332  1  0.64156142  0.37631502  0.14379861  1
  O  O333  1  0.60956834  0.39916733  0.62546819  1
  O  O334  1  0.61585503  0.89031362  0.11367339  1
  O  O335  1  0.58033920  0.84783345  0.62464750  1
  O  O336  1  0.11133088  0.25728922  0.25192800  1
  O  O337  1  0.12187167  0.27183011  0.78125923  1
  O  O338  1  0.10878154  0.76680859  0.25090593  1
  O  O339  1  0.11535395  0.73169985  0.72999294  1
  O  O340  1  0.61667177  0.24574372  0.25622048  1
  O  O341  1  0.62836226  0.25259271  0.77686340  1
  O  O342  1  0.62078836  0.75388572  0.23794866  1
  O  O343  1  0.59953141  0.72143066  0.76009518  1
  O  O344  1  0.39339683  0.24178963  0.26449041  1
  O  O345  1  0.37585957  0.27270483  0.71194169  1
  O  O346  1  0.36492092  0.74051210  0.24384804  1
  O  O347  1  0.37841676  0.72461754  0.78452297  1
  O  O348  1  0.88706298  0.25376295  0.23465510  1
  O  O349  1  0.90065333  0.24682899  0.78722604  1
  O  O350  1  0.89844539  0.75936152  0.25457388  1
  O  O351  1  0.87876767  0.71655786  0.75714878  1
  O  O352  1  0.38900757  0.50214521  0.46870602  1
  O  O353  1  0.38057017  0.48769803  1.00858819  1
  O  O354  1  0.39228076  0.97116518  0.47459117  1
  O  O355  1  0.40752217  0.96033774  1.03593203  1
  O  O356  1  0.87105889  0.49236325  0.50461513  1
  O  O357  1  0.87775774  0.49246895  1.00040699  1
  O  O358  1  0.85187946  0.98833026  0.52205812  1
  O  O359  1  0.87055270  0.97567141  0.99531890  1
  O  O360  1  0.09086569  -0.05909466  -0.02354207  1
  O  O361  1  0.04001490  -0.05978486  0.51174619  1
  O  O362  1  0.11202798  0.49077477  0.00976202  1
  O  O363  1  0.11703078  0.50622138  0.49026034  1
  O  O364  1  0.63269469  0.01927484  0.01624335  1
  O  O365  1  0.61056832  -0.00870530  0.48369537  1
  O  O366  1  0.62229708  0.49933905  0.01280261  1
  O  O367  1  0.61962325  0.50531869  0.50467368  1
  O  O368  1  0.35804156  0.36861325  0.14714231  1
  O  O369  1  0.39390574  0.38832594  0.59193772  1
  O  O370  1  0.34011653  0.89420740  0.16712707  1
  O  O371  1  0.38063268  0.85697387  0.59118373  1
  O  O372  1  0.88627665  0.38194556  0.12443813  1
  O  O373  1  0.87445701  0.34235293  0.64797641  1
  O  O374  1  0.86830014  0.85049986  0.10302911  1
  O  O375  1  0.78315947  0.89817272  0.65182285  1
  O  O376  1  0.16848725  0.07762065  0.47587519  1
  O  O377  1  0.14410909  0.14713525  0.88828081  1
  O  O378  1  0.13170016  0.61500592  0.35715682  1
  O  O379  1  0.13243314  0.59732938  0.90020685  1
  O  O380  1  0.63169579  0.13557324  0.36791233  1
  O  O381  1  0.62692923  0.14782562  0.90273725  1
  O  O382  1  0.66138301  0.59958011  0.34641124  1
  O  O383  1  0.61530298  0.61343217  0.88040261  1
