# generated using pymatgen
data_VZnO4
_symmetry_space_group_name_H-M   'P 1'
_cell_length_a   16.90875857
_cell_length_b   16.89425361
_cell_length_c   16.94256299
_cell_angle_alpha   90.39216150
_cell_angle_beta   89.76914087
_cell_angle_gamma   89.94410246
_symmetry_Int_Tables_number   1
_chemical_formula_structural   VZnO4
_chemical_formula_sum   'V64 Zn64 O256'
_cell_volume   4839.67195128
_cell_formula_units_Z   64
loop_
 _symmetry_equiv_pos_site_id
 _symmetry_equiv_pos_as_xyz
  1  'x, y, z'
loop_
 _atom_site_type_symbol
 _atom_site_label
 _atom_site_symmetry_multiplicity
 _atom_site_fract_x
 _atom_site_fract_y
 _atom_site_fract_z
 _atom_site_occupancy
  V  V0  1  0.50373516  0.47616057  -0.00942989  1
  V  V1  1  0.61160531  0.12352261  0.00937565  1
  V  V2  1  -0.01090128  0.11864143  0.12871316  1
  V  V3  1  -0.01583423  0.75928825  0.71950532  1
  V  V4  1  0.35028956  0.74986935  0.12048572  1
  V  V5  1  0.45930165  0.38931663  0.36198170  1
  V  V6  1  0.23691047  0.26913938  0.50460156  1
  V  V7  1  0.63156240  0.61520874  0.50247774  1
  V  V8  1  0.49158526  -0.00594009  0.50571382  1
  V  V9  1  0.75234589  0.75848800  0.50663861  1
  V  V10  1  0.45133028  0.65989349  0.65897834  1
  V  V11  1  0.84757458  0.75736464  0.14105453  1
  V  V12  1  0.88825319  0.12563561  0.75149515  1
  V  V13  1  0.13765261  -0.00740989  0.13290312  1
  V  V14  1  0.27116508  0.25762005  -0.00388210  1
  V  V15  1  0.23562310  0.74649997  0.51379523  1
  V  V16  1  0.11793585  0.74453520  0.35469719  1
  V  V17  1  0.84934690  0.61723296  0.73152981  1
  V  V18  1  0.47077351  0.51999638  0.51175525  1
  V  V19  1  0.11801691  0.25566354  0.88090323  1
  V  V20  1  0.37011119  0.10387979  0.74360867  1
  V  V21  1  0.62258754  0.62502056  -0.00890407  1
  V  V22  1  0.51163001  0.76183290  0.78202117  1
  V  V23  1  0.01435996  0.27404037  0.22693997  1
  V  V24  1  0.48974670  0.87200485  0.36660024  1
  V  V25  1  0.62404378  -0.00883673  0.14514067  1
  V  V26  1  0.37081113  0.86035799  0.51857933  1
  V  V27  1  0.27633306  0.50885447  0.24644408  1
  V  V28  1  0.63386582  -0.01634281  0.62437422  1
  V  V29  1  0.74921267  0.11290670  0.87421382  1
  V  V30  1  0.62350581  0.25905317  0.87329954  1
  V  V31  1  0.90905326  0.03587306  0.38853615  1
  V  V32  1  0.63095838  0.75426474  0.36584949  1
  V  V33  1  0.38433553  0.24635592  0.15567043  1
  V  V34  1  0.09786873  0.74999174  0.87442789  1
  V  V35  1  0.75014032  0.74607783  -0.01118442  1
  V  V36  1  0.25960143  0.11106320  0.87227113  1
  V  V37  1  0.26180089  0.63156742  0.36744941  1
  V  V38  1  0.61754660  0.49783718  0.14260640  1
  V  V39  1  0.00820454  0.38252311  0.38619677  1
  V  V40  1  0.86959265  0.48483181  0.91881249  1
  V  V41  1  0.75334000  0.60679931  0.35851047  1
  V  V42  1  0.23377680  0.12507249  0.38231664  1
  V  V43  1  0.12795609  0.11252194  -0.00051960  1
  V  V44  1  0.49592144  0.26061453  0.75664407  1
  V  V45  1  0.75526871  0.37078830  0.63179368  1
  V  V46  1  0.73906955  0.36854492  0.14850156  1
  V  V47  1  0.27058946  -0.00262247  0.25074791  1
  V  V48  1  0.11647901  0.37580053  0.75421797  1
  V  V49  1  0.25474925  0.49822748  0.73561335  1
  V  V50  1  0.50673366  0.12363658  0.63277141  1
  V  V51  1  0.00569458  0.87570596  0.35090552  1
  V  V52  1  0.89526007  0.61171220  0.24586505  1
  V  V53  1  0.25719490  0.71268572  -0.03826026  1
  V  V54  1  0.14436317  0.88374686  0.74373227  1
  V  V55  1  0.88854718  -0.01477181  0.88507791  1
  V  V56  1  0.64939092  0.87468963  0.76171362  1
  V  V57  1  0.49699794  -0.02080951  -0.00571308  1
  V  V58  1  -0.00251513  0.52542381  0.50736712  1
  V  V59  1  0.76163211  0.25341173  0.00558870  1
  V  V60  1  0.49036401  0.73025647  0.24476333  1
  V  V61  1  0.37090742  0.50119543  0.87402401  1
  V  V62  1  0.25075326  0.38630270  0.12526002  1
  V  V63  1  0.88235211  0.87775607  0.50008794  1
  Zn  Zn64  1  0.20716747  0.17834338  0.18820651  1
  Zn  Zn65  1  0.22114446  0.23185363  0.70163368  1
  Zn  Zn66  1  0.17985835  0.68095040  0.18260370  1
  Zn  Zn67  1  0.16797406  0.67965905  0.70062182  1
  Zn  Zn68  1  0.71914329  0.15025217  0.16224785  1
  Zn  Zn69  1  0.68619386  0.17944322  0.69497538  1
  Zn  Zn70  1  0.67688457  0.67938661  0.18568747  1
  Zn  Zn71  1  0.68090182  0.69010045  0.68917590  1
  Zn  Zn72  1  0.28417043  0.31769945  0.31460351  1
  Zn  Zn73  1  0.32094142  0.32246536  0.81706431  1
  Zn  Zn74  1  0.31577280  0.80999047  0.31027634  1
  Zn  Zn75  1  0.31415617  0.77573456  0.77166464  1
  Zn  Zn76  1  0.85762498  0.35219333  0.26151192  1
  Zn  Zn77  1  0.82489958  0.30897850  0.82761147  1
  Zn  Zn78  1  0.82475375  0.81297602  0.31801578  1
  Zn  Zn79  1  0.82338841  0.79600235  0.81872936  1
  Zn  Zn80  1  0.17830186  0.45358434  0.41830217  1
  Zn  Zn81  1  0.20014024  0.43273487  0.93193669  1
  Zn  Zn82  1  0.20172222  0.92298988  0.41784916  1
  Zn  Zn83  1  0.07053673  0.92887340  0.93401488  1
  Zn  Zn84  1  0.71661428  0.43618600  0.45020736  1
  Zn  Zn85  1  0.69034044  0.43949040  0.94519735  1
  Zn  Zn86  1  0.67556518  0.93285898  0.44053604  1
  Zn  Zn87  1  0.68888660  0.93486510  0.95405386  1
  Zn  Zn88  1  0.32377170  0.06564704  0.06434774  1
  Zn  Zn89  1  0.35926731  0.11951202  0.51413176  1
  Zn  Zn90  1  0.33183030  0.56675327  0.06079024  1
  Zn  Zn91  1  0.29027419  0.57190734  0.56707475  1
  Zn  Zn92  1  0.80370716  0.04924037  0.05673613  1
  Zn  Zn93  1  0.82831237  0.04735147  0.57030968  1
  Zn  Zn94  1  0.80069858  0.56386135  0.08039092  1
  Zn  Zn95  1  0.81697263  0.56644904  0.54566300  1
  Zn  Zn96  1  0.43932266  0.42919320  0.17367104  1
  Zn  Zn97  1  0.46637723  0.46501705  0.70117398  1
  Zn  Zn98  1  0.44025996  0.93217207  0.16767473  1
  Zn  Zn99  1  0.44413318  0.92812002  0.69319970  1
  Zn  Zn100  1  0.93028535  0.44514178  0.12783727  1
  Zn  Zn101  1  0.94153824  0.44740381  0.69580611  1
  Zn  Zn102  1  0.94466429  0.92702155  0.07013756  1
  Zn  Zn103  1  0.85391318  0.92082390  0.70880099  1
  Zn  Zn104  1  0.07004377  0.06333086  0.30451882  1
  Zn  Zn105  1  0.06854936  0.06051670  0.80867270  1
  Zn  Zn106  1  0.06220764  0.54786072  0.32509281  1
  Zn  Zn107  1  0.06686926  0.55606344  0.82137755  1
  Zn  Zn108  1  0.43599533  0.05586236  0.32504986  1
  Zn  Zn109  1  0.56613263  0.05227849  0.81552148  1
  Zn  Zn110  1  0.55517821  0.55542129  0.33124965  1
  Zn  Zn111  1  0.56854084  0.56414029  0.81375981  1
  Zn  Zn112  1  0.41032209  0.22308169  0.38851572  1
  Zn  Zn113  1  0.43973768  0.17952232  0.92905521  1
  Zn  Zn114  1  0.43919641  0.69244103  0.44277809  1
  Zn  Zn115  1  0.43899244  0.67981371  0.94721167  1
  Zn  Zn116  1  0.92745875  0.23329252  0.36693418  1
  Zn  Zn117  1  0.93963742  0.17796522  0.94174358  1
  Zn  Zn118  1  0.93446536  0.69126989  0.42816750  1
  Zn  Zn119  1  0.94382575  0.68595271  0.97670387  1
  Zn  Zn120  1  0.09980341  0.27976874  0.09078839  1
  Zn  Zn121  1  0.10942263  0.40895849  0.56012256  1
  Zn  Zn122  1  0.10202578  0.80881353  0.06256949  1
  Zn  Zn123  1  0.06316116  0.81780950  0.55962427  1
  Zn  Zn124  1  0.56262170  0.30497669  0.06998354  1
  Zn  Zn125  1  0.39038705  0.28574830  0.59734544  1
  Zn  Zn126  1  0.57711749  0.81296898  0.07125775  1
  Zn  Zn127  1  0.56673733  0.80771621  0.55950617  1
  O  O128  1  0.14004512  0.11748979  0.10587875  1
  O  O129  1  0.05766345  0.09310471  0.61481936  1
  O  O130  1  0.12168526  0.57738912  0.16032066  1
  O  O131  1  0.07308509  0.61609557  0.66406670  1
  O  O132  1  0.61288127  0.13574851  0.10977944  1
  O  O133  1  0.61188830  0.10877529  0.63726837  1
  O  O134  1  0.62660859  0.60117911  0.12080015  1
  O  O135  1  0.63536677  0.63215955  0.60070128  1
  O  O136  1  0.35839888  0.38851597  0.37092990  1
  O  O137  1  0.38590670  0.39690851  0.87273284  1
  O  O138  1  0.38724230  0.86234246  0.38905843  1
  O  O139  1  0.35694645  0.88549540  0.88640653  1
  O  O140  1  0.90310023  0.35563499  0.36918143  1
  O  O141  1  0.88083969  0.38912392  0.88427754  1
  O  O142  1  0.89532762  0.87793338  0.37895583  1
  O  O143  1  0.87058895  0.88734926  0.87333739  1
  O  O144  1  0.24987288  0.00833789  0.36176217  1
  O  O145  1  0.24945142  0.01660128  0.87002462  1
  O  O146  1  0.24913036  0.52005441  0.35689190  1
  O  O147  1  0.26742521  0.50522367  0.87822774  1
  O  O148  1  0.72700638  -0.03556614  0.33178520  1
  O  O149  1  0.75709819  0.01107536  0.89350222  1
  O  O150  1  0.75418831  0.50726946  0.37213677  1
  O  O151  1  0.77278234  0.50477494  0.89843169  1
  O  O152  1  0.26892127  0.49441309  0.12986676  1
  O  O153  1  0.25196019  0.48878838  0.63408097  1
  O  O154  1  0.25039394  1.01324736  0.13999608  1
  O  O155  1  0.16874534  1.01463908  0.56925778  1
  O  O156  1  0.73069008  0.48024115  0.12938366  1
  O  O157  1  0.76113804  0.47620940  0.62205044  1
  O  O158  1  0.72806903  1.03712302  0.13992491  1
  O  O159  1  0.73152274  1.00173710  0.61454123  1
  O  O160  1  -0.00003947  0.36948709  0.19765015  1
  O  O161  1  0.01628859  0.38996279  0.76236000  1
  O  O162  1  0.00218824  0.87392641  0.25603663  1
  O  O163  1  -0.04726076  0.85343317  0.73549609  1
  O  O164  1  0.48853170  0.38879660  0.26637867  1
  O  O165  1  0.49989936  0.35681912  0.74665926  1
  O  O166  1  0.48921949  0.86887112  0.26577837  1
  O  O167  1  0.51487267  0.86526170  0.75632810  1
  O  O168  1  0.50475307  0.14994171  0.28887223  1
  O  O169  1  0.48931800  0.11469370  0.74487270  1
  O  O170  1  0.49680607  0.63297214  0.26573432  1
  O  O171  1  0.52117762  0.65167894  0.74533859  1
  O  O172  1  1.01043723  0.12504173  0.22926912  1
  O  O173  1  0.98939162  0.12093859  0.75847829  1
  O  O174  1  0.99305736  0.62068813  0.26379256  1
  O  O175  1  1.01820378  0.62422630  0.72161408  1
  O  O176  1  0.37040430  0.24407761  -0.00374720  1
  O  O177  1  0.35762290  0.24016763  0.49707674  1
  O  O178  1  0.35117139  0.74539294  -0.00125043  1
  O  O179  1  0.36032512  0.75391920  0.50325919  1
  O  O180  1  0.86028529  0.24286519  -0.00270402  1
  O  O181  1  0.77625105  0.19644236  0.46661592  1
  O  O182  1  0.85582231  0.73555323  0.02730952  1
  O  O183  1  0.86229457  0.76516616  0.48812150  1
  O  O184  1  0.15104460  0.22975581  0.52392048  1
  O  O185  1  0.14516153  0.23690421  0.99296314  1
  O  O186  1  0.13622552  0.76032516  0.48682877  1
  O  O187  1  0.15923380  0.76189420  0.97012527  1
  O  O188  1  0.64129139  0.28466139  0.44463754  1
  O  O189  1  0.62132846  0.23800811  0.98736951  1
  O  O190  1  0.63683460  0.74282874  0.48559549  1
  O  O191  1  0.63647539  0.73507213  1.00722960  1
  O  O192  1  0.48262568  0.26065956  0.13718885  1
  O  O193  1  0.50191065  0.22907191  0.64067201  1
  O  O194  1  0.51879942  0.74799695  0.14984403  1
  O  O195  1  0.49565178  0.72450465  0.59668462  1
  O  O196  1  0.99880362  0.22817177  0.11619615  1
  O  O197  1  0.99733997  0.24733073  0.62359058  1
  O  O198  1  1.05926549  0.70682848  0.10663076  1
  O  O199  1  0.98830483  0.74894801  0.62162230  1
  O  O200  1  0.03574924  0.28560344  0.33540393  1
  O  O201  1  0.02008282  0.24236080  0.88918069  1
  O  O202  1  0.01110886  0.75985588  0.37315678  1
  O  O203  1  0.00089787  0.75021090  0.89743563  1
  O  O204  1  0.49132511  0.29951100  0.39874469  1
  O  O205  1  0.51156838  0.24511915  0.86614074  1
  O  O206  1  0.50542772  0.75490894  0.36783022  1
  O  O207  1  0.49619628  0.75716158  0.87911903  1
  O  O208  1  0.24771527  0.11261205  0.48506375  1
  O  O209  1  0.25455360  0.13071978  0.98626918  1
  O  O210  1  0.24654199  0.63995600  0.48219387  1
  O  O211  1  0.24983671  0.61871841  0.99390659  1
  O  O212  1  0.74886891  0.14066597  0.50604462  1
  O  O213  1  0.73743059  0.13572788  0.99637581  1
  O  O214  1  0.74928380  0.63744798  0.48170118  1
  O  O215  1  0.73566450  0.63194325  1.01608517  1
  O  O216  1  0.26034699  0.36488596  0.00660040  1
  O  O217  1  0.21504259  0.37016195  0.48914383  1
  O  O218  1  0.31010866  0.88974801  -0.05860455  1
  O  O219  1  0.26148322  0.86102551  0.49734014  1
  O  O220  1  0.74386327  0.35430339  0.00354699  1
  O  O221  1  0.76352636  0.36001952  0.52815234  1
  O  O222  1  0.74368896  0.84792551  -0.00090624  1
  O  O223  1  0.75401572  0.86284044  0.48547094  1
  O  O224  1  0.13054827  0.52341804  0.21311749  1
  O  O225  1  0.13911494  0.48378126  0.76933113  1
  O  O226  1  0.13970487  1.00067879  0.23584505  1
  O  O227  1  0.13443360  0.98430957  0.75695357  1
  O  O228  1  0.60783194  0.50141775  0.24146259  1
  O  O229  1  0.57327744  0.49495746  0.72827318  1
  O  O230  1  0.60415792  1.00683231  0.23935714  1
  O  O231  1  0.62538729  0.98218653  0.73783008  1
  O  O232  1  0.37699093  0.00271963  0.24163563  1
  O  O233  1  0.37086140  0.00443427  0.74365811  1
  O  O234  1  0.37367150  0.50884766  0.24574482  1
  O  O235  1  0.36467336  0.49620696  0.75600984  1
  O  O236  1  0.85865855  0.03582058  0.30743957  1
  O  O237  1  0.86994137  0.01043076  0.77715167  1
  O  O238  1  0.88912594  0.51193943  0.22564979  1
  O  O239  1  0.88513001  0.52443348  0.76124306  1
  O  O240  1  0.09467236  0.43168449  0.33897593  1
  O  O241  1  0.12571737  0.36007694  0.88195788  1
  O  O242  1  0.11391151  0.86447451  0.37384019  1
  O  O243  1  0.11806416  0.86000704  0.85255232  1
  O  O244  1  0.66098991  0.33989795  0.39982928  1
  O  O245  1  0.63560314  0.35710508  0.87679585  1
  O  O246  1  0.60787618  0.85827535  0.38061926  1
  O  O247  1  0.64337936  0.88369048  0.85942473  1
  O  O248  1  0.36674604  0.14937804  0.12992660  1
  O  O249  1  0.38598506  0.12083111  0.63852826  1
  O  O250  1  0.38475824  0.65273641  0.11430288  1
  O  O251  1  0.35613499  0.64062356  0.63502179  1
  O  O252  1  0.89136667  0.10628005  0.11851960  1
  O  O253  1  0.86935624  0.11034472  0.65108210  1
  O  O254  1  0.87362985  0.63985036  0.14119011  1
  O  O255  1  0.85975987  0.62313302  0.63263698  1
  O  O256  1  0.25844597  0.25897660  0.11258165  1
  O  O257  1  0.27348608  0.26807129  0.61191448  1
  O  O258  1  0.24667478  0.74648732  0.11789671  1
  O  O259  1  0.22483449  0.73359376  0.61209578  1
  O  O260  1  0.73897064  0.25308345  0.11520610  1
  O  O261  1  0.74383519  0.26668136  0.63623967  1
  O  O262  1  0.74587954  0.75964344  0.14001193  1
  O  O263  1  0.74548249  0.75191380  0.60416945  1
  O  O264  1  0.24571893  0.23873091  0.38968697  1
  O  O265  1  0.25177009  0.25062103  0.88829712  1
  O  O266  1  0.23785436  0.74365972  0.36926157  1
  O  O267  1  0.26987668  0.72304638  0.86190365  1
  O  O268  1  0.73082142  0.21749665  0.32122721  1
  O  O269  1  0.74077430  0.23996288  0.88626467  1
  O  O270  1  0.73732828  0.75147473  0.36975200  1
  O  O271  1  0.76454068  0.73182395  0.89091743  1
  O  O272  1  0.02319936  0.12325273  0.00533630  1
  O  O273  1  -0.04305689  0.23373878  0.56540534  1
  O  O274  1  0.03648934  0.65652242  0.05062030  1
  O  O275  1  -0.01084052  0.62547328  0.50255917  1
  O  O276  1  0.51082511  0.11776696  -0.00740446  1
  O  O277  1  0.48779261  0.10254326  0.52292462  1
  O  O278  1  0.51939629  0.62483344  0.00665933  1
  O  O279  1  0.52041888  0.61584930  0.47745949  1
  O  O280  1  0.47567270  0.41318415  0.53937292  1
  O  O281  1  0.50902124  0.37698611  0.99417642  1
  O  O282  1  0.48893193  0.87139290  0.49885927  1
  O  O283  1  0.51513997  0.87942405  1.00163699  1
  O  O284  1  1.02929549  0.35911562  0.47965947  1
  O  O285  1  1.06230419  0.45924343  1.02106884  1
  O  O286  1  0.98456759  0.87550184  0.49809784  1
  O  O287  1  1.01995042  0.86590525  1.01195379  1
  O  O288  1  0.50604384  0.47985251  0.40626172  1
  O  O289  1  0.50715693  0.49636004  0.88840536  1
  O  O290  1  0.50078079  0.98159505  0.39327454  1
  O  O291  1  0.50819822  0.99592661  0.89332983  1
  O  O292  1  0.98165172  0.49468806  0.39920456  1
  O  O293  1  0.97841711  0.53208883  0.89844541  1
  O  O294  1  1.00657459  0.98984169  0.36966338  1
  O  O295  1  0.99372041  0.99811013  0.88030195  1
  O  O296  1  0.02693113  0.01083812  0.11879108  1
  O  O297  1  0.01767693  0.08269170  0.55566125  1
  O  O298  1  0.02414856  0.50015811  0.07590691  1
  O  O299  1  -0.00140037  0.48160361  0.60405626  1
  O  O300  1  0.51639938  -0.00337137  0.11127501  1
  O  O301  1  0.50888877  -0.00341977  0.62175802  1
  O  O302  1  0.51181911  0.48817346  0.10899768  1
  O  O303  1  0.48068164  0.55493764  0.61438496  1
  O  O304  1  0.24645259  0.39941832  0.23925996  1
  O  O305  1  0.24187110  0.38507197  0.76132808  1
  O  O306  1  0.26173466  0.89636283  0.25839439  1
  O  O307  1  0.24232180  0.85470312  0.74100476  1
  O  O308  1  0.73733455  0.35899310  0.24827052  1
  O  O309  1  0.75724546  0.37120597  0.73815072  1
  O  O310  1  0.74702778  0.91065228  0.28305354  1
  O  O311  1  0.75355376  0.86224460  0.74570968  1
  O  O312  1  0.25388132  0.11512423  0.26859270  1
  O  O313  1  0.26394576  0.13459842  0.75744837  1
  O  O314  1  0.25284076  0.61821516  0.25259842  1
  O  O315  1  0.23593850  0.59995355  0.74371147  1
  O  O316  1  0.74387423  0.15470634  0.28381822  1
  O  O317  1  0.75051815  0.12222189  0.77167260  1
  O  O318  1  0.74694934  0.61771786  0.25806222  1
  O  O319  1  0.75038566  0.62630956  0.75096430  1
  O  O320  1  0.36795864  0.11903434  0.38981455  1
  O  O321  1  0.36885695  0.12111650  0.85947332  1
  O  O322  1  0.35995294  0.64095667  0.37174134  1
  O  O323  1  0.39627584  0.60329924  0.87353138  1
  O  O324  1  0.92448277  0.13403063  0.41502510  1
  O  O325  1  0.86521426  0.11467240  0.87872011  1
  O  O326  1  0.86104891  0.63072129  0.35666096  1
  O  O327  1  0.91829424  0.59407705  0.90323495  1
  O  O328  1  0.15109080  0.38034894  0.11147787  1
  O  O329  1  0.12613008  0.35724504  0.65516057  1
  O  O330  1  0.14812297  0.89496767  0.11849829  1
  O  O331  1  0.10899525  0.87161816  0.64851075  1
  O  O332  1  0.63034055  0.37904503  0.12645412  1
  O  O333  1  0.65367061  0.38583080  0.63369143  1
  O  O334  1  0.63865264  0.89173910  0.13082243  1
  O  O335  1  0.62660778  0.87862723  0.62963941  1
  O  O336  1  0.11864170  0.25155269  0.20898273  1
  O  O337  1  0.13483121  0.25813639  0.77248264  1
  O  O338  1  0.12511758  0.75193886  0.25555450  1
  O  O339  1  0.09243208  0.75926291  0.75481245  1
  O  O340  1  0.58279672  0.15273665  0.30954274  1
  O  O341  1  0.61465549  0.23884851  0.76539913  1
  O  O342  1  0.61403097  0.74199683  0.26487148  1
  O  O343  1  0.62151567  0.76633561  0.75136166  1
  O  O344  1  0.36559082  0.25151312  0.25722661  1
  O  O345  1  0.39049840  0.24490822  0.75477903  1
  O  O346  1  0.38227382  0.74848359  0.23655790  1
  O  O347  1  0.41441746  0.74689156  0.73341638  1
  O  O348  1  0.91170330  0.24523558  0.25144107  1
  O  O349  1  0.87193311  0.22635882  0.76712050  1
  O  O350  1  0.87141142  0.73986780  0.24403638  1
  O  O351  1  0.89383398  0.71358469  0.76648221  1
  O  O352  1  0.37511072  0.53240702  0.49467322  1
  O  O353  1  0.39617253  0.49969665  0.99303332  1
  O  O354  1  0.38841680  0.97942526  0.50977719  1
  O  O355  1  0.39685722  0.99689350  1.01259385  1
  O  O356  1  0.88943319  0.49268633  0.50318297  1
  O  O357  1  0.87263900  0.48731100  1.02384275  1
  O  O358  1  0.85716424  0.99163782  0.47512193  1
  O  O359  1  0.87876315  0.99184478  0.99485683  1
  O  O360  1  0.13886684  0.01001417  -0.00275380  1
  O  O361  1  0.13184553  -0.01588483  0.51393278  1
  O  O362  1  0.11779494  0.50401577  -0.01614680  1
  O  O363  1  0.10652642  0.50559212  0.49724720  1
  O  O364  1  0.62177257  0.01234552  0.00903612  1
  O  O365  1  0.60813862  -0.01183410  0.51335077  1
  O  O366  1  0.61626187  0.50478136  0.00358204  1
  O  O367  1  0.64244362  0.51383726  0.49567794  1
  O  O368  1  0.36023658  0.35791962  0.13177576  1
  O  O369  1  0.42772453  0.39703791  0.60655680  1
  O  O370  1  0.38601887  0.84596329  0.11649962  1
  O  O371  1  0.37860761  0.86685703  0.61743423  1
  O  O372  1  0.84515413  0.37052602  0.14116060  1
  O  O373  1  0.86155020  0.37272955  0.64391763  1
  O  O374  1  0.88325702  0.85172494  0.13246525  1
  O  O375  1  0.86413725  0.89952942  0.59725232  1
  O  O376  1  0.13321674  0.12142779  0.37857729  1
  O  O377  1  0.14059912  0.13219136  0.88168882  1
  O  O378  1  0.12949962  0.63938314  0.36651635  1
  O  O379  1  0.11827269  0.65093763  0.86129370  1
  O  O380  1  0.59939564  0.13950226  0.38126814  1
  O  O381  1  0.63666518  0.12417201  0.88273153  1
  O  O382  1  0.63987315  0.63155427  0.37857109  1
  O  O383  1  0.62991386  0.61890676  0.89078925  1
