# generated using pymatgen
data_VZnO4
_symmetry_space_group_name_H-M   'P 1'
_cell_length_a   16.92134798
_cell_length_b   16.96664529
_cell_length_c   16.88744178
_cell_angle_alpha   89.18990913
_cell_angle_beta   90.68360236
_cell_angle_gamma   90.18432569
_symmetry_Int_Tables_number   1
_chemical_formula_structural   VZnO4
_chemical_formula_sum   'V64 Zn64 O256'
_cell_volume   4847.50718278
_cell_formula_units_Z   64
loop_
 _symmetry_equiv_pos_site_id
 _symmetry_equiv_pos_as_xyz
  1  'x, y, z'
loop_
 _atom_site_type_symbol
 _atom_site_label
 _atom_site_symmetry_multiplicity
 _atom_site_fract_x
 _atom_site_fract_y
 _atom_site_fract_z
 _atom_site_occupancy
  V  V0  1  0.88391752  -0.00633433  0.87969372  1
  V  V1  1  0.26212942  -0.00263168  0.75140304  1
  V  V2  1  0.49356885  0.76152514  0.24209047  1
  V  V3  1  0.01455717  -0.00130799  0.01877076  1
  V  V4  1  0.50950871  0.50075550  0.00196056  1
  V  V5  1  0.37661148  0.64109956  0.72948818  1
  V  V6  1  0.26216946  0.86779325  0.62815653  1
  V  V7  1  0.26074495  0.28141488  0.50653906  1
  V  V8  1  0.00821348  0.75314309  0.25763643  1
  V  V9  1  0.26934398  -0.01717466  0.23730321  1
  V  V10  1  0.72770869  0.25924737  -0.00006518  1
  V  V11  1  0.01524716  0.15236481  0.12627323  1
  V  V12  1  0.72158573  0.37700694  0.13535735  1
  V  V13  1  0.87847388  0.75818499  0.64956099  1
  V  V14  1  0.50225775  0.26102346  0.25575459  1
  V  V15  1  0.36926545  0.13652841  0.24216046  1
  V  V16  1  0.88051592  0.50392080  0.39762911  1
  V  V17  1  0.75999714  0.14110605  0.84698058  1
  V  V18  1  0.24602094  0.08234874  0.38688594  1
  V  V19  1  0.10589660  0.65049267  0.48476132  1
  V  V20  1  0.12897320  0.87164473  0.25498266  1
  V  V21  1  0.38297873  0.50631026  0.86989958  1
  V  V22  1  0.26870552  0.12854119  0.87565648  1
  V  V23  1  0.25479022  0.60574202  0.38074300  1
  V  V24  1  0.86588370  0.12329053  0.24370299  1
  V  V25  1  0.73892181  0.61725815  0.88356816  1
  V  V26  1  0.74371603  0.09559105  0.40588465  1
  V  V27  1  0.09865818  0.75721769  0.88594561  1
  V  V28  1  0.24174160  0.63869637  0.88905870  1
  V  V29  1  -0.00288676  0.63477367  0.63534312  1
  V  V30  1  0.63800928  0.88172552  0.24751637  1
  V  V31  1  0.28100769  0.40211857  0.62833101  1
  V  V32  1  0.11464713  0.50066299  0.60547135  1
  V  V33  1  0.73090908  -0.02558746  0.76405034  1
  V  V34  1  0.65515770  0.27663641  0.37938731  1
  V  V35  1  -0.00275376  0.35437249  0.37824119  1
  V  V36  1  0.03278481  0.37796594  0.84792247  1
  V  V37  1  0.39504023  -0.01318312  0.88939405  1
  V  V38  1  0.13023526  0.23988819  0.84010759  1
  V  V39  1  0.37089770  0.73984524  0.09741311  1
  V  V40  1  0.86393331  0.88952118  0.02204636  1
  V  V41  1  0.52023275  0.62941983  0.11680734  1
  V  V42  1  -0.01077990  0.63429580  0.10652385  1
  V  V43  1  0.74486054  0.50095957  0.25123193  1
  V  V44  1  0.55617714  0.81844969  0.85089414  1
  V  V45  1  0.76347487  0.34750186  0.64868049  1
  V  V46  1  0.50550650  0.11740002  0.12267209  1
  V  V47  1  0.34457021  0.38807265  0.00688204  1
  V  V48  1  0.62238455  0.01066921  0.61475357  1
  V  V49  1  0.13333774  0.13560276  -0.00131558  1
  V  V50  1  0.85753452  0.76616258  0.13725432  1
  V  V51  1  0.24953150  0.86386091  0.10149404  1
  V  V52  1  0.64590766  0.49290427  0.62980702  1
  V  V53  1  0.11322275  0.87694376  0.75207534  1
  V  V54  1  0.46152295  0.16855403  0.63491355  1
  V  V55  1  0.91926742  0.37141010  0.00944833  1
  V  V56  1  0.87253947  0.62316845  0.25597607  1
  V  V57  1  0.87447277  0.34394396  0.51332930  1
  V  V58  1  0.48099004  -0.00438462  0.50522839  1
  V  V59  1  0.61406460  0.73723686  0.38136542  1
  V  V60  1  0.87893708  0.49394080  0.86137981  1
  V  V61  1  0.13491490  0.49373676  0.12957662  1
  V  V62  1  0.22396011  0.51348842  0.74879716  1
  V  V63  1  0.73637240  0.86349514  0.61199355  1
  Zn  Zn64  1  0.16385870  0.16119104  0.23437841  1
  Zn  Zn65  1  0.26048670  0.20382939  0.69712234  1
  Zn  Zn66  1  0.19221093  0.66710512  0.16276960  1
  Zn  Zn67  1  0.17653074  0.69591372  0.69388638  1
  Zn  Zn68  1  0.68704296  0.18848508  0.19352355  1
  Zn  Zn69  1  0.75451805  0.13623894  0.62613732  1
  Zn  Zn70  1  0.68543791  0.69111029  0.19529114  1
  Zn  Zn71  1  0.68306763  0.68406567  0.67605391  1
  Zn  Zn72  1  0.36707564  0.30396991  0.35205163  1
  Zn  Zn73  1  0.26038251  0.35413746  0.85040966  1
  Zn  Zn74  1  0.31618589  0.78926248  0.29386835  1
  Zn  Zn75  1  0.32010297  0.81596962  0.82096991  1
  Zn  Zn76  1  0.83943655  0.32186008  0.29850681  1
  Zn  Zn77  1  0.83920690  0.30204470  0.83284980  1
  Zn  Zn78  1  0.79821462  0.79613263  0.33792844  1
  Zn  Zn79  1  0.76610549  0.76916583  0.79618407  1
  Zn  Zn80  1  0.20456133  0.40781658  0.39342170  1
  Zn  Zn81  1  0.16030994  0.47425323  0.94343882  1
  Zn  Zn82  1  0.23460102  0.88478113  0.42341913  1
  Zn  Zn83  1  0.18428046  0.94475429  0.92319072  1
  Zn  Zn84  1  0.70432241  0.44005333  0.45113930  1
  Zn  Zn85  1  0.72027418  0.47325381  0.97814297  1
  Zn  Zn86  1  0.65842283  0.91939397  0.43169778  1
  Zn  Zn87  1  0.68789077  0.86013907  0.93766774  1
  Zn  Zn88  1  0.31584015  0.05781374  0.06114111  1
  Zn  Zn89  1  0.31267271  0.07395188  0.57451667  1
  Zn  Zn90  1  0.31418196  0.54843568  0.07425931  1
  Zn  Zn91  1  0.29852874  0.69750369  0.54727864  1
  Zn  Zn92  1  0.83933678  0.09497080  0.04519565  1
  Zn  Zn93  1  0.79787555  -0.01027745  0.51726630  1
  Zn  Zn94  1  0.83924214  0.54663273  0.06933889  1
  Zn  Zn95  1  0.81389241  0.56903862  0.70011729  1
  Zn  Zn96  1  0.44784294  0.42180151  0.15195840  1
  Zn  Zn97  1  0.45746975  0.45377078  0.70564018  1
  Zn  Zn98  1  0.43588629  0.93061324  0.15978249  1
  Zn  Zn99  1  0.44698928  0.93017023  0.70209699  1
  Zn  Zn100  1  0.96295049  0.44541800  0.19422086  1
  Zn  Zn101  1  0.94785833  0.43623130  0.67658251  1
  Zn  Zn102  1  0.94694664  0.94942797  0.19841666  1
  Zn  Zn103  1  0.91041248  0.91722734  0.70567849  1
  Zn  Zn104  1  0.05621237  0.04917105  0.30408520  1
  Zn  Zn105  1  0.06989460  0.05988835  0.80585798  1
  Zn  Zn106  1  0.05643295  0.55426946  0.31084096  1
  Zn  Zn107  1  0.03966114  0.58513339  0.83540708  1
  Zn  Zn108  1  0.56166013  0.06380322  0.32074822  1
  Zn  Zn109  1  0.56627128  0.07774853  0.80462868  1
  Zn  Zn110  1  0.55467593  0.56517456  0.30011210  1
  Zn  Zn111  1  0.56158109  0.56606460  0.79502791  1
  Zn  Zn112  1  0.43722763  0.15807229  0.43563762  1
  Zn  Zn113  1  0.42903459  0.20741580  0.95560752  1
  Zn  Zn114  1  0.44289630  0.67021052  0.40461328  1
  Zn  Zn115  1  0.43746649  0.67946019  0.93145778  1
  Zn  Zn116  1  0.91005271  0.18432762  0.41979990  1
  Zn  Zn117  1  0.94697953  0.19948239  0.92521005  1
  Zn  Zn118  1  0.92830547  0.70169024  0.43967524  1
  Zn  Zn119  1  0.90643208  0.70910779  0.93104295  1
  Zn  Zn120  1  0.10341384  0.32114413  0.05375731  1
  Zn  Zn121  1  0.07409609  0.30333052  0.55057868  1
  Zn  Zn122  1  0.06004372  0.80832876  0.07269964  1
  Zn  Zn123  1  0.07138676  0.81994696  0.57136751  1
  Zn  Zn124  1  0.54845960  0.30948855  0.06766684  1
  Zn  Zn125  1  0.59551360  0.29263685  0.57347187  1
  Zn  Zn126  1  0.57827708  0.81304811  0.05923426  1
  Zn  Zn127  1  0.55184976  0.82194070  0.54459448  1
  O  O128  1  0.13103843  0.12866886  0.10103027  1
  O  O129  1  0.04910102  0.15455523  0.65459139  1
  O  O130  1  0.08993754  0.63262026  0.12556764  1
  O  O131  1  0.10952605  0.63676140  0.61275581  1
  O  O132  1  0.60351717  0.12622667  0.15119712  1
  O  O133  1  0.63855149  0.10835280  0.61799603  1
  O  O134  1  0.61946633  0.63631909  0.11532200  1
  O  O135  1  0.64206957  0.59472551  0.62634651  1
  O  O136  1  0.35690648  0.42521998  0.33013090  1
  O  O137  1  0.36130754  0.40292072  0.88151746  1
  O  O138  1  0.33288258  0.81667186  0.40794108  1
  O  O139  1  0.38646919  0.88616474  0.88225066  1
  O  O140  1  0.87532425  0.38499081  0.40597842  1
  O  O141  1  0.91811870  0.38747364  0.86436150  1
  O  O142  1  0.85056249  0.77925099  0.43547212  1
  O  O143  1  0.88149307  0.89420426  0.90889345  1
  O  O144  1  0.25604372  -0.01794873  0.35713261  1
  O  O145  1  0.26983838  0.01047643  0.87469248  1
  O  O146  1  0.21671528  0.51364859  0.36451930  1
  O  O147  1  0.23436671  0.51626756  0.85934783  1
  O  O148  1  0.74437933  -0.00588697  0.40026929  1
  O  O149  1  0.71453092  -0.04892210  0.85913671  1
  O  O150  1  0.76953629  0.49248747  0.36083301  1
  O  O151  1  0.77420868  0.51200084  0.85753876  1
  O  O152  1  0.22461947  0.54741924  0.14561739  1
  O  O153  1  0.22999668  0.50306661  0.63190137  1
  O  O154  1  0.25854027  0.97691818  0.12862497  1
  O  O155  1  0.25416170  1.00189820  0.64924415  1
  O  O156  1  0.75668552  0.48731539  0.13430791  1
  O  O157  1  0.74760960  0.48360156  0.65433250  1
  O  O158  1  0.68727436  1.02046835  0.08090380  1
  O  O159  1  0.73724255  0.98254175  0.62534691  1
  O  O160  1  -0.04715099  0.36711782  0.28097594  1
  O  O161  1  0.02253656  0.38173689  0.74928792  1
  O  O162  1  0.01813268  0.86714932  0.24376833  1
  O  O163  1  0.01508524  0.89866250  0.74251871  1
  O  O164  1  0.48418087  0.35910802  0.24041541  1
  O  O165  1  0.48260844  0.33786447  0.76051066  1
  O  O166  1  0.50098504  0.86269365  0.22807956  1
  O  O167  1  0.51626441  0.87459675  0.77502189  1
  O  O168  1  0.47773263  0.12586391  0.25401664  1
  O  O169  1  0.50824554  0.13358434  0.71878525  1
  O  O170  1  0.50247114  0.63673136  0.22167465  1
  O  O171  1  0.47612783  0.62026891  0.73981041  1
  O  O172  1  1.04947085  0.13890123  0.22596698  1
  O  O173  1  1.01481349  0.13052858  0.72333713  1
  O  O174  1  0.98252389  0.63856444  0.24231516  1
  O  O175  1  1.00970537  0.63659249  0.73392698  1
  O  O176  1  0.36564834  0.28973840  0.00247537  1
  O  O177  1  0.33639626  0.21601034  0.49914798  1
  O  O178  1  0.37966445  0.75082521  -0.00164214  1
  O  O179  1  0.36147126  0.75635322  0.46029229  1
  O  O180  1  0.87899402  0.27891496  -0.01537114  1
  O  O181  1  0.86852539  0.24490647  0.50712502  1
  O  O182  1  0.87305207  0.78312418  0.02363749  1
  O  O183  1  0.76988892  0.65866552  0.49898573  1
  O  O184  1  0.16629999  0.24464778  0.51505918  1
  O  O185  1  0.13553570  0.23644819  0.98201358  1
  O  O186  1  0.11781885  0.75074626  0.49424247  1
  O  O187  1  0.11361161  0.75861019  0.98556903  1
  O  O188  1  0.62589489  0.24980055  0.47472346  1
  O  O189  1  0.62757138  0.25981692  1.00422672  1
  O  O190  1  0.61258378  0.75065173  0.48285561  1
  O  O191  1  0.66922421  0.76921480  1.00740102  1
  O  O192  1  0.50026474  0.23967269  0.15142344  1
  O  O193  1  0.49424152  0.26421488  0.61714868  1
  O  O194  1  0.49512198  0.74305323  0.11106815  1
  O  O195  1  0.51850572  0.75157858  0.64160950  1
  O  O196  1  1.02601027  0.24926696  0.11403763  1
  O  O197  1  1.01478847  0.21853536  0.62351870  1
  O  O198  1  0.98262046  0.75094953  0.13788941  1
  O  O199  1  0.98284180  0.75330270  0.61954326  1
  O  O200  1  -0.00602292  0.25202317  0.38566866  1
  O  O201  1  0.02525661  0.25832541  0.85736134  1
  O  O202  1  -0.00268474  0.75130773  0.35585689  1
  O  O203  1  -0.00043578  0.74931088  0.87389772  1
  O  O204  1  0.46765295  0.24880543  0.36240364  1
  O  O205  1  0.49296347  0.26070332  0.86869122  1
  O  O206  1  0.48544467  0.75931728  0.34491672  1
  O  O207  1  0.50678166  0.73179560  0.86174863  1
  O  O208  1  0.23697092  0.08111485  0.48560549  1
  O  O209  1  0.24171205  0.11554610  0.98544816  1
  O  O210  1  0.22622135  0.63670471  0.47974450  1
  O  O211  1  0.24683312  0.61323374  0.98505851  1
  O  O212  1  0.76370639  0.10844944  0.50785249  1
  O  O213  1  0.75657211  0.16493732  1.02862147  1
  O  O214  1  0.72479930  0.60752923  0.47547735  1
  O  O215  1  0.75689577  0.58447694  0.98483712  1
  O  O216  1  0.24472792  0.39634060  -0.02093479  1
  O  O217  1  0.26050999  0.39384295  0.52239367  1
  O  O218  1  0.23673086  0.87869033  0.00474156  1
  O  O219  1  0.24093998  0.89580014  0.53267645  1
  O  O220  1  0.74610724  0.37068014  0.02384101  1
  O  O221  1  0.77189724  0.37482910  0.52299439  1
  O  O222  1  0.76705525  0.90541243  0.01461619  1
  O  O223  1  0.74934093  0.88126520  0.51023634  1
  O  O224  1  0.07041680  0.49363666  0.21579621  1
  O  O225  1  0.12569292  0.51880385  0.73485924  1
  O  O226  1  0.13678331  0.97530714  0.24694283  1
  O  O227  1  0.14679298  0.98486097  0.77307867  1
  O  O228  1  0.64626885  0.51059000  0.25863198  1
  O  O229  1  0.56650189  0.48306005  0.70912033  1
  O  O230  1  0.61552771  0.97807467  0.27167102  1
  O  O231  1  0.63172089  0.99731721  0.73312465  1
  O  O232  1  0.36924082  -0.01241657  0.24534368  1
  O  O233  1  0.36700749  -0.00578529  0.76546451  1
  O  O234  1  0.40696511  0.47963992  0.30200357  1
  O  O235  1  0.36908643  0.51475041  0.76253058  1
  O  O236  1  0.93234710  0.03810664  0.26636379  1
  O  O237  1  0.85462613  -0.01629415  0.77945763  1
  O  O238  1  0.87285375  0.51883691  0.24898072  1
  O  O239  1  0.89069033  0.49800260  0.75577368  1
  O  O240  1  0.09503625  0.37718646  0.37542428  1
  O  O241  1  0.14117130  0.34867932  0.86110502  1
  O  O242  1  0.14873872  0.85427803  0.35306265  1
  O  O243  1  0.12312658  0.86441812  0.86804582  1
  O  O244  1  0.64015751  0.37563126  0.37851341  1
  O  O245  1  0.62075437  0.38658441  0.85491340  1
  O  O246  1  0.61054834  0.84826607  0.36072444  1
  O  O247  1  0.65856291  0.79703651  0.83490030  1
  O  O248  1  0.37784315  0.12189654  0.13775190  1
  O  O249  1  0.35613389  0.15320415  0.64856097  1
  O  O250  1  0.38056601  0.63722945  0.11047659  1
  O  O251  1  0.35773220  0.63855927  0.62907659  1
  O  O252  1  0.90923647  0.12982935  0.13371612  1
  O  O253  1  0.88304032  0.10226024  0.63818003  1
  O  O254  1  0.86973529  0.65380492  0.13436266  1
  O  O255  1  0.88283025  0.64582469  0.63458331  1
  O  O256  1  0.24215128  0.25527950  0.12879088  1
  O  O257  1  0.26984424  0.29458126  0.62782211  1
  O  O258  1  0.26101230  0.74921866  0.11473573  1
  O  O259  1  0.24527999  0.76313024  0.62521997  1
  O  O260  1  0.73980066  0.27364515  0.13471833  1
  O  O261  1  0.76330303  0.24804534  0.63765291  1
  O  O262  1  0.75887109  0.76207706  0.13780503  1
  O  O263  1  0.76097659  0.75665594  0.62796750  1
  O  O264  1  0.26576987  0.31255007  0.39985291  1
  O  O265  1  0.24842186  0.23515668  0.86209096  1
  O  O266  1  0.23672207  0.70658088  0.32800383  1
  O  O267  1  0.25305350  0.73883863  0.88035698  1
  O  O268  1  0.75461340  0.26511506  0.36564434  1
  O  O269  1  0.74199428  0.25276858  0.89483395  1
  O  O270  1  0.70896042  0.71595309  0.35875462  1
  O  O271  1  0.79591152  0.70750279  0.89507054  1
  O  O272  1  0.01079591  0.12858099  0.00570704  1
  O  O273  1  -0.04962887  0.08289138  0.48534459  1
  O  O274  1  -0.02505256  0.65635647  0.00969375  1
  O  O275  1  0.00002451  0.64290291  0.50840076  1
  O  O276  1  0.49620392  0.14939331  0.02562729  1
  O  O277  1  0.48097186  0.12173061  0.54486731  1
  O  O278  1  0.50148876  0.61125179  0.00322153  1
  O  O279  1  0.47455633  0.65597936  0.52943464  1
  O  O280  1  0.46031419  0.38687317  0.48091292  1
  O  O281  1  0.47752721  0.39583739  1.02764157  1
  O  O282  1  0.49049747  0.89642440  0.48695537  1
  O  O283  1  0.56376527  0.86469696  0.94691665  1
  O  O284  1  0.98527795  0.35905146  0.49795367  1
  O  O285  1  1.01944798  0.36559349  0.98248760  1
  O  O286  1  1.01872616  0.90767417  0.50607618  1
  O  O287  1  1.00455765  0.89756440  1.01601943  1
  O  O288  1  0.47884607  0.48005963  0.33843571  1
  O  O289  1  0.48747370  0.50805832  0.88085225  1
  O  O290  1  0.49278098  1.04955248  0.41286871  1
  O  O291  1  0.48886172  1.01974258  0.86647652  1
  O  O292  1  0.98163658  0.49212569  0.37723310  1
  O  O293  1  1.05800533  0.47603938  0.87374990  1
  O  O294  1  1.02145206  0.96973514  0.38951115  1
  O  O295  1  0.98076344  1.02695937  0.87651842  1
  O  O296  1  0.01876026  0.01543019  0.11799672  1
  O  O297  1  -0.08776161  0.03448420  0.63062937  1
  O  O298  1  -0.04764834  0.53604912  0.11080219  1
  O  O299  1  0.00492565  0.52471494  0.62389539  1
  O  O300  1  0.49430737  0.01671814  0.12056433  1
  O  O301  1  0.51543079  -0.01342065  0.62162410  1
  O  O302  1  0.50272985  0.51844570  0.11432175  1
  O  O303  1  0.44917285  0.45756947  0.48948180  1
  O  O304  1  0.24009853  0.29937783  0.18954899  1
  O  O305  1  0.25181821  0.40569554  0.74007005  1
  O  O306  1  0.25120882  0.87222919  0.24014095  1
  O  O307  1  0.24918195  0.88405739  0.75039494  1
  O  O308  1  0.76061898  0.38920940  0.24007083  1
  O  O309  1  0.78502884  0.35590514  0.74803925  1
  O  O310  1  0.73817127  0.86747256  0.26994226  1
  O  O311  1  0.75249987  0.87668048  0.72979252  1
  O  O312  1  0.26033814  0.09441445  0.23438699  1
  O  O313  1  0.25056172  0.11046303  0.76718658  1
  O  O314  1  0.24380790  0.64293495  0.27162483  1
  O  O315  1  0.25293893  0.62054619  0.74994509  1
  O  O316  1  0.77086942  0.10884202  0.21303638  1
  O  O317  1  0.76082315  0.09577132  0.75155407  1
  O  O318  1  0.76231158  0.61402482  0.23988138  1
  O  O319  1  0.75247526  0.64417845  0.76356028  1
  O  O320  1  0.34018375  0.12682536  0.35854565  1
  O  O321  1  0.36803468  0.13381269  0.88492005  1
  O  O322  1  0.35503548  0.59905203  0.39249003  1
  O  O323  1  0.35639816  0.61601553  0.87079232  1
  O  O324  1  0.83634226  0.11943395  0.35992718  1
  O  O325  1  0.80750349  0.06600257  0.90899364  1
  O  O326  1  0.87840002  0.61814986  0.36256827  1
  O  O327  1  0.92675814  0.58122523  0.87958026  1
  O  O328  1  0.15252589  0.39423493  0.12341132  1
  O  O329  1  0.10777737  0.40049350  0.60799013  1
  O  O330  1  0.14630335  0.85774632  0.13585154  1
  O  O331  1  0.13833094  0.87592008  0.64796630  1
  O  O332  1  0.62284395  0.38178223  0.13527016  1
  O  O333  1  0.65691704  0.36370844  0.63879671  1
  O  O334  1  0.62780509  0.87464461  0.14500856  1
  O  O335  1  0.63491003  0.86476583  0.61770264  1
  O  O336  1  0.19182288  0.27352780  0.24942452  1
  O  O337  1  0.14753987  0.23650993  0.74284528  1
  O  O338  1  0.10958028  0.74902947  0.24060686  1
  O  O339  1  0.12251203  0.76897114  0.76336822  1
  O  O340  1  0.60652836  0.24972948  0.27742250  1
  O  O341  1  0.63528378  0.33155914  0.81161646  1
  O  O342  1  0.60728825  0.75439859  0.24971929  1
  O  O343  1  0.57116016  0.73816406  0.69516110  1
  O  O344  1  0.36792357  0.23731147  0.24552323  1
  O  O345  1  0.44488019  0.29439705  0.81254660  1
  O  O346  1  0.38908442  0.74620617  0.22122829  1
  O  O347  1  0.36899506  0.73707260  0.75574387  1
  O  O348  1  0.88392275  0.22005118  0.25877025  1
  O  O349  1  0.86375197  0.19081037  0.83982681  1
  O  O350  1  0.87624405  0.74987081  0.24903649  1
  O  O351  1  0.87765283  0.76926821  0.74813383  1
  O  O352  1  0.50848504  0.59246235  0.54413343  1
  O  O353  1  0.37931406  0.50355654  0.98467065  1
  O  O354  1  0.38242875  1.00199960  0.52145480  1
  O  O355  1  0.38266129  1.00445662  0.98866378  1
  O  O356  1  0.87104879  0.51833874  0.49214864  1
  O  O357  1  0.87182504  0.46581971  0.97760277  1
  O  O358  1  0.91441497  1.01650472  0.48902892  1
  O  O359  1  0.89788294  1.00303726  1.01053758  1
  O  O360  1  0.11257458  0.01697421  -0.01933268  1
  O  O361  1  0.06061614  -0.04522095  0.45750543  1
  O  O362  1  0.10405006  0.51088557  0.03321979  1
  O  O363  1  0.11916155  0.52735143  0.50975950  1
  O  O364  1  0.64215975  0.02063813  0.02401610  1
  O  O365  1  0.61416345  -0.00661101  0.51085456  1
  O  O366  1  0.60518668  0.48341880  -0.01311453  1
  O  O367  1  0.62836987  0.47400961  0.53088709  1
  O  O368  1  0.34135970  0.42288428  0.10682652  1
  O  O369  1  0.37865084  0.42031311  0.63034169  1
  O  O370  1  0.36018345  0.85785364  0.11293905  1
  O  O371  1  0.36240059  0.87515086  0.64097757  1
  O  O372  1  0.91657899  0.37776344  0.10908378  1
  O  O373  1  0.88010860  0.36606053  0.62017912  1
  O  O374  1  0.87886204  0.88170987  0.13299265  1
  O  O375  1  0.86586686  0.86177896  0.61677925  1
  O  O376  1  0.15369205  0.11510051  0.35016000  1
  O  O377  1  0.13197576  0.13396551  0.87408262  1
  O  O378  1  0.10240031  0.62758297  0.38520401  1
  O  O379  1  0.13095224  0.64760552  0.86967282  1
  O  O380  1  0.65583994  0.12845677  0.36407078  1
  O  O381  1  0.65979789  0.12586387  0.85928492  1
  O  O382  1  0.56121813  0.63931965  0.38405125  1
  O  O383  1  0.63947176  0.61128309  0.86758520  1
