# generated using pymatgen
data_VZnO4
_symmetry_space_group_name_H-M   'P 1'
_cell_length_a   17.04476955
_cell_length_b   16.85528791
_cell_length_c   16.94267780
_cell_angle_alpha   89.49102205
_cell_angle_beta   89.90618316
_cell_angle_gamma   90.29725633
_symmetry_Int_Tables_number   1
_chemical_formula_structural   VZnO4
_chemical_formula_sum   'V64 Zn64 O256'
_cell_volume   4867.27365299
_cell_formula_units_Z   64
loop_
 _symmetry_equiv_pos_site_id
 _symmetry_equiv_pos_as_xyz
  1  'x, y, z'
loop_
 _atom_site_type_symbol
 _atom_site_label
 _atom_site_symmetry_multiplicity
 _atom_site_fract_x
 _atom_site_fract_y
 _atom_site_fract_z
 _atom_site_occupancy
  V  V0  1  0.60144094  0.49613963  0.62389742  1
  V  V1  1  0.62917449  0.50895319  0.11973474  1
  V  V2  1  0.51627359  0.11874930  0.62478579  1
  V  V3  1  0.73942343  0.00116510  0.75403770  1
  V  V4  1  0.49517918  0.48387292  0.00295066  1
  V  V5  1  0.73900913  0.49523104  0.25468626  1
  V  V6  1  0.87417561  -0.01553205  0.38477658  1
  V  V7  1  0.88257446  0.14038344  0.24653839  1
  V  V8  1  0.25873925  0.87510805  0.12924596  1
  V  V9  1  0.89003659  0.12061407  0.76148494  1
  V  V10  1  0.62739481  0.12642472  0.48614354  1
  V  V11  1  0.62868477  0.34663472  0.24325647  1
  V  V12  1  0.73386291  0.75658606  0.03053702  1
  V  V13  1  0.12883068  -0.00542583  0.13735030  1
  V  V14  1  0.11904402  0.72157410  0.36382481  1
  V  V15  1  0.11921454  0.00920218  0.60835393  1
  V  V16  1  0.49949160  0.73866802  0.24852429  1
  V  V17  1  0.50378753  0.11185406  0.11496593  1
  V  V18  1  0.28407991  0.49674386  0.23859201  1
  V  V19  1  0.87676255  0.36856471  0.03176932  1
  V  V20  1  0.87051111  0.50016214  0.39051263  1
  V  V21  1  0.36726708  0.73795641  0.62277767  1
  V  V22  1  0.50031410  0.37284663  0.38317281  1
  V  V23  1  0.88387225  0.86630698  -0.00884828  1
  V  V24  1  0.12028715  0.63384653  0.00224755  1
  V  V25  1  0.86054426  0.23743159  0.62594767  1
  V  V26  1  0.26182771  0.62785469  0.87583607  1
  V  V27  1  0.26650619  0.49794462  0.76139752  1
  V  V28  1  0.00638596  0.37053493  0.37362802  1
  V  V29  1  0.36724604  0.14227291  0.72245581  1
  V  V30  1  0.72889728  0.63466250  0.38372254  1
  V  V31  1  0.23603150  0.87067452  0.61465812  1
  V  V32  1  0.27568156  0.61356989  0.37384146  1
  V  V33  1  0.25771180  0.12956719  0.87248678  1
  V  V34  1  0.13507996  0.48829172  0.12811906  1
  V  V35  1  0.75008537  -0.00141907  0.23903340  1
  V  V36  1  0.00328076  0.12993278  0.12365487  1
  V  V37  1  0.26667574  0.75918008  -0.00262548  1
  V  V38  1  0.11974376  0.10913222  -0.01121328  1
  V  V39  1  0.60397866  0.36828172  0.75890049  1
  V  V40  1  0.74541154  0.11962665  0.89098063  1
  V  V41  1  0.36645351  0.88751007  0.48784667  1
  V  V42  1  0.53294956  0.88696968  0.37232998  1
  V  V43  1  0.36945480  0.24802334  0.10229513  1
  V  V44  1  0.23736022  0.24331100  0.46915816  1
  V  V45  1  0.27510984  0.37588588  0.59733100  1
  V  V46  1  0.87934654  0.62601292  0.25149858  1
  V  V47  1  0.24220359  0.00162949  0.74210124  1
  V  V48  1  0.12006831  0.25900121  0.88471982  1
  V  V49  1  0.01316536  0.87322136  0.35010540  1
  V  V50  1  0.77725216  0.63535014  0.89842090  1
  V  V51  1  0.75874408  0.14824751  0.37435437  1
  V  V52  1  -0.01484339  0.37881556  0.87624889  1
  V  V53  1  0.46313581  -0.00424812  -0.00583136  1
  V  V54  1  0.50859312  0.86525793  0.88812573  1
  V  V55  1  0.49013983  0.23205032  0.25219248  1
  V  V56  1  -0.00864945  0.50766697  0.00878318  1
  V  V57  1  0.74686189  0.25153059  0.00705876  1
  V  V58  1  0.88377125  0.77574383  0.61432855  1
  V  V59  1  0.00671158  0.88968596  0.86183967  1
  V  V60  1  0.11732335  0.38398979  0.74396638  1
  V  V61  1  0.86361222  0.35574777  0.49944184  1
  V  V62  1  0.00577782  0.13521925  0.60709673  1
  V  V63  1  0.01125306  0.73968550  0.74808627  1
  Zn  Zn64  1  0.16530231  0.21585651  0.14796375  1
  Zn  Zn65  1  0.17423602  0.20191723  0.69002939  1
  Zn  Zn66  1  0.19641806  0.67964189  0.18544464  1
  Zn  Zn67  1  0.21118145  0.71005807  0.71587439  1
  Zn  Zn68  1  0.69733073  0.15570545  0.16692893  1
  Zn  Zn69  1  0.68878476  0.18555383  0.70759140  1
  Zn  Zn70  1  0.67900958  0.68792930  0.20062275  1
  Zn  Zn71  1  0.69674273  0.68436777  0.57539557  1
  Zn  Zn72  1  0.32134763  0.31485179  0.29648483  1
  Zn  Zn73  1  0.29406343  0.30408540  0.79769139  1
  Zn  Zn74  1  0.29733020  0.80088109  0.30409567  1
  Zn  Zn75  1  0.31018597  0.81381228  0.81015105  1
  Zn  Zn76  1  0.82464661  0.32201261  0.29796457  1
  Zn  Zn77  1  0.81117199  0.30194552  0.81193552  1
  Zn  Zn78  1  0.79788349  0.81355514  0.30249552  1
  Zn  Zn79  1  0.82644601  0.81067533  0.80238903  1
  Zn  Zn80  1  0.21062528  0.41246790  0.40016847  1
  Zn  Zn81  1  0.17371858  0.45554533  0.92857539  1
  Zn  Zn82  1  0.13790330  0.89230482  0.45910258  1
  Zn  Zn83  1  0.19541953  0.94016418  0.92246510  1
  Zn  Zn84  1  0.67708109  0.41237860  0.43153378  1
  Zn  Zn85  1  0.70454062  0.43631179  0.93820787  1
  Zn  Zn86  1  0.66953400  0.97146563  0.41607047  1
  Zn  Zn87  1  0.71401903  0.90662103  0.89553400  1
  Zn  Zn88  1  0.30780856  0.06977445  0.06689734  1
  Zn  Zn89  1  0.30192384  0.07078849  0.54588408  1
  Zn  Zn90  1  0.31422534  0.56036312  0.05467039  1
  Zn  Zn91  1  0.27829046  0.55943780  0.56889784  1
  Zn  Zn92  1  0.82439454  0.04995500  0.06065164  1
  Zn  Zn93  1  0.78645268  0.04576270  0.55310109  1
  Zn  Zn94  1  0.81158526  0.56714149  0.07408262  1
  Zn  Zn95  1  0.75444198  0.51623367  0.54026738  1
  Zn  Zn96  1  0.45180362  0.42172878  0.17802871  1
  Zn  Zn97  1  0.44431271  0.43568023  0.69603254  1
  Zn  Zn98  1  0.46327904  0.89899386  0.16859599  1
  Zn  Zn99  1  0.41666083  0.94875201  0.68110378  1
  Zn  Zn100  1  0.94080603  0.45489535  0.19697460  1
  Zn  Zn101  1  0.96580072  0.40380806  0.66045544  1
  Zn  Zn102  1  0.92744433  0.94953033  0.17421567  1
  Zn  Zn103  1  0.93879674  0.94406682  0.68214154  1
  Zn  Zn104  1  0.05140796  0.05091474  0.30173889  1
  Zn  Zn105  1  0.06221401  0.06461632  0.80363697  1
  Zn  Zn106  1  0.06369441  0.53342792  0.32088173  1
  Zn  Zn107  1  0.06314300  0.56555876  0.82111052  1
  Zn  Zn108  1  0.56324092  0.06370018  0.30825317  1
  Zn  Zn109  1  0.55898402  0.07419567  0.83054599  1
  Zn  Zn110  1  0.55064428  0.55869424  0.31182159  1
  Zn  Zn111  1  0.60748925  0.52387632  0.84213484  1
  Zn  Zn112  1  0.42539182  0.29345044  0.55184796  1
  Zn  Zn113  1  0.44966726  0.18792327  0.92889783  1
  Zn  Zn114  1  0.40848305  0.73652417  0.40988241  1
  Zn  Zn115  1  0.47058174  0.65016302  0.90475309  1
  Zn  Zn116  1  0.94478423  0.19018328  0.43052892  1
  Zn  Zn117  1  0.93643801  0.19301156  0.94417676  1
  Zn  Zn118  1  0.90821086  0.71648893  0.40393341  1
  Zn  Zn119  1  0.94349067  0.70018284  0.93645204  1
  Zn  Zn120  1  0.06083783  0.31544051  0.05941381  1
  Zn  Zn121  1  0.05727297  0.31415913  0.54608726  1
  Zn  Zn122  1  0.09553037  0.84717658  0.01423134  1
  Zn  Zn123  1  0.02903890  0.78046479  0.52580232  1
  Zn  Zn124  1  0.56243529  0.30886128  0.06334552  1
  Zn  Zn125  1  0.58810756  0.29884185  0.57124694  1
  Zn  Zn126  1  0.52038122  0.77274689  0.03823224  1
  Zn  Zn127  1  0.52013759  0.80214057  0.55275220  1
  O  O128  1  0.13206709  0.10892819  0.10169617  1
  O  O129  1  0.11441629  0.12739977  0.62447153  1
  O  O130  1  0.13630204  0.61329941  0.10663364  1
  O  O131  1  0.10134554  0.62258289  0.56628994  1
  O  O132  1  0.60291549  0.11774467  0.11461518  1
  O  O133  1  0.61267953  0.12122240  0.64946138  1
  O  O134  1  0.62959329  0.60885850  0.12777360  1
  O  O135  1  0.63443144  0.59520756  0.61686324  1
  O  O136  1  0.40273315  0.35755043  0.36741681  1
  O  O137  1  0.33162317  0.36703090  0.92211065  1
  O  O138  1  0.34437239  0.86486006  0.39182485  1
  O  O139  1  0.39874793  0.88035387  0.84543161  1
  O  O140  1  0.87851990  0.37948605  0.38396434  1
  O  O141  1  0.88612379  0.37283373  0.87567324  1
  O  O142  1  0.86672030  0.88265052  0.37460316  1
  O  O143  1  0.88244470  0.88047314  0.88702217  1
  O  O144  1  0.24127920  -0.01631232  0.37734150  1
  O  O145  1  0.23847993  0.01824088  0.85365362  1
  O  O146  1  0.26760997  0.50143119  0.35004093  1
  O  O147  1  0.25577411  0.51534818  0.87720301  1
  O  O148  1  0.76786945  0.01328430  0.36051080  1
  O  O149  1  0.76278077  0.01511038  0.88338353  1
  O  O150  1  0.74625870  0.49558597  0.36824970  1
  O  O151  1  0.71623585  0.55023592  0.88268962  1
  O  O152  1  0.24531264  0.50614089  0.12888829  1
  O  O153  1  0.25513016  0.48170597  0.65067378  1
  O  O154  1  0.23602603  0.98881186  0.11203852  1
  O  O155  1  0.23681942  1.00985450  0.62706844  1
  O  O156  1  0.74341319  0.50137865  0.14470795  1
  O  O157  1  0.75627859  0.49224910  0.66131197  1
  O  O158  1  0.74537178  1.03683816  0.14093488  1
  O  O159  1  0.75030503  1.00959878  0.65456421  1
  O  O160  1  -0.01366171  0.38691500  0.27443621  1
  O  O161  1  0.00521347  0.38737439  0.77148536  1
  O  O162  1  -0.02323187  0.88233240  0.25260356  1
  O  O163  1  -0.00029894  0.87943803  0.75861508  1
  O  O164  1  0.51314084  0.35177667  0.25218679  1
  O  O165  1  0.50359324  0.36405517  0.76393718  1
  O  O166  1  0.49950627  0.90751880  0.27691300  1
  O  O167  1  0.45954403  0.87584459  0.78416486  1
  O  O168  1  0.50350691  0.12372029  0.23310560  1
  O  O169  1  0.47049309  0.12183931  0.73102277  1
  O  O170  1  0.49897788  0.63701819  0.24822915  1
  O  O171  1  0.53248412  0.65975265  0.77339958  1
  O  O172  1  0.99153774  0.12638019  0.23887029  1
  O  O173  1  0.99098874  0.12680034  0.73762066  1
  O  O174  1  0.97475372  0.59884256  0.26388455  1
  O  O175  1  1.00121057  0.63896840  0.76235448  1
  O  O176  1  0.38504114  0.24122726  0.00104111  1
  O  O177  1  0.31347092  0.28685822  0.52692911  1
  O  O178  1  0.36105365  0.76777277  -0.00305105  1
  O  O179  1  0.36650803  0.76904421  0.51454889  1
  O  O180  1  0.88427593  0.26699948  0.01414887  1
  O  O181  1  0.87764318  0.25028754  0.50684055  1
  O  O182  1  0.87963396  0.76497014  0.01414069  1
  O  O183  1  0.91761713  0.74070559  0.51378493  1
  O  O184  1  0.14738461  0.25928918  0.50976240  1
  O  O185  1  0.12686470  0.24454735  0.98814483  1
  O  O186  1  0.12700728  0.76805523  0.46183369  1
  O  O187  1  0.11444719  0.73391662  1.00577020  1
  O  O188  1  0.64905190  0.21950653  0.51825153  1
  O  O189  1  0.64865489  0.26458116  0.99967628  1
  O  O190  1  0.63259772  0.78169321  0.55622307  1
  O  O191  1  0.63576385  0.75548261  1.01822200  1
  O  O192  1  0.49542068  0.23106816  0.12260471  1
  O  O193  1  0.49647711  0.22646248  0.60893240  1
  O  O194  1  0.49250843  0.78690287  0.14719172  1
  O  O195  1  0.46681464  0.74977011  0.63796718  1
  O  O196  1  1.04834931  0.22915086  0.13680207  1
  O  O197  1  0.99665778  0.23886341  0.61869120  1
  O  O198  1  1.02054050  0.71906982  0.16905519  1
  O  O199  1  0.99906020  0.75572889  0.63711891  1
  O  O200  1  0.01236078  0.26866080  0.37955641  1
  O  O201  1  0.00832666  0.26849431  0.88580166  1
  O  O202  1  0.01143577  0.76081337  0.35946548  1
  O  O203  1  -0.01189260  0.76610730  0.85522893  1
  O  O204  1  0.50361058  0.23277250  0.34880841  1
  O  O205  1  0.52295847  0.18151495  0.84785185  1
  O  O206  1  0.50487650  0.77458175  0.36158949  1
  O  O207  1  0.49883814  0.76134670  0.91469365  1
  O  O208  1  0.25878391  0.14413958  0.46802672  1
  O  O209  1  0.23270086  0.11647679  0.97871437  1
  O  O210  1  0.24462917  0.59343273  0.46993717  1
  O  O211  1  0.24768690  0.63908716  0.99360696  1
  O  O212  1  0.77398107  0.13522954  0.47317262  1
  O  O213  1  0.78043697  0.13319194  0.99402906  1
  O  O214  1  0.74057749  0.62030997  0.48844019  1
  O  O215  1  0.76165746  0.64917763  1.00612194  1
  O  O216  1  0.27790301  0.37815777  -0.02920531  1
  O  O217  1  0.23332401  0.41828479  0.51447643  1
  O  O218  1  0.23154294  0.86259919  -0.00067561  1
  O  O219  1  0.24545823  0.88740871  0.51183289  1
  O  O220  1  0.77322062  0.36651257  -0.00160946  1
  O  O221  1  0.76458679  0.35770665  0.49054741  1
  O  O222  1  0.76114436  0.85450770  -0.01146267  1
  O  O223  1  0.66234609  0.84714921  0.61668597  1
  O  O224  1  0.11969407  0.50129935  0.22655577  1
  O  O225  1  0.12593396  0.48734938  0.76312408  1
  O  O226  1  0.13350600  1.00874189  0.23555362  1
  O  O227  1  0.13748120  1.01483488  0.73488770  1
  O  O228  1  0.63165159  0.49575335  0.24403518  1
  O  O229  1  0.60896424  0.48969269  0.73390156  1
  O  O230  1  0.65199916  1.00848735  0.26097245  1
  O  O231  1  0.64161010  1.01605982  0.77288575  1
  O  O232  1  0.32862830  0.09441004  0.28702752  1
  O  O233  1  0.34810520  0.02542954  0.73797908  1
  O  O234  1  0.38260070  0.49999614  0.22522528  1
  O  O235  1  0.36457918  0.49054264  0.76280526  1
  O  O236  1  0.86776070  0.01864038  0.24830300  1
  O  O237  1  0.87067324  0.01922472  0.74565144  1
  O  O238  1  0.85472874  0.50118202  0.26557497  1
  O  O239  1  0.80061458  0.44214046  0.70321392  1
  O  O240  1  0.09886667  0.41800387  0.37974628  1
  O  O241  1  0.11547930  0.36879842  0.88211231  1
  O  O242  1  0.11183668  0.88828782  0.34023594  1
  O  O243  1  0.10650861  0.87400841  0.88907978  1
  O  O244  1  0.61440961  0.35819084  0.35438280  1
  O  O245  1  0.63352827  0.40411356  0.85648681  1
  O  O246  1  0.63180416  0.86777940  0.38291325  1
  O  O247  1  0.60577322  0.87503561  0.87327584  1
  O  O248  1  0.38651997  0.13163435  0.12017866  1
  O  O249  1  0.35506254  0.14152766  0.62243014  1
  O  O250  1  0.40346418  0.64418167  0.09125225  1
  O  O251  1  0.34958301  0.63892239  0.60814582  1
  O  O252  1  0.89927741  0.12784874  0.12564082  1
  O  O253  1  0.88791928  0.13181457  0.62614708  1
  O  O254  1  0.86874694  0.62608657  0.15146493  1
  O  O255  1  0.88369812  0.59191497  0.64210802  1
  O  O256  1  0.26837763  0.23909015  0.11949585  1
  O  O257  1  0.22501029  0.30554005  0.65222552  1
  O  O258  1  0.24466003  0.76131757  0.10776567  1
  O  O259  1  0.22875586  0.76898270  0.61497134  1
  O  O260  1  0.75560406  0.23566752  0.10664884  1
  O  O261  1  0.76314654  0.23086982  0.62534743  1
  O  O262  1  0.74635271  0.75614236  0.12939587  1
  O  O263  1  0.78934497  0.74064269  0.60906555  1
  O  O264  1  0.24087451  0.29614920  0.37822932  1
  O  O265  1  0.23112036  0.23737509  0.87137247  1
  O  O266  1  0.23786135  0.71709186  0.36510600  1
  O  O267  1  0.24904641  0.74286840  0.88354826  1
  O  O268  1  0.76105248  0.24698527  0.36274350  1
  O  O269  1  0.76708369  0.23559702  0.89272636  1
  O  O270  1  0.74411596  0.73424886  0.37230058  1
  O  O271  1  0.75900840  0.73160832  0.86780762  1
  O  O272  1  0.01202869  0.13238648  0.01127199  1
  O  O273  1  -0.00038458  0.12607485  0.50813244  1
  O  O274  1  0.00742935  0.61505179  -0.00431571  1
  O  O275  1  -0.05251992  0.57097628  0.60932090  1
  O  O276  1  0.49216324  0.10289751  0.00422289  1
  O  O277  1  0.53006892  0.11405392  0.50983772  1
  O  O278  1  0.46450449  0.64973970  0.04645871  1
  O  O279  1  0.52357575  0.66717503  0.48225827  1
  O  O280  1  0.51097474  0.34231638  0.48423241  1
  O  O281  1  0.50997382  0.38592228  0.98936977  1
  O  O282  1  0.47745794  0.87574855  0.47749864  1
  O  O283  1  0.49270798  0.88829348  0.99681775  1
  O  O284  1  0.97983157  0.37603879  0.48951463  1
  O  O285  1  0.98685686  0.38366340  0.99983949  1
  O  O286  1  1.01668304  0.87975167  0.46162879  1
  O  O287  1  0.98806862  0.87247163  0.98610611  1
  O  O288  1  0.50930422  0.47400242  0.37681088  1
  O  O289  1  0.52584012  0.55015418  0.91919746  1
  O  O290  1  0.54462081  0.99275390  0.39581617  1
  O  O291  1  0.50149196  0.99248342  0.89504876  1
  O  O292  1  0.96999589  0.50259697  0.38838472  1
  O  O293  1  1.00560296  0.48709528  0.89719138  1
  O  O294  1  0.98098239  0.99248215  0.36588149  1
  O  O295  1  1.00140921  0.99107920  0.86715598  1
  O  O296  1  0.01912202  0.01996675  0.12841509  1
  O  O297  1  0.01414144  0.01533722  0.62668961  1
  O  O298  1  0.01188512  0.49647146  0.11276816  1
  O  O299  1  -0.00719212  0.51714360  0.64914049  1
  O  O300  1  0.48542016  0.00083730  0.10856937  1
  O  O301  1  0.48506124  0.01900896  0.62402244  1
  O  O302  1  0.51730918  0.49564763  0.11030521  1
  O  O303  1  0.50186168  0.49755111  0.61615272  1
  O  O304  1  0.26011875  0.39650831  0.24321128  1
  O  O305  1  0.23265220  0.39453918  0.77728267  1
  O  O306  1  0.24396222  0.86631496  0.22766001  1
  O  O307  1  0.25105869  0.89654656  0.73861419  1
  O  O308  1  0.73634436  0.38276554  0.25467995  1
  O  O309  1  0.75750583  0.39357340  0.75293950  1
  O  O310  1  0.76583219  0.89743338  0.23352204  1
  O  O311  1  0.75305433  0.89832090  0.78049838  1
  O  O312  1  0.21478413  0.04749917  0.35595463  1
  O  O313  1  0.24901498  0.13210587  0.75408375  1
  O  O314  1  0.25623048  0.60685301  0.25457743  1
  O  O315  1  0.24017582  0.60925336  0.76649187  1
  O  O316  1  0.76760406  0.12851727  0.25730246  1
  O  O317  1  0.76250609  0.12114004  0.77382892  1
  O  O318  1  0.75065770  0.61199616  0.26466163  1
  O  O319  1  0.78907942  0.62214434  0.75892438  1
  O  O320  1  0.37285388  0.04518201  0.31626584  1
  O  O321  1  0.35541178  0.13218319  0.86924858  1
  O  O322  1  0.37316690  0.62940290  0.38292186  1
  O  O323  1  0.36095198  0.63224211  0.87682783  1
  O  O324  1  0.87837537  0.12797003  0.35795233  1
  O  O325  1  0.89148823  0.12952293  0.86268317  1
  O  O326  1  0.85388650  0.60800837  0.37913041  1
  O  O327  1  0.87428197  0.61632658  0.89357438  1
  O  O328  1  0.13293509  0.38775221  0.11133522  1
  O  O329  1  0.08687187  0.38093109  0.64630463  1
  O  O330  1  0.12138376  0.89245513  0.11743623  1
  O  O331  1  0.13403870  0.89916553  0.62309417  1
  O  O332  1  0.62046484  0.38069846  0.14289269  1
  O  O333  1  0.61503189  0.37902480  0.64573793  1
  O  O334  1  0.62171792  0.88678131  0.14567888  1
  O  O335  1  0.60716279  0.89060497  0.63789672  1
  O  O336  1  0.17894743  0.18035514  0.27139537  1
  O  O337  1  0.12177186  0.27313584  0.76901021  1
  O  O338  1  0.13248887  0.73698583  0.26199927  1
  O  O339  1  0.11207660  0.75017637  0.74724235  1
  O  O340  1  0.62478838  0.24635450  0.23159294  1
  O  O341  1  0.64407106  0.27406613  0.76078515  1
  O  O342  1  0.60405384  0.75607276  0.24747504  1
  O  O343  1  0.57922469  0.71533100  0.76093016  1
  O  O344  1  0.38860554  0.24251772  0.23858461  1
  O  O345  1  0.36806592  0.24185244  0.74829681  1
  O  O346  1  0.39493388  0.75856060  0.26670544  1
  O  O347  1  0.32853139  0.74451659  0.72326601  1
  O  O348  1  0.87861042  0.24043055  0.24041603  1
  O  O349  1  0.87190620  0.23747049  0.73524838  1
  O  O350  1  0.87401879  0.72650321  0.28267053  1
  O  O351  1  0.89048777  0.75881038  0.72623729  1
  O  O352  1  0.49582448  0.60207603  0.50170380  1
  O  O353  1  0.39662914  0.49996557  1.00618913  1
  O  O354  1  0.36268445  0.98862602  0.49535502  1
  O  O355  1  0.36513631  0.99905567  0.98889523  1
  O  O356  1  0.85501372  0.48240154  0.49406362  1
  O  O357  1  0.88594385  0.49317882  1.01624780  1
  O  O358  1  0.86596508  1.00067236  0.48285155  1
  O  O359  1  0.87401699  0.94396344  1.06718822  1
  O  O360  1  0.11744685  0.00945473  -0.01324951  1
  O  O361  1  0.12855410  0.00708911  0.50953429  1
  O  O362  1  0.11455662  0.50689969  0.01041328  1
  O  O363  1  0.09622495  0.55778316  0.53442098  1
  O  O364  1  0.64691499  -0.07464674  0.08968725  1
  O  O365  1  0.67199391  0.03212433  0.51438403  1
  O  O366  1  0.64055478  0.48865686  0.02106768  1
  O  O367  1  0.64905268  0.46996071  0.52699947  1
  O  O368  1  0.38913467  0.34754592  0.11999729  1
  O  O369  1  0.37699296  0.38208049  0.61842451  1
  O  O370  1  0.35591163  0.88746387  0.12241079  1
  O  O371  1  0.35254526  0.87496092  0.61564761  1
  O  O372  1  0.87904018  0.37765913  0.12973855  1
  O  O373  1  0.87851478  0.35287756  0.61219529  1
  O  O374  1  0.98163002  0.77215623  0.14027478  1
  O  O375  1  0.88001355  0.87713086  0.61083932  1
  O  O376  1  0.12462318  0.16518469  0.32066455  1
  O  O377  1  0.11383143  0.13910592  0.88012953  1
  O  O378  1  0.10550903  0.62269314  0.37928135  1
  O  O379  1  0.13860070  0.61645094  0.89633327  1
  O  O380  1  0.64685866  0.12910646  0.37912345  1
  O  O381  1  0.64903032  0.12089570  0.90257527  1
  O  O382  1  0.63181643  0.61681253  0.37068673  1
  O  O383  1  0.72659704  0.64100848  0.72679266  1
