# generated using pymatgen
data_VZnO4
_symmetry_space_group_name_H-M   'P 1'
_cell_length_a   16.86389494
_cell_length_b   16.87157371
_cell_length_c   16.91122941
_cell_angle_alpha   89.91317966
_cell_angle_beta   89.72277869
_cell_angle_gamma   89.89970502
_symmetry_Int_Tables_number   1
_chemical_formula_structural   VZnO4
_chemical_formula_sum   'V64 Zn64 O256'
_cell_volume   4811.52138565
_cell_formula_units_Z   64
loop_
 _symmetry_equiv_pos_site_id
 _symmetry_equiv_pos_as_xyz
  1  'x, y, z'
loop_
 _atom_site_type_symbol
 _atom_site_label
 _atom_site_symmetry_multiplicity
 _atom_site_fract_x
 _atom_site_fract_y
 _atom_site_fract_z
 _atom_site_occupancy
  V  V0  1  0.62141566  0.49856912  0.11535354  1
  V  V1  1  0.61183267  0.24603667  0.88431695  1
  V  V2  1  0.50074627  0.13749791  0.11925273  1
  V  V3  1  0.86564342  -0.01876415  0.87690140  1
  V  V4  1  0.14293211  -0.00966615  0.61722970  1
  V  V5  1  0.77414795  0.73949962  0.49810457  1
  V  V6  1  0.75565530  0.49134190  0.74019811  1
  V  V7  1  -0.03930287  0.87413764  0.35961809  1
  V  V8  1  0.00931029  0.25999985  0.74960348  1
  V  V9  1  0.63057028  0.37226648  0.25601662  1
  V  V10  1  0.12722320  0.60484834  0.49312022  1
  V  V11  1  0.39002946  0.88774354  0.00185362  1
  V  V12  1  0.11838706  0.75333483  0.86174623  1
  V  V13  1  0.61876180  0.75456547  0.86752481  1
  V  V14  1  0.73476508  -0.00092948  0.73728012  1
  V  V15  1  0.12942535  0.23784751  0.89026472  1
  V  V16  1  -0.02705521  0.74404497  0.74119387  1
  V  V17  1  -0.00762024  0.61809856  0.13394121  1
  V  V18  1  0.76270005  0.75820647  -0.00440249  1
  V  V19  1  0.49277911  0.26047153  0.25936001  1
  V  V20  1  0.87048328  0.13012788  0.75241259  1
  V  V21  1  0.12146989  0.86473060  0.25137759  1
  V  V22  1  0.37334359  0.64091330  0.26174214  1
  V  V23  1  0.62433656  0.10491065  0.49944624  1
  V  V24  1  0.14445580  0.03006869  0.12237153  1
  V  V25  1  0.85375860  0.25233746  0.62596060  1
  V  V26  1  0.52999581  0.62470434  0.63448929  1
  V  V27  1  0.37467107  0.11037182  0.74962713  1
  V  V28  1  0.86314549  0.12197116  0.26705439  1
  V  V29  1  0.25290306  0.63468741  0.88364723  1
  V  V30  1  0.87652704  0.75433259  0.13247639  1
  V  V31  1  0.61575379  0.62179122  -0.00154528  1
  V  V32  1  0.40551343  0.74779801  0.12343563  1
  V  V33  1  0.64173088  0.61930755  0.46708315  1
  V  V34  1  0.36617648  0.12255369  0.26110537  1
  V  V35  1  0.25058875  0.49563076  0.74525760  1
  V  V36  1  0.00082450  0.60124199  0.62964991  1
  V  V37  1  0.73609432  0.13089698  0.88599040  1
  V  V38  1  0.49565642  0.10608491  0.61533235  1
  V  V39  1  0.61558928  0.37536655  0.74053619  1
  V  V40  1  0.87889644  0.23777336  0.11077010  1
  V  V41  1  0.25216424  0.38399978  0.12975792  1
  V  V42  1  0.37839555  0.49748655  0.88936845  1
  V  V43  1  0.76653876  0.50513195  0.25155795  1
  V  V44  1  0.86901319  0.91231390  0.53147461  1
  V  V45  1  0.49474902  0.37732391  0.89220297  1
  V  V46  1  0.38283127  0.26917664  0.62655786  1
  V  V47  1  0.26872025  0.86187176  0.64228048  1
  V  V48  1  0.24579089  0.24145171  0.50822070  1
  V  V49  1  0.48656929  0.50129622  0.49268660  1
  V  V50  1  0.87993411  0.38644951  0.50423210  1
  V  V51  1  0.76690776  0.61039039  0.87705017  1
  V  V52  1  0.12465819  0.62215049  0.00623123  1
  V  V53  1  0.63555460  0.24315960  0.38368914  1
  V  V54  1  0.61803021  -0.00231833  0.11439285  1
  V  V55  1  -0.00051420  0.25435484  0.26280859  1
  V  V56  1  0.60837645  0.87944486  0.74457583  1
  V  V57  1  0.75940119  0.36822371  0.10352305  1
  V  V58  1  -0.00676430  -0.00626102  0.01303429  1
  V  V59  1  0.38571023  0.63722491  0.74687442  1
  V  V60  1  -0.01144606  0.49058194  -0.01300314  1
  V  V61  1  0.24254259  0.84285252  0.11986465  1
  V  V62  1  0.73856673  -0.00709798  0.25192699  1
  V  V63  1  0.27057834  0.75252223  0.48306190  1
  Zn  Zn64  1  0.18172259  0.19647396  0.19279433  1
  Zn  Zn65  1  0.19348077  0.18264058  0.69297194  1
  Zn  Zn66  1  0.18922406  0.67762933  0.19522903  1
  Zn  Zn67  1  0.19463996  0.66426042  0.68573721  1
  Zn  Zn68  1  0.69091389  0.18535034  0.18035698  1
  Zn  Zn69  1  0.66807139  0.18685178  0.69314183  1
  Zn  Zn70  1  0.69075232  0.68489379  0.18195904  1
  Zn  Zn71  1  0.72296218  0.68059111  0.68947335  1
  Zn  Zn72  1  0.28646566  0.28045235  0.31846355  1
  Zn  Zn73  1  0.31477344  0.30901188  0.80479759  1
  Zn  Zn74  1  0.31489803  0.82264867  0.29788745  1
  Zn  Zn75  1  0.32439880  0.81762388  0.82521029  1
  Zn  Zn76  1  0.81076889  0.31569731  0.30090325  1
  Zn  Zn77  1  0.80361075  0.31479289  0.81933193  1
  Zn  Zn78  1  0.77391971  0.80195714  0.29283358  1
  Zn  Zn79  1  0.79457193  0.80761826  0.80213005  1
  Zn  Zn80  1  0.19235170  0.41131678  0.43898856  1
  Zn  Zn81  1  0.17896843  0.43899503  0.92512739  1
  Zn  Zn82  1  0.13590159  0.87631160  0.46496161  1
  Zn  Zn83  1  0.16923615  0.91716851  0.96149501  1
  Zn  Zn84  1  0.70113391  0.43796153  0.44011574  1
  Zn  Zn85  1  0.68556441  0.43343491  0.93022560  1
  Zn  Zn86  1  0.70166006  0.92949362  0.44608449  1
  Zn  Zn87  1  0.67726991  0.94207346  0.93703466  1
  Zn  Zn88  1  0.32502487  0.09185511  0.05458158  1
  Zn  Zn89  1  0.28755549  0.07998480  0.57936792  1
  Zn  Zn90  1  0.32126375  0.57536654  0.06425617  1
  Zn  Zn91  1  0.31262073  0.58112365  0.56157994  1
  Zn  Zn92  1  0.80523161  0.05482408  0.05967400  1
  Zn  Zn93  1  0.80295483  0.08346806  0.56179548  1
  Zn  Zn94  1  0.81163249  0.56137879  0.06282639  1
  Zn  Zn95  1  0.81655724  0.56211930  0.56074028  1
  Zn  Zn96  1  0.44475245  0.43489729  0.18136986  1
  Zn  Zn97  1  0.44209872  0.45271757  0.69201081  1
  Zn  Zn98  1  0.40348984  0.97182847  0.15259947  1
  Zn  Zn99  1  0.43840056  0.92877115  0.67958786  1
  Zn  Zn100  1  0.94389003  0.43015493  0.17498792  1
  Zn  Zn101  1  0.93350595  0.43081249  0.68962540  1
  Zn  Zn102  1  0.92319001  0.93275345  0.18994806  1
  Zn  Zn103  1  0.95048134  0.94227833  0.72350404  1
  Zn  Zn104  1  0.03343626  0.04032266  0.27988523  1
  Zn  Zn105  1  0.04985191  0.06887917  0.84024925  1
  Zn  Zn106  1  0.05260792  0.69407369  0.31803297  1
  Zn  Zn107  1  0.06125790  0.55975993  0.81034216  1
  Zn  Zn108  1  0.55996258  0.06894285  0.30538443  1
  Zn  Zn109  1  0.54093896  0.06486742  0.81466775  1
  Zn  Zn110  1  0.56620572  0.55168830  0.30928080  1
  Zn  Zn111  1  0.56744066  0.55733154  0.81592726  1
  Zn  Zn112  1  0.43855999  0.19768486  0.44322149  1
  Zn  Zn113  1  0.42042326  0.19047018  0.93391010  1
  Zn  Zn114  1  0.45682024  0.69018010  0.44998597  1
  Zn  Zn115  1  0.43678278  0.69429783  0.94049114  1
  Zn  Zn116  1  0.89170066  0.22521768  0.41971548  1
  Zn  Zn117  1  0.94092859  0.17606061  0.92596660  1
  Zn  Zn118  1  0.98668780  0.74229235  0.49320739  1
  Zn  Zn119  1  0.94511795  0.68262290  0.93723202  1
  Zn  Zn120  1  0.02203238  0.28598161  0.03625342  1
  Zn  Zn121  1  0.04064166  0.28028076  0.55854716  1
  Zn  Zn122  1  0.05282833  0.80574267  0.05292002  1
  Zn  Zn123  1  0.10731977  0.78446253  0.61666071  1
  Zn  Zn124  1  0.56426410  0.30979649  0.06741413  1
  Zn  Zn125  1  0.55614354  0.31668124  0.55881760  1
  Zn  Zn126  1  0.57462987  0.81496846  0.05870119  1
  Zn  Zn127  1  0.61744156  0.77482744  0.59299626  1
  O  O128  1  0.12068132  0.12702436  0.12892901  1
  O  O129  1  0.17184744  0.09519559  0.61908549  1
  O  O130  1  0.12059422  0.63203059  0.11087559  1
  O  O131  1  0.12036995  0.62152379  0.61023973  1
  O  O132  1  0.60768086  0.13081847  0.12619792  1
  O  O133  1  0.60819529  0.12830850  0.61058403  1
  O  O134  1  0.63375970  0.61018924  0.11165751  1
  O  O135  1  0.62875107  0.61785156  0.64298832  1
  O  O136  1  0.35340174  0.43172747  0.34778747  1
  O  O137  1  0.38436769  0.38520361  0.87385568  1
  O  O138  1  0.40181860  0.88515609  0.35781320  1
  O  O139  1  0.36678966  0.88387611  0.90381231  1
  O  O140  1  0.86134862  0.34283612  0.40119472  1
  O  O141  1  0.87327586  0.35914458  0.89394634  1
  O  O142  1  0.86739058  0.87422400  0.32784628  1
  O  O143  1  0.85045004  0.88424103  0.87053001  1
  O  O144  1  0.30449331  -0.01327864  0.41724626  1
  O  O145  1  0.23558751  -0.00270108  0.87220602  1
  O  O146  1  0.29814656  0.47616316  0.36755708  1
  O  O147  1  0.26438650  0.50564820  0.87283237  1
  O  O148  1  0.73648967  -0.01507217  0.35290804  1
  O  O149  1  0.74927035  0.01082108  0.87280601  1
  O  O150  1  0.75360347  0.49161292  0.35146408  1
  O  O151  1  0.75267784  0.50770037  0.87723834  1
  O  O152  1  0.27025286  0.48888730  0.13686082  1
  O  O153  1  0.26174756  0.52172233  0.64607750  1
  O  O154  1  0.24484187  1.02828857  0.11645518  1
  O  O155  1  0.25427571  0.97184716  0.61099059  1
  O  O156  1  0.74619676  0.48411548  0.12499305  1
  O  O157  1  0.75302485  0.50535908  0.64110280  1
  O  O158  1  0.72626284  1.01293462  0.12709525  1
  O  O159  1  0.73980288  1.01114376  0.63976114  1
  O  O160  1  -0.01980513  0.35577076  0.25310943  1
  O  O161  1  -0.00592934  0.35887487  0.75497510  1
  O  O162  1  0.01267615  0.87134207  0.24748222  1
  O  O163  1  -0.00239781  0.84132989  0.75101038  1
  O  O164  1  0.51978989  0.37190536  0.24214696  1
  O  O165  1  0.51096281  0.38759456  0.76312621  1
  O  O166  1  0.45376869  0.93030119  0.31784088  1
  O  O167  1  0.50870389  0.88278226  0.76038862  1
  O  O168  1  0.48766452  0.14589278  0.25013799  1
  O  O169  1  0.50026292  0.12045666  0.72179358  1
  O  O170  1  0.48034563  0.59232986  0.23476244  1
  O  O171  1  0.49686904  0.61631174  0.74315771  1
  O  O172  1  0.97356349  0.12974052  0.24788406  1
  O  O173  1  0.97223170  0.13144073  0.76392220  1
  O  O174  1  1.01318888  0.62688617  0.23194636  1
  O  O175  1  1.00920531  0.63021714  0.73756817  1
  O  O176  1  0.32212937  0.18117868  -0.01176264  1
  O  O177  1  0.36318660  0.25699705  0.51145428  1
  O  O178  1  0.38497154  0.76268942  0.01709761  1
  O  O179  1  0.36850466  0.74072925  0.50268684  1
  O  O180  1  0.90491291  0.24611365  0.00926161  1
  O  O181  1  0.86940877  0.22322049  0.52956035  1
  O  O182  1  0.86582207  0.74974810  -0.01044276  1
  O  O183  1  0.87253953  0.73116530  0.51511771  1
  O  O184  1  0.14348563  0.25968001  0.52188518  1
  O  O185  1  0.11077368  0.23269238  0.98946240  1
  O  O186  1  0.09733226  0.77507633  0.50306973  1
  O  O187  1  0.11183220  0.73077691  0.97982235  1
  O  O188  1  0.62339371  0.26369227  0.48182909  1
  O  O189  1  0.61887120  0.25203513  0.98375418  1
  O  O190  1  0.64083053  0.72415568  0.49380904  1
  O  O191  1  0.63611313  0.73720710  0.99430378  1
  O  O192  1  0.50357488  0.24998433  0.14483709  1
  O  O193  1  0.48432398  0.24245518  0.61132974  1
  O  O194  1  0.50479280  0.75071866  0.12874528  1
  O  O195  1  0.51379622  0.72469166  0.61836105  1
  O  O196  1  0.98083449  0.25011231  0.13994670  1
  O  O197  1  0.97645979  0.24290317  0.64560709  1
  O  O198  1  0.98622369  0.73368863  0.11268070  1
  O  O199  1  1.00092462  0.73712985  0.63738132  1
  O  O200  1  -0.00962671  0.24147135  0.36449595  1
  O  O201  1  0.01550522  0.24261896  0.86046209  1
  O  O202  1  -0.00819294  0.77125609  0.37374280  1
  O  O203  1  0.01199988  0.73124904  0.85532756  1
  O  O204  1  0.51717227  0.25562414  0.36315182  1
  O  O205  1  0.49945517  0.26369445  0.87928243  1
  O  O206  1  0.51650717  0.77650436  0.38204079  1
  O  O207  1  0.52010158  0.74068585  0.87600677  1
  O  O208  1  0.25332783  0.14496950  0.48269908  1
  O  O209  1  0.26628900  0.05646427  0.90156509  1
  O  O210  1  0.23207482  0.64782944  0.50427056  1
  O  O211  1  0.24115473  0.61995455  0.99276479  1
  O  O212  1  0.72124159  0.13348841  0.50341907  1
  O  O213  1  0.74245809  0.12191692  0.98395928  1
  O  O214  1  0.75134944  0.62649912  0.49242611  1
  O  O215  1  0.74589239  0.62830509  0.98807668  1
  O  O216  1  0.24229725  0.39471760  0.02633606  1
  O  O217  1  0.18278560  0.40040685  0.59736197  1
  O  O218  1  0.25848716  0.87914879  0.02218368  1
  O  O219  1  0.24499992  0.85157928  0.50958564  1
  O  O220  1  0.74908798  0.37316099  0.00469914  1
  O  O221  1  0.77085370  0.36449146  0.49192583  1
  O  O222  1  0.74088210  0.85578958  -0.00679557  1
  O  O223  1  0.77350641  0.86667608  0.50988827  1
  O  O224  1  0.11820280  0.49348163  0.29707870  1
  O  O225  1  0.15039010  0.50730539  0.76226931  1
  O  O226  1  0.11579499  0.98613617  0.21729748  1
  O  O227  1  0.10025067  1.01602954  0.73578160  1
  O  O228  1  0.63262290  0.48838075  0.23403456  1
  O  O229  1  0.63569503  0.48471527  0.76030494  1
  O  O230  1  0.63143798  1.01170783  0.23868511  1
  O  O231  1  0.62619477  0.99101661  0.76062839  1
  O  O232  1  0.35499558  0.02267868  0.24870601  1
  O  O233  1  0.37975120  0.00963986  0.73858268  1
  O  O234  1  0.41703216  0.53471876  0.23972692  1
  O  O235  1  0.37402950  0.51718115  0.76635506  1
  O  O236  1  0.85809062  0.01500237  0.23825504  1
  O  O237  1  0.85012744  0.01271223  0.75948853  1
  O  O238  1  0.86526299  0.48873886  0.23689080  1
  O  O239  1  0.85546114  0.48014861  0.75696679  1
  O  O240  1  0.11494091  0.42729530  0.32964615  1
  O  O241  1  0.13663312  0.35080690  0.87173551  1
  O  O242  1  0.13739578  0.88571440  0.34769042  1
  O  O243  1  0.13212904  0.85262727  0.87818139  1
  O  O244  1  0.63398033  0.37213693  0.35800348  1
  O  O245  1  0.60940033  0.36697269  0.87598356  1
  O  O246  1  0.61652845  0.86228627  0.37972891  1
  O  O247  1  0.62682564  0.85871779  0.87428471  1
  O  O248  1  0.38825334  0.13581505  0.14724438  1
  O  O249  1  0.38347489  0.12604597  0.62560749  1
  O  O250  1  0.38117945  0.64462180  0.12812689  1
  O  O251  1  0.37384612  0.63975588  0.64776373  1
  O  O252  1  0.86238857  0.13761711  0.11750403  1
  O  O253  1  0.86160761  0.12940885  0.64855839  1
  O  O254  1  0.88745830  0.62868135  0.12141313  1
  O  O255  1  0.89969729  0.61166186  0.62170707  1
  O  O256  1  0.23905022  0.28187900  0.11610226  1
  O  O257  1  0.26445410  0.24873648  0.61622667  1
  O  O258  1  0.25348451  0.74348332  0.11963048  1
  O  O259  1  0.23453648  0.75837988  0.62424737  1
  O  O260  1  0.75916907  0.25976561  0.12029549  1
  O  O261  1  0.75440144  0.24711501  0.63935012  1
  O  O262  1  0.76588321  0.73616617  0.10261074  1
  O  O263  1  0.73523585  0.75198870  0.60711099  1
  O  O264  1  0.24579356  0.31498196  0.41818096  1
  O  O265  1  0.23448520  0.26500698  0.87425168  1
  O  O266  1  0.26397730  0.76339865  0.38254612  1
  O  O267  1  0.24923884  0.73716734  0.87960458  1
  O  O268  1  0.73375658  0.24624751  0.36387982  1
  O  O269  1  0.73075339  0.23819424  0.87319467  1
  O  O270  1  0.76598307  0.75927404  0.39966666  1
  O  O271  1  0.74164169  0.73444574  0.88062960  1
  O  O272  1  0.00671292  0.08336460  -0.04539066  1
  O  O273  1  0.07732095  0.11346516  0.46060376  1
  O  O274  1  0.00999271  0.61304821  0.00518215  1
  O  O275  1  0.01837229  0.61955397  0.51620551  1
  O  O276  1  0.48576615  0.14661534  0.02124381  1
  O  O277  1  0.50840793  0.12742287  0.50414351  1
  O  O278  1  0.51706559  0.62723442  -0.00097547  1
  O  O279  1  0.52817864  0.61821831  0.50682000  1
  O  O280  1  0.50087094  0.40254301  0.50950554  1
  O  O281  1  0.49842229  0.37341838  0.99166338  1
  O  O282  1  0.56288488  0.82481487  0.42271148  1
  O  O283  1  0.49014459  0.87577482  1.00714033  1
  O  O284  1  0.97889309  0.35568338  0.50090208  1
  O  O285  1  1.01333141  0.39453156  1.01060953  1
  O  O286  1  0.94715134  0.87288388  0.47320400  1
  O  O287  1  1.00673739  0.89432483  0.99254071  1
  O  O288  1  0.50282290  0.50720465  0.39115485  1
  O  O289  1  0.49001665  0.49170293  0.87957382  1
  O  O290  1  0.49190453  0.98159207  0.36389242  1
  O  O291  1  0.51313120  1.00094175  0.90231605  1
  O  O292  1  0.95920815  0.52037564  0.36796908  1
  O  O293  1  1.00145541  0.50209298  0.88613154  1
  O  O294  1  0.99709936  0.97158338  0.36247038  1
  O  O295  1  0.96588007  0.98421941  0.84251380  1
  O  O296  1  -0.02005023  0.00707589  0.11158892  1
  O  O297  1  0.04187331  0.01036199  0.67726489  1
  O  O298  1  -0.00008250  0.51352488  0.11640176  1
  O  O299  1  0.01014658  0.49998837  0.64037322  1
  O  O300  1  0.50663692  0.02522467  0.13778025  1
  O  O301  1  0.49174684  0.00635750  0.60851194  1
  O  O302  1  0.52259266  0.48769565  0.11548789  1
  O  O303  1  0.49358669  0.52273545  0.61345077  1
  O  O304  1  0.26184138  0.36989739  0.23342151  1
  O  O305  1  0.26537696  0.39613979  0.74880870  1
  O  O306  1  0.23992127  0.87478492  0.22552069  1
  O  O307  1  0.26783919  0.86831159  0.74328645  1
  O  O308  1  0.74044375  0.37898451  0.23439011  1
  O  O309  1  0.73339980  0.38253842  0.75865817  1
  O  O310  1  0.75012228  0.89637810  0.22367695  1
  O  O311  1  0.73563352  0.89270954  0.75077226  1
  O  O312  1  0.27138741  0.17695081  0.25955114  1
  O  O313  1  0.27400675  0.12743762  0.75368657  1
  O  O314  1  0.27268712  0.62436302  0.25301263  1
  O  O315  1  0.26743829  0.62183248  0.76894295  1
  O  O316  1  0.75620007  0.11969226  0.24665630  1
  O  O317  1  0.74077002  0.11579575  0.76079032  1
  O  O318  1  0.75266194  0.60354621  0.23448519  1
  O  O319  1  0.74546226  0.60636752  0.76804113  1
  O  O320  1  0.38492857  0.13525505  0.36092871  1
  O  O321  1  0.41193402  0.11972694  0.84606830  1
  O  O322  1  0.39591669  0.64999077  0.35850073  1
  O  O323  1  0.36921083  0.61792240  0.88202987  1
  O  O324  1  0.86146332  0.12627226  0.36663077  1
  O  O325  1  0.85056381  0.12720277  0.86694545  1
  O  O326  1  0.92366185  0.58319552  0.36985138  1
  O  O327  1  0.86497757  0.62340458  0.87658360  1
  O  O328  1  0.15215837  0.40329336  0.14683514  1
  O  O329  1  0.12149814  0.38753060  0.63433101  1
  O  O330  1  0.13539068  0.85648736  0.12344437  1
  O  O331  1  0.14449225  0.88780045  0.65085822  1
  O  O332  1  0.63854687  0.38034228  0.12414413  1
  O  O333  1  0.61694571  0.36850706  0.64152623  1
  O  O334  1  0.60955521  0.89788292  0.12735693  1
  O  O335  1  0.61115168  0.87520459  0.64423053  1
  O  O336  1  0.10137404  0.24593449  0.25356803  1
  O  O337  1  0.10936327  0.24974792  0.73148117  1
  O  O338  1  0.12757447  0.75810476  0.25180095  1
  O  O339  1  0.13628509  0.73856602  0.76250058  1
  O  O340  1  0.62359364  0.26155869  0.25382398  1
  O  O341  1  0.62162599  0.26661327  0.76588059  1
  O  O342  1  0.67115031  0.76651631  0.25392889  1
  O  O343  1  0.63624914  0.76299775  0.76163334  1
  O  O344  1  0.39446204  0.27847686  0.27132462  1
  O  O345  1  0.37468505  0.24145341  0.73136558  1
  O  O346  1  0.38227773  0.74825559  0.23556714  1
  O  O347  1  0.38706278  0.73342772  0.77702267  1
  O  O348  1  0.87123236  0.23521685  0.24087577  1
  O  O349  1  0.86779473  0.24220360  0.74931535  1
  O  O350  1  0.86172829  0.74450937  0.22990539  1
  O  O351  1  0.87151767  0.74163935  0.74794444  1
  O  O352  1  0.38556769  0.52334216  0.49736505  1
  O  O353  1  0.37365202  0.50540888  0.98922800  1
  O  O354  1  0.35457014  1.00393625  0.46616072  1
  O  O355  1  0.37795110  0.98787821  1.03406879  1
  O  O356  1  0.88133542  0.48576377  0.50309448  1
  O  O357  1  0.88843679  0.50057292  1.00159274  1
  O  O358  1  0.86107780  1.00792538  0.50120499  1
  O  O359  1  0.87757592  0.99970711  0.98341279  1
  O  O360  1  0.11401205  -0.00287054  0.02425914  1
  O  O361  1  0.11019732  -0.02465777  0.52267963  1
  O  O362  1  0.12113741  0.51694787  -0.01003125  1
  O  O363  1  0.15005843  0.50437882  0.48308785  1
  O  O364  1  0.62021492  0.00612798  0.01190562  1
  O  O365  1  0.62675864  0.00505681  0.49338665  1
  O  O366  1  0.63295580  0.50958823  0.00521331  1
  O  O367  1  0.63527061  0.51619791  0.49271303  1
  O  O368  1  0.35965232  0.37729867  0.12505154  1
  O  O369  1  0.38560382  0.36881145  0.63408536  1
  O  O370  1  0.36565023  0.86002290  0.12749189  1
  O  O371  1  0.36872161  0.86044613  0.62211315  1
  O  O372  1  0.86371991  0.36219608  0.11899611  1
  O  O373  1  0.86962813  0.36089974  0.61547599  1
  O  O374  1  0.88370337  0.85452189  0.11811866  1
  O  O375  1  0.89501343  0.90899963  0.62820069  1
  O  O376  1  0.10663608  0.11723547  0.39458302  1
  O  O377  1  0.13647012  0.14093638  0.85444017  1
  O  O378  1  0.11297147  0.63478398  0.39725241  1
  O  O379  1  0.14304963  0.62882522  0.87919006  1
  O  O380  1  0.61479380  0.13464500  0.38743901  1
  O  O381  1  0.62172106  0.13811822  0.86818235  1
  O  O382  1  0.63157349  0.62606675  0.36765759  1
  O  O383  1  0.63157395  0.62779158  0.88627301  1
