# generated using pymatgen
data_VZnO4
_symmetry_space_group_name_H-M   'P 1'
_cell_length_a   17.05228989
_cell_length_b   16.99790200
_cell_length_c   17.01868775
_cell_angle_alpha   89.41585664
_cell_angle_beta   90.40263208
_cell_angle_gamma   90.73232250
_symmetry_Int_Tables_number   1
_chemical_formula_structural   VZnO4
_chemical_formula_sum   'V64 Zn64 O256'
_cell_volume   4932.14367880
_cell_formula_units_Z   64
loop_
 _symmetry_equiv_pos_site_id
 _symmetry_equiv_pos_as_xyz
  1  'x, y, z'
loop_
 _atom_site_type_symbol
 _atom_site_label
 _atom_site_symmetry_multiplicity
 _atom_site_fract_x
 _atom_site_fract_y
 _atom_site_fract_z
 _atom_site_occupancy
  V  V0  1  0.63077418  0.86807057  0.24225374  1
  V  V1  1  0.26631268  0.14269561  0.86707778  1
  V  V2  1  0.63063693  0.24996764  0.39674497  1
  V  V3  1  -0.00968026  0.11704122  0.64193717  1
  V  V4  1  0.14108578  0.63520526  0.49847527  1
  V  V5  1  0.40811434  0.49845953  0.87843040  1
  V  V6  1  0.01094843  0.27346641  0.75624272  1
  V  V7  1  -0.00443653  0.77261986  0.26080057  1
  V  V8  1  0.74633605  0.00453055  0.24532458  1
  V  V9  1  -0.01212467  0.26667377  0.21896695  1
  V  V10  1  0.63379026  0.00222029  0.60230462  1
  V  V11  1  0.75351499  0.74710687  -0.01319017  1
  V  V12  1  0.77078532  0.26060364  -0.01645006  1
  V  V13  1  0.87029749  -0.01116698  0.40172314  1
  V  V14  1  0.86715297  0.62278546  0.76881019  1
  V  V15  1  0.63342953  0.88529639  0.74270855  1
  V  V16  1  0.02557397  0.62730479  0.13018547  1
  V  V17  1  -0.00828547  0.74836775  0.75400741  1
  V  V18  1  0.87636444  0.50165831  0.39550823  1
  V  V19  1  0.12877448  0.11819344  0.50065056  1
  V  V20  1  0.23921721  0.74490561  -0.00829869  1
  V  V21  1  0.49521374  0.87574658  0.86336357  1
  V  V22  1  0.37520744  0.86093903  0.00559318  1
  V  V23  1  0.00010504  0.87562412  0.88086308  1
  V  V24  1  0.50087784  0.88559852  0.37693411  1
  V  V25  1  0.73222228  0.61549077  0.37477649  1
  V  V26  1  0.62531558  0.74275781  0.37721547  1
  V  V27  1  0.14369367  0.77007674  0.39048728  1
  V  V28  1  0.76142023  0.37387796  0.10487472  1
  V  V29  1  0.50656767  0.12300902  0.63535437  1
  V  V30  1  -0.01509964  0.62965874  0.61693091  1
  V  V31  1  0.12643350  0.12136627  0.00199826  1
  V  V32  1  0.75361721  0.13103937  0.39342859  1
  V  V33  1  0.49171863  0.74057110  0.23158878  1
  V  V34  1  0.14310246  0.86161702  0.75477046  1
  V  V35  1  0.78706257  0.77803319  0.54994495  1
  V  V36  1  0.37282974  0.58917663  0.26610251  1
  V  V37  1  0.49744863  0.61064595  0.61733528  1
  V  V38  1  0.86531763  0.62617203  0.23907601  1
  V  V39  1  0.09426357  0.25514568  0.38413899  1
  V  V40  1  0.49061617  -0.00304269  -0.00555129  1
  V  V41  1  0.61721097  0.13490145  -0.00485295  1
  V  V42  1  0.62269095  0.00153410  0.11585616  1
  V  V43  1  0.12952692  0.49208858  0.60838967  1
  V  V44  1  0.22866105  0.41095420  0.11985692  1
  V  V45  1  0.87574117  0.12464394  0.21380776  1
  V  V46  1  0.20881493  0.48231025  0.30355543  1
  V  V47  1  0.75651300  0.48035259  0.75212786  1
  V  V48  1  0.61238095  0.50252685  0.10857758  1
  V  V49  1  0.62162661  0.74614403  0.86220240  1
  V  V50  1  0.22272376  0.87470471  0.15091166  1
  V  V51  1  0.13521425  0.00140658  0.63249719  1
  V  V52  1  0.36930370  0.63560864  0.76122735  1
  V  V53  1  0.26618183  0.00160192  0.76142681  1
  V  V54  1  0.26667115  0.24308325  0.03034015  1
  V  V55  1  0.61990003  0.35711527  0.23376328  1
  V  V56  1  0.74838423  0.49873939  0.23230255  1
  V  V57  1  0.87113411  0.75125445  0.11939340  1
  V  V58  1  0.76257784  0.11238233  0.87977065  1
  V  V59  1  0.61122702  0.62657320  -0.00459422  1
  V  V60  1  0.37728199  0.75407423  0.59800888  1
  V  V61  1  0.34514355  0.28811777  0.64074968  1
  V  V62  1  0.75122457  0.87408284  0.11313033  1
  V  V63  1  0.86930324  0.27329880  0.63671333  1
  Zn  Zn64  1  0.16091418  0.22248143  0.17727656  1
  Zn  Zn65  1  0.17836729  0.18870962  0.70152980  1
  Zn  Zn66  1  0.23257080  0.67033264  0.14470350  1
  Zn  Zn67  1  0.20389086  0.68555663  0.67441574  1
  Zn  Zn68  1  0.69585779  0.18709651  0.17075424  1
  Zn  Zn69  1  0.80037437  0.05806400  0.70345956  1
  Zn  Zn70  1  0.68318256  0.68775208  0.17807319  1
  Zn  Zn71  1  0.67907950  0.67342331  0.68920158  1
  Zn  Zn72  1  0.26457863  0.33297372  0.39355288  1
  Zn  Zn73  1  0.37232127  0.30309716  0.82989247  1
  Zn  Zn74  1  0.32070534  0.81773110  0.31378163  1
  Zn  Zn75  1  0.31157808  0.80675519  0.81746724  1
  Zn  Zn76  1  0.82208209  0.31115314  0.30148847  1
  Zn  Zn77  1  0.77442870  0.26150172  0.76971270  1
  Zn  Zn78  1  0.83655835  0.78375157  0.35536107  1
  Zn  Zn79  1  0.83534346  0.85728923  0.77292052  1
  Zn  Zn80  1  0.08439469  0.45803054  0.41569289  1
  Zn  Zn81  1  0.37737811  0.38661055  1.01157707  1
  Zn  Zn82  1  0.04840925  0.93579508  0.45304428  1
  Zn  Zn83  1  0.18731970  0.93524168  0.93033841  1
  Zn  Zn84  1  0.72614518  0.40652087  0.40481284  1
  Zn  Zn85  1  0.66827285  0.44589978  0.91248831  1
  Zn  Zn86  1  0.69592366  0.92586315  0.43148592  1
  Zn  Zn87  1  0.68041459  0.93372785  0.93223848  1
  Zn  Zn88  1  0.26758918  0.03487608  0.04250955  1
  Zn  Zn89  1  0.29811593  0.11414176  0.59903246  1
  Zn  Zn90  1  0.33181258  0.56243671  0.06577352  1
  Zn  Zn91  1  0.31250051  0.57060395  0.55717121  1
  Zn  Zn92  1  0.80428538  0.06369318  0.04803154  1
  Zn  Zn93  1  0.83169670  -0.06669985  0.60045176  1
  Zn  Zn94  1  0.80357222  0.56933693  0.05091693  1
  Zn  Zn95  1  0.79057919  0.58393338  0.57585261  1
  Zn  Zn96  1  0.43430557  0.42449107  0.17247341  1
  Zn  Zn97  1  0.38030007  0.46274002  0.68042989  1
  Zn  Zn98  1  0.44978970  0.92493409  0.18089041  1
  Zn  Zn99  1  0.44320927  0.94191827  0.67556602  1
  Zn  Zn100  1  0.93966228  0.44776017  0.17435099  1
  Zn  Zn101  1  0.93898576  0.44990480  0.68569492  1
  Zn  Zn102  1  0.92650220  0.93850687  0.18419365  1
  Zn  Zn103  1  0.96788762  0.96458118  0.74016432  1
  Zn  Zn104  1  0.01866239  0.09438275  0.33500488  1
  Zn  Zn105  1  0.08045024  0.06784730  0.81994670  1
  Zn  Zn106  1  0.04350074  0.59579631  0.32452626  1
  Zn  Zn107  1  0.06957983  0.55537937  0.77737570  1
  Zn  Zn108  1  0.56158071  0.06764608  0.43461210  1
  Zn  Zn109  1  0.57271390  0.06260255  0.81439224  1
  Zn  Zn110  1  0.55674214  0.55717895  0.29305846  1
  Zn  Zn111  1  0.56724801  0.55887799  0.77974774  1
  Zn  Zn112  1  0.48515537  0.23491997  0.50862799  1
  Zn  Zn113  1  0.43449447  0.18053515  0.94215276  1
  Zn  Zn114  1  0.45309952  0.68433918  0.43513657  1
  Zn  Zn115  1  0.43752666  0.68892774  0.93142619  1
  Zn  Zn116  1  0.93016397  0.16394079  0.46073442  1
  Zn  Zn117  1  0.94657038  0.19004957  0.92953649  1
  Zn  Zn118  1  0.96058511  0.75843217  0.47205971  1
  Zn  Zn119  1  0.98615276  0.65887181  0.92452453  1
  Zn  Zn120  1  0.08449829  0.29965721  0.04832213  1
  Zn  Zn121  1  0.04616409  0.30106115  0.55992003  1
  Zn  Zn122  1  0.06343786  0.80933099  0.06592349  1
  Zn  Zn123  1  0.07699843  0.81193468  0.58009577  1
  Zn  Zn124  1  0.55274245  0.31264728  0.07061088  1
  Zn  Zn125  1  0.66671492  0.21413607  0.59377780  1
  Zn  Zn126  1  0.56444614  0.81170719  0.05380431  1
  Zn  Zn127  1  0.53078077  0.82139090  0.57842118  1
  O  O128  1  0.13045352  0.13555762  0.10349114  1
  O  O129  1  0.12258314  0.11580336  0.62440979  1
  O  O130  1  0.12179729  0.64415894  0.15428682  1
  O  O131  1  0.12444208  0.62634526  0.60831091  1
  O  O132  1  0.63307041  0.11085204  0.10655162  1
  O  O133  1  0.63415352  0.10312541  0.61806645  1
  O  O134  1  0.63034745  0.61287494  0.10603328  1
  O  O135  1  0.59412544  0.60044467  0.66427661  1
  O  O136  1  0.36722843  0.37990353  0.42068139  1
  O  O137  1  0.38542847  0.39326930  0.89398170  1
  O  O138  1  0.40152311  0.88167930  0.36179782  1
  O  O139  1  0.39392878  0.86882054  0.87856718  1
  O  O140  1  0.83882552  0.40196845  0.37331901  1
  O  O141  1  0.85179578  0.47029815  0.92066823  1
  O  O142  1  0.84436327  0.89745938  0.36674422  1
  O  O143  1  0.90078470  0.86224824  0.86576966  1
  O  O144  1  0.20378092  0.03357908  0.27520740  1
  O  O145  1  0.26148460  -0.00070599  0.86321407  1
  O  O146  1  0.21354177  0.43625362  0.39562461  1
  O  O147  1  0.14946897  0.38254027  0.87073926  1
  O  O148  1  0.74674003  0.01449916  0.36243823  1
  O  O149  1  0.75159286  0.01236834  0.89274608  1
  O  O150  1  0.72835956  0.50773562  0.34520329  1
  O  O151  1  0.78108218  0.49580588  0.88949825  1
  O  O152  1  0.18120189  0.48714979  0.08702959  1
  O  O153  1  0.22830579  0.49953646  0.59218033  1
  O  O154  1  0.26673619  0.96624888  0.12687270  1
  O  O155  1  0.23997253  1.01560047  0.63920943  1
  O  O156  1  0.74176736  0.49121770  0.11513100  1
  O  O157  1  0.74454714  0.51031357  0.65683740  1
  O  O158  1  0.74316548  0.99234313  0.11852516  1
  O  O159  1  0.73458391  0.99405260  0.62649106  1
  O  O160  1  -0.02574610  0.36272955  0.24225467  1
  O  O161  1  -0.00139830  0.37379287  0.74627704  1
  O  O162  1  -0.01189780  0.87183105  0.24780914  1
  O  O163  1  0.01808011  0.85427573  0.75051092  1
  O  O164  1  0.52483415  0.37761931  0.24073996  1
  O  O165  1  0.53932806  0.36165845  0.72291797  1
  O  O166  1  0.51855463  0.86896946  0.25285920  1
  O  O167  1  0.50834213  0.88302495  0.76225719  1
  O  O168  1  0.38758685  0.10479469  0.39430601  1
  O  O169  1  0.52249061  0.12222295  0.73577568  1
  O  O170  1  0.49005134  0.63439963  0.23839412  1
  O  O171  1  0.47059602  0.61124430  0.73818517  1
  O  O172  1  0.97633221  0.11318094  0.23086903  1
  O  O173  1  1.01769303  0.13505014  0.74387200  1
  O  O174  1  0.98037940  0.64122775  0.24147534  1
  O  O175  1  0.99102618  0.63244846  0.74692238  1
  O  O176  1  0.36524826  0.24746301  -0.00127562  1
  O  O177  1  0.39857008  0.28465086  0.55494469  1
  O  O178  1  0.37750945  0.75954887  -0.00375778  1
  O  O179  1  0.37978250  0.74391415  0.49821114  1
  O  O180  1  0.86815776  0.26032085  -0.01282205  1
  O  O181  1  0.88405218  0.25555916  0.52123460  1
  O  O182  1  0.85678318  0.74764012  0.00842478  1
  O  O183  1  0.84541730  0.74301795  0.47409979  1
  O  O184  1  0.10971087  0.22984254  0.49179123  1
  O  O185  1  0.15934149  0.23786806  0.99191694  1
  O  O186  1  0.13552841  0.74921560  0.50110000  1
  O  O187  1  0.14055909  0.75509084  1.00021341  1
  O  O188  1  0.66317405  0.26755234  0.48841161  1
  O  O189  1  0.60448098  0.23317633  1.01202780  1
  O  O190  1  0.62237741  0.74060161  0.47238604  1
  O  O191  1  0.63149426  0.74123489  0.99401226  1
  O  O192  1  0.45374276  0.34912290  0.08888807  1
  O  O193  1  0.54954434  0.22198803  0.61040145  1
  O  O194  1  0.50642630  0.75613491  0.13346434  1
  O  O195  1  0.48852138  0.72505975  0.62520997  1
  O  O196  1  0.99930402  0.26530083  0.12000981  1
  O  O197  1  0.98530747  0.24119940  0.63917431  1
  O  O198  1  0.98674685  0.75320847  0.14273569  1
  O  O199  1  1.01810956  0.73481220  0.64868367  1
  O  O200  1  -0.00126446  0.20432264  0.37496819  1
  O  O201  1  -0.00122821  0.25544800  0.85527160  1
  O  O202  1  -0.04661059  0.75674679  0.35485603  1
  O  O203  1  0.01675035  0.75121994  0.85765909  1
  O  O204  1  0.53191113  0.25599734  0.40406788  1
  O  O205  1  0.49383261  0.26390092  0.87142671  1
  O  O206  1  0.51691051  0.75220586  0.35444260  1
  O  O207  1  0.51483411  0.76567607  0.88101313  1
  O  O208  1  0.22837496  0.12114331  0.50585937  1
  O  O209  1  0.25924647  0.13431824  0.98889924  1
  O  O210  1  0.23780804  0.62720269  0.48706607  1
  O  O211  1  0.25958563  0.64826369  1.02813341  1
  O  O212  1  0.75428920  0.13150989  0.48906839  1
  O  O213  1  0.73878430  0.14564304  0.99606246  1
  O  O214  1  0.73261246  0.60096301  0.47107923  1
  O  O215  1  0.73676146  0.64271018  0.99415358  1
  O  O216  1  0.26065797  0.35192821  0.02852234  1
  O  O217  1  0.36377371  0.42964094  0.48367876  1
  O  O218  1  0.27085366  0.86817091  -0.01440377  1
  O  O219  1  0.28973634  0.94666786  0.46798371  1
  O  O220  1  0.73911572  0.36636583  -0.00464567  1
  O  O221  1  0.71526157  0.42714186  0.52240646  1
  O  O222  1  0.73775676  0.86371571  0.00663250  1
  O  O223  1  0.73349386  0.85582197  0.51272005  1
  O  O224  1  0.11055553  0.50735940  0.29843812  1
  O  O225  1  0.12753735  0.49466932  0.71192404  1
  O  O226  1  0.23110702  1.09037899  0.23950418  1
  O  O227  1  0.14368841  0.99205436  0.74793314  1
  O  O228  1  0.63261884  0.49647613  0.22243408  1
  O  O229  1  0.66424397  0.49752349  0.80224514  1
  O  O230  1  0.63736049  0.99186816  0.23001429  1
  O  O231  1  0.63608063  0.98515322  0.75552792  1
  O  O232  1  0.39525983  0.01745742  0.24197494  1
  O  O233  1  0.36145121  -0.01020833  0.73640882  1
  O  O234  1  0.41153459  0.49790293  0.25944281  1
  O  O235  1  0.36234421  0.50061623  0.78313591  1
  O  O236  1  0.85855729  0.01275888  0.23563900  1
  O  O237  1  0.85956875  -0.04220505  0.71425051  1
  O  O238  1  0.85895263  0.50966319  0.23450531  1
  O  O239  1  0.86800675  0.51398292  0.75571948  1
  O  O240  1  0.06670543  0.34867478  0.39738025  1
  O  O241  1  0.00357763  0.40133912  0.93028715  1
  O  O242  1  0.12071968  0.86654144  0.39580848  1
  O  O243  1  0.12130092  0.87512455  0.85807182  1
  O  O244  1  0.65100464  0.34645034  0.34201825  1
  O  O245  1  0.60476432  0.34068476  0.88150888  1
  O  O246  1  0.63506417  0.85720362  0.35754746  1
  O  O247  1  0.61829104  0.86603614  0.86260126  1
  O  O248  1  0.42041133  0.08532211  0.22717163  1
  O  O249  1  0.40568399  0.12405757  0.62819738  1
  O  O250  1  0.33381803  0.62067751  0.17037641  1
  O  O251  1  0.37743701  0.63654742  0.62468175  1
  O  O252  1  0.86977461  0.13086485  0.11589401  1
  O  O253  1  0.88966111  0.11180874  0.64396886  1
  O  O254  1  0.86805023  0.63508979  0.12630652  1
  O  O255  1  0.88378307  0.62633735  0.63909726  1
  O  O256  1  0.26825599  0.22139680  0.12802912  1
  O  O257  1  0.26414386  0.22117681  0.63364548  1
  O  O258  1  0.25087620  0.78072995  0.11120851  1
  O  O259  1  0.27896982  0.75664414  0.62198593  1
  O  O260  1  0.75020573  0.26633135  0.10204376  1
  O  O261  1  0.76649543  0.24570709  0.64261174  1
  O  O262  1  0.75141879  0.75724754  0.11246376  1
  O  O263  1  0.73850400  0.69636708  0.59643412  1
  O  O264  1  0.19646145  0.25383736  0.36136060  1
  O  O265  1  0.27262235  0.24282131  0.85585735  1
  O  O266  1  0.24017717  0.76245601  0.37332713  1
  O  O267  1  0.25343504  0.74213421  0.89236191  1
  O  O268  1  0.75926375  0.23179890  0.36168356  1
  O  O269  1  0.74839579  0.24486529  0.88336723  1
  O  O270  1  0.73612131  0.72538340  0.35795102  1
  O  O271  1  0.73280418  0.76110249  0.88638791  1
  O  O272  1  0.02893899  0.13062746  -0.02045018  1
  O  O273  1  0.00698352  0.12063273  0.53335712  1
  O  O274  1  0.01060716  0.65146770  0.03307062  1
  O  O275  1  -0.01179024  0.65472109  0.51958416  1
  O  O276  1  0.50918341  0.10708253  -0.01025423  1
  O  O277  1  0.50259172  0.12107898  0.50887856  1
  O  O278  1  0.51391826  0.63446982  0.00020302  1
  O  O279  1  0.50633629  0.62024144  0.51589555  1
  O  O280  1  0.53878434  0.43963295  0.49842741  1
  O  O281  1  0.53238350  0.32913494  0.90754085  1
  O  O282  1  0.51669133  0.86333449  0.47329078  1
  O  O283  1  0.49627512  0.88114154  0.98864821  1
  O  O284  1  0.94120472  0.31012626  0.49595514  1
  O  O285  1  1.04320209  0.40733714  0.99191301  1
  O  O286  1  0.99645336  0.85555671  0.51415393  1
  O  O287  1  1.01354499  0.86828819  0.97916124  1
  O  O288  1  0.53039808  0.47358156  0.37210354  1
  O  O289  1  0.50688305  0.50163276  0.86421220  1
  O  O290  1  0.52515231  0.98385829  0.36806670  1
  O  O291  1  0.51180331  0.98534622  0.88561667  1
  O  O292  1  0.97617762  0.50751664  0.38125222  1
  O  O293  1  1.05667533  0.56750631  0.88888375  1
  O  O294  1  0.97453635  0.99662007  0.38610788  1
  O  O295  1  1.00621744  0.97954246  0.84932873  1
  O  O296  1  -0.04112539  -0.00453683  0.07560931  1
  O  O297  1  0.01937072  0.01162837  0.64979303  1
  O  O298  1  0.00672205  0.52789814  0.13462018  1
  O  O299  1  0.00448235  0.52614238  0.62397955  1
  O  O300  1  0.51207587  -0.00879667  0.10568077  1
  O  O301  1  0.52270976  0.00949309  0.62521449  1
  O  O302  1  0.51613251  0.50043856  0.11439530  1
  O  O303  1  0.46071831  0.51072560  0.62079975  1
  O  O304  1  0.23719164  0.41514462  0.23307933  1
  O  O305  1  0.19701219  0.39539307  0.81886489  1
  O  O306  1  0.24156202  0.86805002  0.24909578  1
  O  O307  1  0.24691924  0.88409759  0.76008196  1
  O  O308  1  0.74507378  0.37914996  0.22169375  1
  O  O309  1  0.76143614  0.38112015  0.75763889  1
  O  O310  1  0.74049794  0.88622690  0.23159873  1
  O  O311  1  0.72839285  0.85826153  0.74336100  1
  O  O312  1  0.36599289  0.22331450  0.25509017  1
  O  O313  1  0.24988839  0.11244798  0.76154362  1
  O  O314  1  0.26741552  0.56580218  0.29649834  1
  O  O315  1  0.27004375  0.61830493  0.73787530  1
  O  O316  1  0.76073300  0.11873874  0.23735845  1
  O  O317  1  0.75663882  0.13183962  0.77687189  1
  O  O318  1  0.74997441  0.61417918  0.23743147  1
  O  O319  1  0.76790146  0.63396102  0.75986783  1
  O  O320  1  0.32291342  0.09090473  0.36561241  1
  O  O321  1  0.36514383  0.11989566  0.87529545  1
  O  O322  1  0.39220401  0.62949271  0.35618156  1
  O  O323  1  0.38129780  0.61638159  0.86741851  1
  O  O324  1  0.86290409  0.10390120  0.38165081  1
  O  O325  1  0.86049478  0.12030393  0.90155982  1
  O  O326  1  0.84766837  0.60379999  0.35524694  1
  O  O327  1  0.88981714  0.62918275  0.86618556  1
  O  O328  1  0.15226021  0.33582772  0.13462583  1
  O  O329  1  0.09973110  0.39858916  0.58010932  1
  O  O330  1  0.12336644  0.87956553  0.13340328  1
  O  O331  1  0.12992061  0.89060587  0.64462436  1
  O  O332  1  0.63235360  0.38750975  0.11810694  1
  O  O333  1  0.65956031  0.40479370  0.56551883  1
  O  O334  1  0.63183301  0.88118492  0.12418911  1
  O  O335  1  0.60928865  0.88482348  0.63813164  1
  O  O336  1  0.08310675  0.23992773  0.26008788  1
  O  O337  1  0.11083928  0.26596717  0.73821338  1
  O  O338  1  0.09243799  0.75859068  0.28548611  1
  O  O339  1  0.14484838  0.76154859  0.74290205  1
  O  O340  1  0.61879457  0.25832241  0.21349155  1
  O  O341  1  0.60517073  0.33439327  0.71866150  1
  O  O342  1  0.61962451  0.75670094  0.24173415  1
  O  O343  1  0.62322858  0.75041830  0.76085972  1
  O  O344  1  0.37261206  0.26515183  0.31357171  1
  O  O345  1  0.39961852  0.27331801  0.72625980  1
  O  O346  1  0.39568504  0.76169825  0.24623122  1
  O  O347  1  0.37644716  0.73752814  0.75780359  1
  O  O348  1  0.88329368  0.23281377  0.24276600  1
  O  O349  1  0.88750200  0.25508092  0.73926649  1
  O  O350  1  0.86264487  0.73927017  0.23478564  1
  O  O351  1  0.89015576  0.74423987  0.75317306  1
  O  O352  1  0.36087021  0.50455875  0.46422359  1
  O  O353  1  0.38586544  0.51457139  0.98031719  1
  O  O354  1  0.34820220  0.97673422  0.49787002  1
  O  O355  1  0.39061725  0.98998528  0.99730441  1
  O  O356  1  0.85724340  0.51343023  0.49058549  1
  O  O357  1  0.87748851  0.50997526  0.98330521  1
  O  O358  1  0.85894362  0.98394966  0.49961237  1
  O  O359  1  0.90590448  0.99796243  1.02144485  1
  O  O360  1  0.15313366  0.01712194  0.00073169  1
  O  O361  1  0.11759596  0.00251706  0.52608986  1
  O  O362  1  0.13363251  0.55606999  -0.06535014  1
  O  O363  1  0.10326763  0.53393205  0.49664792  1
  O  O364  1  0.61843349  0.00335550  0.00337878  1
  O  O365  1  0.63258326  -0.00573214  0.50029360  1
  O  O366  1  0.62804383  0.51466723  -0.00283948  1
  O  O367  1  0.55241484  0.49327006  0.44812096  1
  O  O368  1  0.33203601  0.45113412  0.11648687  1
  O  O369  1  0.31044778  0.38222177  0.64891922  1
  O  O370  1  0.38765613  0.87155131  0.10386302  1
  O  O371  1  0.41471519  0.85299227  0.61258986  1
  O  O372  1  0.85875211  0.38919542  0.10918456  1
  O  O373  1  0.87447667  0.37193452  0.62691394  1
  O  O374  1  0.85958517  0.86380157  0.12507716  1
  O  O375  1  0.84906997  0.82112064  0.61684597  1
  O  O376  1  0.11294037  0.10060040  0.40145179  1
  O  O377  1  0.15580948  0.12359061  0.88382472  1
  O  O378  1  0.10336613  0.65865060  0.39667228  1
  O  O379  1  0.19155538  0.54664464  0.89144174  1
  O  O380  1  0.64018273  0.14193359  0.37839724  1
  O  O381  1  0.63590262  0.12227085  0.89313331  1
  O  O382  1  0.62591965  0.63112761  0.35353361  1
  O  O383  1  0.61617859  0.64222848  0.88120048  1
