# generated using pymatgen
data_VZnO4
_symmetry_space_group_name_H-M   'P 1'
_cell_length_a   16.91908275
_cell_length_b   16.89865710
_cell_length_c   16.89863618
_cell_angle_alpha   89.72135822
_cell_angle_beta   90.10472485
_cell_angle_gamma   90.10740669
_symmetry_Int_Tables_number   1
_chemical_formula_structural   VZnO4
_chemical_formula_sum   'V64 Zn64 O256'
_cell_volume   4831.41170176
_cell_formula_units_Z   64
loop_
 _symmetry_equiv_pos_site_id
 _symmetry_equiv_pos_as_xyz
  1  'x, y, z'
loop_
 _atom_site_type_symbol
 _atom_site_label
 _atom_site_symmetry_multiplicity
 _atom_site_fract_x
 _atom_site_fract_y
 _atom_site_fract_z
 _atom_site_occupancy
  V  V0  1  0.37670073  0.88901122  0.49600485  1
  V  V1  1  0.76411389  0.11730874  0.37637635  1
  V  V2  1  0.37155498  0.25725900  0.63376941  1
  V  V3  1  0.59713515  0.88300215  0.75090019  1
  V  V4  1  0.49087205  0.72641310  0.74764575  1
  V  V5  1  0.62072376  0.73741159  0.88348495  1
  V  V6  1  0.86243142  0.75353113  0.63848143  1
  V  V7  1  0.64007782  0.50460812  0.62691773  1
  V  V8  1  0.25432989  0.62759082  0.85740573  1
  V  V9  1  0.37576438  0.76651213  0.62477371  1
  V  V10  1  0.50373596  0.36737419  0.85440828  1
  V  V11  1  0.75602375  -0.01597976  0.74269782  1
  V  V12  1  0.73754739  0.87109813  0.11827174  1
  V  V13  1  0.12897515  0.36258298  0.25162308  1
  V  V14  1  0.87439912  0.12194052  0.74226723  1
  V  V15  1  0.75550812  0.26152282  0.49910556  1
  V  V16  1  0.50165308  0.01746403  0.48036778  1
  V  V17  1  0.11766980  0.49301459  0.11935179  1
  V  V18  1  0.01022977  -0.00136661  -0.00217454  1
  V  V19  1  0.25998624  0.61816444  0.36914761  1
  V  V20  1  0.22684090  0.37640089  0.65442797  1
  V  V21  1  0.12977176  0.62631695  0.49994572  1
  V  V22  1  0.73219694  0.75020732  0.48122542  1
  V  V23  1  0.62240958  0.88667884  0.24785380  1
  V  V24  1  0.50332849  0.12275497  0.65210728  1
  V  V25  1  0.25185915  0.36885492  0.12084868  1
  V  V26  1  0.49020814  0.10858620  0.13886393  1
  V  V27  1  0.36305537  0.12967775  0.26899506  1
  V  V28  1  0.50910730  0.50932008  -0.01000863  1
  V  V29  1  0.00876224  0.13470617  0.11121810  1
  V  V30  1  0.38864370  0.36028658  -0.00824236  1
  V  V31  1  0.28425592  0.13498992  0.87218482  1
  V  V32  1  -0.01093415  0.86184608  0.87926764  1
  V  V33  1  0.24887143  0.01084859  0.75297816  1
  V  V34  1  0.63270641  -0.00250445  0.61868645  1
  V  V35  1  0.87717339  0.87463875  0.48219069  1
  V  V36  1  0.49913729  0.74074532  0.24484169  1
  V  V37  1  0.12995604  0.87519463  0.77559734  1
  V  V38  1  -0.01765740  0.49295324  -0.01036640  1
  V  V39  1  0.62209862  0.50560082  0.15162920  1
  V  V40  1  0.49742364  0.53163849  0.51368924  1
  V  V41  1  0.23463467  0.24926309  -0.01030549  1
  V  V42  1  0.75630366  0.36066815  0.16231861  1
  V  V43  1  0.00758884  0.24468481  0.27202488  1
  V  V44  1  0.25469681  0.85513971  0.11971102  1
  V  V45  1  0.87396553  0.86468826  0.01195565  1
  V  V46  1  0.00975869  0.38313249  0.41163250  1
  V  V47  1  0.88785486  0.11497057  0.25563938  1
  V  V48  1  0.40073911  0.88663890  -0.00816532  1
  V  V49  1  0.00574266  0.36087864  0.85564698  1
  V  V50  1  0.63100984  0.13197516  0.48875548  1
  V  V51  1  0.20667422  0.88967995  0.60049138  1
  V  V52  1  0.50375320  0.87419296  0.36989717  1
  V  V53  1  0.75747079  0.00374891  0.24240486  1
  V  V54  1  0.12644913  0.62716937  0.00042616  1
  V  V55  1  0.65610091  0.36606223  0.74346309  1
  V  V56  1  0.87010910  0.00333538  0.87657750  1
  V  V57  1  0.13174454  -0.01207460  0.12574568  1
  V  V58  1  0.01085298  0.10868553  0.61671151  1
  V  V59  1  -0.00016953  0.73992523  0.74921947  1
  V  V60  1  0.25037133  -0.00704188  0.26501988  1
  V  V61  1  0.49693024  0.37371914  0.40775116  1
  V  V62  1  0.87833686  0.25809855  0.62253773  1
  V  V63  1  0.74048904  0.23686393  -0.02745332  1
  Zn  Zn64  1  0.19373284  0.18093495  0.18231183  1
  Zn  Zn65  1  0.18882155  0.19176420  0.68205105  1
  Zn  Zn66  1  0.17669088  0.68008331  0.18978747  1
  Zn  Zn67  1  0.19215185  0.70889756  0.68487795  1
  Zn  Zn68  1  0.66538259  0.17918351  0.10913827  1
  Zn  Zn69  1  0.69614875  0.18057679  0.68290002  1
  Zn  Zn70  1  0.64316802  0.70963634  0.15191624  1
  Zn  Zn71  1  0.65203386  0.71722235  0.64030650  1
  Zn  Zn72  1  0.33462379  0.32179254  0.31386694  1
  Zn  Zn73  1  0.32179852  0.31801467  0.80830458  1
  Zn  Zn74  1  0.31723410  0.81328649  0.30437406  1
  Zn  Zn75  1  0.31910729  0.80046752  0.82789096  1
  Zn  Zn76  1  0.83419749  0.30659481  0.33069687  1
  Zn  Zn77  1  0.81156955  0.28802730  0.82989565  1
  Zn  Zn78  1  0.79423154  0.81694485  0.31955532  1
  Zn  Zn79  1  0.78313168  0.77753795  0.78448859  1
  Zn  Zn80  1  0.21090509  0.47120353  0.48079138  1
  Zn  Zn81  1  0.18040117  0.44084323  0.92054444  1
  Zn  Zn82  1  0.20839253  0.79975545  0.44732046  1
  Zn  Zn83  1  0.25578837  0.95754752  0.94878762  1
  Zn  Zn84  1  0.65764822  0.42437292  0.44544124  1
  Zn  Zn85  1  0.69154635  0.44027363  0.92273900  1
  Zn  Zn86  1  0.69203898  0.93866319  0.43585873  1
  Zn  Zn87  1  0.70748359  0.89414256  0.91074641  1
  Zn  Zn88  1  0.32148521  0.07134869  0.06578121  1
  Zn  Zn89  1  0.31794797  0.07123012  0.56947120  1
  Zn  Zn90  1  0.29726174  0.53441532  0.00487503  1
  Zn  Zn91  1  0.31109687  0.56398097  0.58391910  1
  Zn  Zn92  1  0.82344414  0.07029994  0.06412537  1
  Zn  Zn93  1  0.81941726  0.05424433  0.55767094  1
  Zn  Zn94  1  0.86292399  0.36677283  -0.00866637  1
  Zn  Zn95  1  0.78593047  0.58685455  0.59231907  1
  Zn  Zn96  1  0.41736982  0.46534142  0.14629544  1
  Zn  Zn97  1  0.43214555  0.44957530  0.67221474  1
  Zn  Zn98  1  0.42411530  0.94261317  0.18522381  1
  Zn  Zn99  1  0.42720466  0.96500722  0.68043586  1
  Zn  Zn100  1  0.94235148  0.40859644  0.16970081  1
  Zn  Zn101  1  0.87454536  0.41106786  0.74899554  1
  Zn  Zn102  1  0.94208945  0.93444577  0.18565636  1
  Zn  Zn103  1  0.94147717  0.92955553  0.67942606  1
  Zn  Zn104  1  0.09076228  0.06989392  0.30858543  1
  Zn  Zn105  1  0.05238892  0.05510651  0.80268024  1
  Zn  Zn106  1  0.11891199  0.52916961  0.33793353  1
  Zn  Zn107  1  0.05613546  0.56454647  0.83151452  1
  Zn  Zn108  1  0.57995523  0.09179611  0.28898738  1
  Zn  Zn109  1  0.59464075  0.06635531  0.82226817  1
  Zn  Zn110  1  0.50525847  0.53794146  0.30681682  1
  Zn  Zn111  1  0.56930827  0.55190875  0.80659981  1
  Zn  Zn112  1  0.40262882  0.19620768  0.45092228  1
  Zn  Zn113  1  0.46575866  0.18570074  0.94528518  1
  Zn  Zn114  1  0.42931060  0.69530763  0.43734588  1
  Zn  Zn115  1  0.43166861  0.69173666  0.93425618  1
  Zn  Zn116  1  0.94322725  0.18613415  0.44554195  1
  Zn  Zn117  1  0.93440739  0.18792422  0.93301516  1
  Zn  Zn118  1  0.92286992  0.66962107  0.49870690  1
  Zn  Zn119  1  0.93141271  0.67951154  0.95181990  1
  Zn  Zn120  1  0.06329110  0.31468156  0.04570112  1
  Zn  Zn121  1  0.01801832  0.35201023  0.63218802  1
  Zn  Zn122  1  0.17029540  0.79098743  -0.04843700  1
  Zn  Zn123  1  0.05416631  0.77939310  0.55032106  1
  Zn  Zn124  1  0.60585237  0.35282541  0.03463206  1
  Zn  Zn125  1  0.56728443  0.30298054  0.58185945  1
  Zn  Zn126  1  0.52156089  0.79658173  0.04563101  1
  Zn  Zn127  1  0.54875666  0.82386305  0.56237537  1
  O  O128  1  0.11126381  0.11295829  0.12624084  1
  O  O129  1  0.10886508  0.13204418  0.63407927  1
  O  O130  1  0.12149855  0.59831469  0.12405388  1
  O  O131  1  0.14448133  0.69081569  0.58544877  1
  O  O132  1  0.59050044  0.13708076  0.17802045  1
  O  O133  1  0.62004102  0.11854576  0.61291245  1
  O  O134  1  0.64574936  0.60156451  0.12969248  1
  O  O135  1  0.64652090  0.60536340  0.64363505  1
  O  O136  1  0.41966862  0.40020772  0.30496591  1
  O  O137  1  0.38518256  0.37763948  0.88685951  1
  O  O138  1  0.39095616  0.88157683  0.38558096  1
  O  O139  1  0.36832310  0.87633598  0.89452446  1
  O  O140  1  0.91209719  0.36890963  0.38753519  1
  O  O141  1  0.88295243  0.37154804  0.86380189  1
  O  O142  1  0.87705509  0.86119353  0.37940384  1
  O  O143  1  0.88093467  0.88314276  0.88919354  1
  O  O144  1  0.23307994  -0.02024503  0.35892864  1
  O  O145  1  0.24110529  0.03262730  0.86770036  1
  O  O146  1  0.23263855  0.50964348  0.37539257  1
  O  O147  1  0.25460093  0.52205534  0.89435887  1
  O  O148  1  0.75378424  0.01060057  0.36517528  1
  O  O149  1  0.76538893  -0.01411665  0.86184081  1
  O  O150  1  0.74440130  0.49728629  0.36921273  1
  O  O151  1  0.76121579  0.52438702  0.87403775  1
  O  O152  1  0.23599421  0.47429116  0.10508732  1
  O  O153  1  0.24499476  0.45834956  0.59044373  1
  O  O154  1  0.23351015  1.00598223  0.11431368  1
  O  O155  1  0.24334622  0.98959720  0.63566922  1
  O  O156  1  0.72727422  0.47044537  0.13647188  1
  O  O157  1  0.74079625  0.48555393  0.61067897  1
  O  O158  1  0.76186204  0.99952660  0.13837377  1
  O  O159  1  0.73932989  0.99961016  0.62578916  1
  O  O160  1  0.01212089  0.35023162  0.23955191  1
  O  O161  1  -0.00957004  0.38007105  0.75160023  1
  O  O162  1  0.00214337  0.84764248  0.24580806  1
  O  O163  1  0.00120864  0.87383424  0.77104888  1
  O  O164  1  0.41394299  0.47469270  0.26291764  1
  O  O165  1  0.48096525  0.38412567  0.75797277  1
  O  O166  1  0.50324878  0.88840165  0.25980691  1
  O  O167  1  0.50025587  0.90282073  0.74941063  1
  O  O168  1  0.47186305  0.11963667  0.25547442  1
  O  O169  1  0.53233982  0.12644300  0.74756195  1
  O  O170  1  0.50750810  0.64518443  0.27284829  1
  O  O171  1  0.49608963  0.62839007  0.74536067  1
  O  O172  1  1.00924666  0.13326391  0.25251880  1
  O  O173  1  0.98097094  0.11783667  0.73951614  1
  O  O174  1  0.96616628  0.64284101  0.29384006  1
  O  O175  1  1.00599982  0.64204642  0.76514475  1
  O  O176  1  0.37568021  0.26051908  -0.00260997  1
  O  O177  1  0.35043189  0.18584196  0.55125394  1
  O  O178  1  0.41048805  0.77475108  0.00719178  1
  O  O179  1  0.38368651  0.77827682  0.50890900  1
  O  O180  1  0.85017886  0.24576597  -0.01665508  1
  O  O181  1  0.86814341  0.24945630  0.51137191  1
  O  O182  1  0.87602036  0.76572061  0.00421100  1
  O  O183  1  0.84753972  0.76055295  0.51425756  1
  O  O184  1  0.21427033  0.29046649  0.44103511  1
  O  O185  1  0.13652104  0.24863459  0.98155116  1
  O  O186  1  0.14427327  0.84939208  0.51953754  1
  O  O187  1  0.10203232  0.72445245  1.01562971  1
  O  O188  1  0.64330074  0.23859903  0.51126758  1
  O  O189  1  0.63818006  0.24709076  1.00996368  1
  O  O190  1  0.63817947  0.75976763  0.53214571  1
  O  O191  1  0.60583202  0.74663477  0.98243396  1
  O  O192  1  0.50784850  0.30535824  0.17241459  1
  O  O193  1  0.48827932  0.22468853  0.62149727  1
  O  O194  1  0.52548122  0.73680436  0.14189111  1
  O  O195  1  0.48380017  0.75211515  0.63256564  1
  O  O196  1  1.00875301  0.23517178  0.11393228  1
  O  O197  1  0.97954982  0.23435999  0.62659231  1
  O  O198  1  1.03721236  0.78973749  0.20303724  1
  O  O199  1  0.98920476  0.75342494  0.64644361  1
  O  O200  1  0.01486273  0.25247264  0.37376486  1
  O  O201  1  -0.00312111  0.26040149  0.87195864  1
  O  O202  1  -0.04467430  0.69774212  0.34015492  1
  O  O203  1  -0.01699985  0.75840493  0.87412915  1
  O  O204  1  0.42980970  0.29105140  0.39360909  1
  O  O205  1  0.50059401  0.26729301  0.87043648  1
  O  O206  1  0.50110234  0.77096085  0.36928020  1
  O  O207  1  0.50659352  0.74562788  0.85217988  1
  O  O208  1  0.22503873  0.11372990  0.49353025  1
  O  O209  1  0.26404926  0.14086467  0.98248294  1
  O  O210  1  0.24368150  0.61326540  0.49315431  1
  O  O211  1  0.22875640  0.62631186  1.01449637  1
  O  O212  1  0.74716398  0.12084361  0.49209429  1
  O  O213  1  0.74363151  0.14182753  1.02881851  1
  O  O214  1  0.74699157  0.65132693  0.50510806  1
  O  O215  1  0.78628720  0.58299420  0.92186708  1
  O  O216  1  0.25715265  0.36088139  -0.00650800  1
  O  O217  1  0.24988003  0.35146166  0.47675798  1
  O  O218  1  0.23944706  0.86335566  0.00979763  1
  O  O219  1  0.27622616  0.90242205  0.50117768  1
  O  O220  1  0.74419212  0.35226187  -0.02377990  1
  O  O221  1  0.74497248  0.35943504  0.48643587  1
  O  O222  1  0.76230555  0.88849188  0.01079285  1
  O  O223  1  0.75552897  0.86272668  0.49095432  1
  O  O224  1  0.11833795  0.47479544  0.23055063  1
  O  O225  1  0.10203592  0.52222168  0.71399747  1
  O  O226  1  0.13456471  0.99618044  0.23477135  1
  O  O227  1  0.13509755  0.98614558  0.76722653  1
  O  O228  1  0.60080126  0.50231235  0.24925862  1
  O  O229  1  0.62936659  0.48264809  0.73823825  1
  O  O230  1  0.64429196  0.99634713  0.25421035  1
  O  O231  1  0.63472809  0.99294030  0.74237915  1
  O  O232  1  0.35596588  0.00480027  0.25477293  1
  O  O233  1  0.34179786  -0.02262245  0.75897693  1
  O  O234  1  0.37456432  0.60167967  0.16304971  1
  O  O235  1  0.35526099  0.52939996  0.68580376  1
  O  O236  1  0.87710692  0.00477581  0.25259733  1
  O  O237  1  0.87157608  -0.00156498  0.75302190  1
  O  O238  1  0.90043956  0.49817045  0.25417703  1
  O  O239  1  0.87823200  0.53342830  0.74383036  1
  O  O240  1  0.11851523  0.36810932  0.35154447  1
  O  O241  1  0.10756977  0.37721129  0.86605241  1
  O  O242  1  0.05590102  0.92266507  0.39506158  1
  O  O243  1  0.10196599  0.86613332  0.88308897  1
  O  O244  1  0.59155030  0.35706929  0.37648441  1
  O  O245  1  0.61457568  0.37916030  0.84890090  1
  O  O246  1  0.61121981  0.88825886  0.36611837  1
  O  O247  1  0.61051016  0.86983942  0.85412579  1
  O  O248  1  0.38053523  0.12130244  0.14559336  1
  O  O249  1  0.40575020  0.08733343  0.65802321  1
  O  O250  1  0.37272707  0.65017697  0.10779962  1
  O  O251  1  0.33631918  0.67627285  0.61695551  1
  O  O252  1  0.90329557  0.11613903  0.14227323  1
  O  O253  1  0.88129890  0.11888583  0.63182355  1
  O  O254  1  0.85273309  0.54168482  0.21826316  1
  O  O255  1  0.88243600  0.64813127  0.60670412  1
  O  O256  1  0.23965205  0.25515208  0.10078464  1
  O  O257  1  0.25459850  0.27199132  0.63509776  1
  O  O258  1  0.24435949  0.75769767  0.13491407  1
  O  O259  1  0.26168900  0.80966544  0.63948277  1
  O  O260  1  0.73557904  0.26314376  0.14908057  1
  O  O261  1  0.76477075  0.24146898  0.60880566  1
  O  O262  1  0.73547319  0.77136817  0.11791009  1
  O  O263  1  0.76317546  0.73865002  0.66787809  1
  O  O264  1  0.25365955  0.25969099  0.38079327  1
  O  O265  1  0.26017226  0.24151428  0.87531660  1
  O  O266  1  0.25976112  0.74406721  0.37399462  1
  O  O267  1  0.24028037  0.73482624  0.88133814  1
  O  O268  1  0.76624404  0.23399606  0.39263884  1
  O  O269  1  0.73228773  0.21663533  0.87428564  1
  O  O270  1  0.72524420  0.74730755  0.38043985  1
  O  O271  1  0.72245295  0.77055261  0.87706420  1
  O  O272  1  -0.00506826  0.11643698  0.00692050  1
  O  O273  1  -0.00201251  0.11910281  0.51610195  1
  O  O274  1  0.00415146  0.60217608  -0.00815891  1
  O  O275  1  0.03232646  0.67925938  0.48808439  1
  O  O276  1  0.49901272  0.15945043  0.05096192  1
  O  O277  1  0.51219018  0.12327842  0.48779800  1
  O  O278  1  0.49947632  0.60803617  -0.01506226  1
  O  O279  1  0.50501782  0.63123274  0.49679704  1
  O  O280  1  0.50578174  0.36736906  0.50840888  1
  O  O281  1  0.49456534  0.37003630  0.99234685  1
  O  O282  1  0.50268193  0.89498188  0.48424196  1
  O  O283  1  0.50017497  0.90211095  0.99766011  1
  O  O284  1  1.02250588  0.36961748  0.51040601  1
  O  O285  1  0.99047424  0.37683898  0.98421195  1
  O  O286  1  0.97376448  0.85092397  0.50487367  1
  O  O287  1  0.98476667  0.88299228  0.99371457  1
  O  O288  1  0.49925993  0.48597064  0.40837317  1
  O  O289  1  0.50491282  0.48584007  0.88424816  1
  O  O290  1  0.50498561  1.00345227  0.38111801  1
  O  O291  1  0.51882978  1.07421346  0.91581450  1
  O  O292  1  1.02527290  0.48058106  0.38669248  1
  O  O293  1  0.99428246  0.48535813  0.88192118  1
  O  O294  1  1.01636250  0.97895667  0.36932356  1
  O  O295  1  0.99140412  0.99194124  0.88113292  1
  O  O296  1  0.01299344  -0.00163274  0.11710277  1
  O  O297  1  0.00628236  0.00738369  0.63056753  1
  O  O298  1  0.01043388  0.47843163  0.10692094  1
  O  O299  1  0.04692074  0.51509163  0.66536027  1
  O  O300  1  0.49740148  0.00881595  0.12549185  1
  O  O301  1  0.51896112  0.01448278  0.61093575  1
  O  O302  1  0.52036868  0.49566979  0.10890070  1
  O  O303  1  0.51826125  0.50669190  0.61817244  1
  O  O304  1  0.23992943  0.36099394  0.23017393  1
  O  O305  1  0.26057735  0.39473473  0.74815973  1
  O  O306  1  0.25895788  0.88513174  0.22965917  1
  O  O307  1  0.23006954  0.87346795  0.78676819  1
  O  O308  1  0.77394783  0.37173542  0.26098717  1
  O  O309  1  0.75732066  0.37597922  0.75879045  1
  O  O310  1  0.74549971  0.88317189  0.23829142  1
  O  O311  1  0.73821257  0.88214880  0.74699934  1
  O  O312  1  0.24789328  0.10526918  0.25048770  1
  O  O313  1  0.25589125  0.11667726  0.75119491  1
  O  O314  1  0.23933334  0.62678335  0.26819184  1
  O  O315  1  0.23287193  0.63180278  0.75813732  1
  O  O316  1  0.77270387  0.11748257  0.25830843  1
  O  O317  1  0.76179538  0.10120835  0.74114931  1
  O  O318  1  0.78006046  0.66812411  0.23289773  1
  O  O319  1  0.81458980  0.57053049  0.73247756  1
  O  O320  1  0.36387400  0.12458968  0.37052280  1
  O  O321  1  0.38129925  0.13178897  0.87162479  1
  O  O322  1  0.36162496  0.62396351  0.37979679  1
  O  O323  1  0.35597967  0.63777445  0.86998666  1
  O  O324  1  0.87743957  0.12429285  0.36909324  1
  O  O325  1  0.88089073  0.11149431  0.85783973  1
  O  O326  1  0.89022202  0.56669195  0.43026702  1
  O  O327  1  0.84052368  0.62933251  0.88662558  1
  O  O328  1  0.13159010  0.37196820  0.12319536  1
  O  O329  1  0.12826478  0.36181017  0.65824811  1
  O  O330  1  0.14047915  0.88657569  0.12428465  1
  O  O331  1  0.12502667  0.88360036  0.66113595  1
  O  O332  1  0.64199809  0.38496186  0.13986044  1
  O  O333  1  0.62865644  0.37991071  0.63933544  1
  O  O334  1  0.63784200  0.89094052  0.12894376  1
  O  O335  1  0.61177224  0.89076093  0.63562730  1
  O  O336  1  0.11859941  0.25077279  0.24273558  1
  O  O337  1  0.12327350  0.21420851  0.78846168  1
  O  O338  1  0.09378525  0.75277261  0.24414309  1
  O  O339  1  0.10920716  0.76613288  0.75424179  1
  O  O340  1  0.52860692  0.28740088  0.23962747  1
  O  O341  1  0.64147144  0.26486200  0.73871671  1
  O  O342  1  0.61558349  0.77972478  0.24953671  1
  O  O343  1  0.59768323  0.76832636  0.73494558  1
  O  O344  1  0.34601462  0.22814946  0.24991366  1
  O  O345  1  0.37142612  0.24292026  0.73369993  1
  O  O346  1  0.40147430  0.76398850  0.24333320  1
  O  O347  1  0.38735972  0.76531540  0.74052581  1
  O  O348  1  0.90220987  0.23599846  0.25779782  1
  O  O349  1  0.85750859  0.22745378  0.73676334  1
  O  O350  1  0.83225085  0.71967807  0.24295006  1
  O  O351  1  0.88787181  0.75132305  0.74941770  1
  O  O352  1  0.39764705  0.51505677  0.52078472  1
  O  O353  1  0.39718722  0.48312321  1.01829642  1
  O  O354  1  0.39688055  1.00400589  0.50414119  1
  O  O355  1  0.35840492  0.98826363  0.99821264  1
  O  O356  1  0.86005789  0.51294732  0.47204943  1
  O  O357  1  0.88497565  0.49320968  1.00198145  1
  O  O358  1  0.87138590  0.97552059  0.49923735  1
  O  O359  1  0.88387132  1.00011714  0.99204843  1
  O  O360  1  0.11237165  -0.00305279  0.00449099  1
  O  O361  1  0.16616212  0.07539670  0.46099398  1
  O  O362  1  0.11620226  0.49993834  0.00692510  1
  O  O363  1  0.10949042  0.53059765  0.51923155  1
  O  O364  1  0.57570205  0.04781768  -0.02994831  1
  O  O365  1  0.62012519  0.01056381  0.50027129  1
  O  O366  1  0.61313525  0.47857420  -0.00150458  1
  O  O367  1  0.61658480  0.50142399  0.51494859  1
  O  O368  1  0.35727263  0.37002999  0.11245754  1
  O  O369  1  0.38476210  0.35455635  0.61540975  1
  O  O370  1  0.35956256  0.87900393  0.10903639  1
  O  O371  1  0.39456146  0.88290601  0.60579722  1
  O  O372  1  0.85201168  0.37194777  0.11575113  1
  O  O373  1  0.88519718  0.35854182  0.63738291  1
  O  O374  1  0.86635691  0.87822508  0.11622660  1
  O  O375  1  0.87033420  0.85757467  0.62648700  1
  O  O376  1  0.12833613  0.12146921  0.40521046  1
  O  O377  1  0.12143557  0.15545021  0.83700973  1
  O  O378  1  0.13991648  0.63520888  0.39010560  1
  O  O379  1  0.13362803  0.62082271  0.89292230  1
  O  O380  1  0.64314767  0.12820927  0.38099309  1
  O  O381  1  0.64334929  0.03402194  0.93000415  1
  O  O382  1  0.74030598  0.56900080  0.35430702  1
  O  O383  1  0.62672772  0.64000287  0.85926449  1
