# generated using pymatgen
data_VZnO4
_symmetry_space_group_name_H-M   'P 1'
_cell_length_a   16.88885487
_cell_length_b   16.92820728
_cell_length_c   16.89616390
_cell_angle_alpha   90.01782956
_cell_angle_beta   90.00205518
_cell_angle_gamma   89.91979507
_symmetry_Int_Tables_number   1
_chemical_formula_structural   VZnO4
_chemical_formula_sum   'V64 Zn64 O256'
_cell_volume   4830.57510494
_cell_formula_units_Z   64
loop_
 _symmetry_equiv_pos_site_id
 _symmetry_equiv_pos_as_xyz
  1  'x, y, z'
loop_
 _atom_site_type_symbol
 _atom_site_label
 _atom_site_symmetry_multiplicity
 _atom_site_fract_x
 _atom_site_fract_y
 _atom_site_fract_z
 _atom_site_occupancy
  V  V0  1  0.02972317  0.37009446  0.88537862  1
  V  V1  1  0.26743626  0.10581578  0.37139845  1
  V  V2  1  0.10962029  0.62305705  0.51739862  1
  V  V3  1  0.65826064  0.85656487  0.25359081  1
  V  V4  1  -0.04268869  0.13204649  0.12647890  1
  V  V5  1  0.13263787  0.46896804  0.65392202  1
  V  V6  1  0.37908960  0.25055332  0.13080162  1
  V  V7  1  0.75561707  -0.01327613  0.74225412  1
  V  V8  1  0.39186558  0.11400352  0.74299258  1
  V  V9  1  0.24364778  -0.00421397  0.74314553  1
  V  V10  1  0.62363367  0.75359174  0.39256908  1
  V  V11  1  0.61655569  0.61733460  0.00804821  1
  V  V12  1  0.62032457  0.12480364  -0.00638305  1
  V  V13  1  0.49757518  0.39959927  0.87242131  1
  V  V14  1  0.13914426  0.50003547  0.13099048  1
  V  V15  1  0.23862308  0.13270953  0.87620733  1
  V  V16  1  0.50334040  0.12862447  0.13319292  1
  V  V17  1  0.50287966  0.62922110  0.64212613  1
  V  V18  1  -0.01959703  0.61715676  0.13025609  1
  V  V19  1  0.75373750  0.13864386  0.87363350  1
  V  V20  1  0.12362571  0.88045475  0.23763623  1
  V  V21  1  0.12272236  0.73490187  0.37043715  1
  V  V22  1  0.87804942  -0.00957217  0.88355437  1
  V  V23  1  0.75409836  0.48750114  0.72285906  1
  V  V24  1  -0.01314582  0.87139592  0.38405016  1
  V  V25  1  0.11563703  0.75643282  0.88139821  1
  V  V26  1  0.50115388  -0.00780404  -0.01039635  1
  V  V27  1  0.01922053  0.25599291  0.75663792  1
  V  V28  1  0.69863664  0.51162620  0.22199428  1
  V  V29  1  0.37359595  0.75692274  0.64503278  1
  V  V30  1  0.25020356  0.36909515  0.13570042  1
  V  V31  1  0.37207497  0.64264140  0.24987504  1
  V  V32  1  0.26728908  0.62851849  0.84681825  1
  V  V33  1  0.73627992  0.60859511  0.41998622  1
  V  V34  1  0.75967127  0.76827177  0.51644085  1
  V  V35  1  0.87147127  0.00763509  0.38651327  1
  V  V36  1  0.46815004  0.51329834  0.50413433  1
  V  V37  1  0.89000479  0.75187067  0.63349020  1
  V  V38  1  0.00969087  0.11740591  0.62442869  1
  V  V39  1  0.88477563  0.61439640  0.75073061  1
  V  V40  1  0.87903302  0.13288391  0.75108279  1
  V  V41  1  -0.01320315  0.49879669  -0.00252699  1
  V  V42  1  0.10975473  0.87750796  0.73786688  1
  V  V43  1  0.75220960  0.58183302  0.88996322  1
  V  V44  1  0.02184069  0.24412982  0.24966354  1
  V  V45  1  0.75879783  0.00302688  0.23667000  1
  V  V46  1  0.61163496  -0.00968987  0.61693165  1
  V  V47  1  -0.02088055  0.74086025  0.24355255  1
  V  V48  1  0.11668505  0.11156840  0.48605724  1
  V  V49  1  0.36054833  0.87077387  -0.01749368  1
  V  V50  1  0.36103010  0.37564038  -0.01416618  1
  V  V51  1  0.49518839  0.33061624  0.32877888  1
  V  V52  1  0.50918536  0.87304792  0.84717247  1
  V  V53  1  0.75485228  0.77325650  0.01025434  1
  V  V54  1  0.24729762  0.24721837  0.50137362  1
  V  V55  1  0.62455000  0.37603620  0.73701694  1
  V  V56  1  0.24781752  0.75644402  0.50946765  1
  V  V57  1  0.60305260  0.24339506  0.85859150  1
  V  V58  1  0.64888307  0.13865063  0.51203789  1
  V  V59  1  0.39222728  0.24392789  0.61364658  1
  V  V60  1  0.39005660  0.88598469  0.48976460  1
  V  V61  1  0.00142104  0.00788671  0.00722785  1
  V  V62  1  0.15923662  0.62570808  0.00217174  1
  V  V63  1  0.87212007  0.26348205  0.61626704  1
  Zn  Zn64  1  0.21823502  0.20728449  0.21042711  1
  Zn  Zn65  1  0.19755433  0.18401491  0.68539647  1
  Zn  Zn66  1  0.18072175  0.69084907  0.19036865  1
  Zn  Zn67  1  0.17595236  0.70107612  0.69202400  1
  Zn  Zn68  1  0.69901155  0.18158795  0.17450935  1
  Zn  Zn69  1  0.68984766  0.18720540  0.68271104  1
  Zn  Zn70  1  0.70577678  0.68797707  0.17967798  1
  Zn  Zn71  1  0.70226023  0.66581726  0.67422730  1
  Zn  Zn72  1  0.26001712  0.34469912  0.35545554  1
  Zn  Zn73  1  0.33340951  0.28916266  0.80743844  1
  Zn  Zn74  1  0.29879200  0.82561347  0.32054106  1
  Zn  Zn75  1  0.29730450  0.81658982  0.82295601  1
  Zn  Zn76  1  0.84366053  0.50231223  0.32508648  1
  Zn  Zn77  1  0.81339233  0.31421409  0.80880501  1
  Zn  Zn78  1  0.81009603  0.79830730  0.32542299  1
  Zn  Zn79  1  0.82803870  0.80262181  0.82259455  1
  Zn  Zn80  1  0.25129115  0.46647306  0.49343947  1
  Zn  Zn81  1  0.19976226  0.45271609  0.93214145  1
  Zn  Zn82  1  0.17154659  0.93315668  0.43269657  1
  Zn  Zn83  1  0.18718161  0.94774762  0.93086237  1
  Zn  Zn84  1  0.60729225  0.45199831  0.42425474  1
  Zn  Zn85  1  0.66515318  0.42389558  0.95546396  1
  Zn  Zn86  1  0.69589516  0.94183737  0.43864276  1
  Zn  Zn87  1  0.68851806  0.94241321  0.92517187  1
  Zn  Zn88  1  0.32919779  0.06503931  0.05032285  1
  Zn  Zn89  1  0.30343869  0.06170649  0.56373468  1
  Zn  Zn90  1  0.34081149  0.55037074  0.07334474  1
  Zn  Zn91  1  0.28430916  0.59257554  0.60629550  1
  Zn  Zn92  1  0.80250295  0.05972855  0.05697987  1
  Zn  Zn93  1  0.82081248  0.06922874  0.56295231  1
  Zn  Zn94  1  0.80673410  0.53932952  0.07099772  1
  Zn  Zn95  1  0.82664430  0.55994056  0.56535164  1
  Zn  Zn96  1  0.49819401  0.46834378  0.18968822  1
  Zn  Zn97  1  0.44801181  0.42434263  0.67043543  1
  Zn  Zn98  1  0.54676046  0.95028060  0.17896891  1
  Zn  Zn99  1  0.42515447  0.94268709  0.66939673  1
  Zn  Zn100  1  1.00819833  0.44723443  0.25647750  1
  Zn  Zn101  1  0.95303170  0.43867395  0.68860309  1
  Zn  Zn102  1  0.94143641  0.93412343  0.18494239  1
  Zn  Zn103  1  0.93497621  0.93869530  0.69218599  1
  Zn  Zn104  1  0.04823277  0.05801575  0.30469097  1
  Zn  Zn105  1  0.06591237  0.06214618  0.81825507  1
  Zn  Zn106  1  0.14110394  0.51608939  0.36278338  1
  Zn  Zn107  1  0.07431273  0.55781815  0.82181246  1
  Zn  Zn108  1  0.61155924  0.07508066  0.30262585  1
  Zn  Zn109  1  0.57054896  0.04028544  0.80699780  1
  Zn  Zn110  1  0.55564384  0.58935750  0.32094500  1
  Zn  Zn111  1  0.57458320  0.56784842  0.80816310  1
  Zn  Zn112  1  0.43784650  0.17819568  0.42766701  1
  Zn  Zn113  1  0.42039997  0.17860026  0.93233697  1
  Zn  Zn114  1  0.43584196  0.69353455  0.44895774  1
  Zn  Zn115  1  0.44280808  0.70307998  0.92897116  1
  Zn  Zn116  1  0.93643437  0.19317449  0.43242878  1
  Zn  Zn117  1  0.94527219  0.19261292  0.93711681  1
  Zn  Zn118  1  0.92618320  0.67529860  0.43522051  1
  Zn  Zn119  1  0.92514466  0.68145564  0.93301223  1
  Zn  Zn120  1  0.03668841  0.33513159  0.09616468  1
  Zn  Zn121  1  0.07491407  0.30178823  0.57154297  1
  Zn  Zn122  1  0.06125341  0.80102734  0.06243424  1
  Zn  Zn123  1  0.05629869  0.80739638  0.56018530  1
  Zn  Zn124  1  0.52314235  0.28899972  0.02796002  1
  Zn  Zn125  1  0.56149897  0.31827907  0.54601745  1
  Zn  Zn126  1  0.60501468  0.82556122  0.04539934  1
  Zn  Zn127  1  0.55731847  0.81380834  0.57026176  1
  O  O128  1  0.14862187  0.14431954  0.08222911  1
  O  O129  1  0.11153826  0.12474804  0.62751541  1
  O  O130  1  0.13168016  0.61519824  0.11707484  1
  O  O131  1  0.11963113  0.63018461  0.61948722  1
  O  O132  1  0.61871974  0.13986342  0.09897054  1
  O  O133  1  0.63439271  0.11361291  0.61652426  1
  O  O134  1  0.63020812  0.63839044  0.10728363  1
  O  O135  1  0.60395698  0.63320192  0.62942431  1
  O  O136  1  0.38284819  0.36714438  0.34288469  1
  O  O137  1  0.39300398  0.36479517  0.87453756  1
  O  O138  1  0.36591092  0.87904579  0.39010363  1
  O  O139  1  0.38559880  0.87467778  0.88061793  1
  O  O140  1  0.85258195  0.40629456  0.40734714  1
  O  O141  1  0.87982450  0.34293334  0.90554237  1
  O  O142  1  0.88253190  0.87293835  0.37131148  1
  O  O143  1  0.88246195  0.89308310  0.87333411  1
  O  O144  1  0.23449140  0.00944831  0.37615588  1
  O  O145  1  0.24692880  0.01337524  0.86147873  1
  O  O146  1  0.23313933  0.45302147  0.37906764  1
  O  O147  1  0.25736357  0.52951181  0.87366119  1
  O  O148  1  0.76519005  -0.00893487  0.35906121  1
  O  O149  1  0.76259141  0.01172203  0.86601680  1
  O  O150  1  0.70339811  0.51338540  0.42932695  1
  O  O151  1  0.75011818  0.48132975  0.89145700  1
  O  O152  1  0.24774793  0.48711509  0.12445981  1
  O  O153  1  0.22861001  0.49609212  0.60685732  1
  O  O154  1  0.26891336  1.00439844  0.14455206  1
  O  O155  1  0.23568426  1.00587899  0.64294418  1
  O  O156  1  0.72900698  0.48425760  0.12774358  1
  O  O157  1  0.74908614  0.49132998  0.62452582  1
  O  O158  1  0.74723034  1.00036660  0.13617853  1
  O  O159  1  0.77891686  0.99904919  0.64449048  1
  O  O160  1  0.01016628  0.34363686  0.21149539  1
  O  O161  1  -0.00122619  0.36428947  0.77405661  1
  O  O162  1  -0.00279127  0.85203484  0.24636455  1
  O  O163  1  0.01137806  0.88428291  0.75986535  1
  O  O164  1  0.50421914  0.36744332  0.23285330  1
  O  O165  1  0.51530182  0.38229276  0.75708798  1
  O  O166  1  0.46982409  0.96022114  0.29377312  1
  O  O167  1  0.49013581  0.88944549  0.75083997  1
  O  O168  1  0.52695092  0.11543428  0.22860517  1
  O  O169  1  0.49056416  0.10142506  0.75053916  1
  O  O170  1  0.47784259  0.65317356  0.24915256  1
  O  O171  1  0.49894656  0.62271817  0.74350773  1
  O  O172  1  0.99403458  0.13299622  0.23047842  1
  O  O173  1  0.99760794  0.13646974  0.75134563  1
  O  O174  1  0.99898457  0.63123482  0.23485779  1
  O  O175  1  0.98225704  0.60589069  0.76767970  1
  O  O176  1  0.40156229  0.26637735  0.00420347  1
  O  O177  1  0.36562829  0.22428989  0.50615479  1
  O  O178  1  0.39222523  0.77817364  0.00606442  1
  O  O179  1  0.35477948  0.76178035  0.49385603  1
  O  O180  1  0.87431237  0.28876282  -0.03738721  1
  O  O181  1  0.88822503  0.25278479  0.51648893  1
  O  O182  1  0.83088651  0.75557221  -0.06201843  1
  O  O183  1  0.86748277  0.73941051  0.51931500  1
  O  O184  1  0.13753678  0.23063305  0.50714560  1
  O  O185  1  0.13411359  0.19696838  1.03407324  1
  O  O186  1  0.12023124  0.73981451  0.48806832  1
  O  O187  1  0.12667311  0.72944961  1.00009168  1
  O  O188  1  0.63672950  0.23891263  0.51456058  1
  O  O189  1  0.60956389  0.23301654  0.97082077  1
  O  O190  1  0.64023274  0.76265662  0.49787284  1
  O  O191  1  0.65777376  0.73626859  0.98952928  1
  O  O192  1  0.49707723  0.23845034  0.12546770  1
  O  O193  1  0.49196051  0.23888349  0.59662037  1
  O  O194  1  0.44423506  0.85961521  0.15855391  1
  O  O195  1  0.48552390  0.74273661  0.62643312  1
  O  O196  1  0.99865384  0.22899013  0.12500179  1
  O  O197  1  0.99635557  0.24564993  0.64407364  1
  O  O198  1  0.99545717  0.72814851  0.12900765  1
  O  O199  1  0.98869696  0.73971236  0.62591630  1
  O  O200  1  -0.02003909  0.24943277  0.34162731  1
  O  O201  1  0.01298508  0.25875385  0.87173735  1
  O  O202  1  -0.00526493  0.74855463  0.36256638  1
  O  O203  1  0.01592203  0.73478843  0.88679624  1
  O  O204  1  0.48791660  0.23033821  0.33932180  1
  O  O205  1  0.50445856  0.23986451  0.85569287  1
  O  O206  1  0.52402865  0.74437430  0.38931079  1
  O  O207  1  0.50975393  0.77444183  0.86542040  1
  O  O208  1  0.23264873  0.11998775  0.48761208  1
  O  O209  1  0.27273275  0.12251009  0.97519771  1
  O  O210  1  0.23334751  0.64885170  0.50754445  1
  O  O211  1  0.25819545  0.62210515  1.01321608  1
  O  O212  1  0.74889347  0.12893416  0.49657143  1
  O  O213  1  0.73370769  0.12255130  0.98263536  1
  O  O214  1  0.74393534  0.63334546  0.51929315  1
  O  O215  1  0.75509379  0.60987110  0.99024865  1
  O  O216  1  0.25991086  0.36576752  -0.01699556  1
  O  O217  1  0.24904289  0.34726439  0.49618232  1
  O  O218  1  0.26115341  0.87908871  -0.00871561  1
  O  O219  1  0.22741122  0.85699787  0.49820245  1
  O  O220  1  0.71325648  0.34436436  0.03287939  1
  O  O221  1  0.84940421  0.42131923  0.48293367  1
  O  O222  1  0.72509183  0.87341025  0.00929197  1
  O  O223  1  0.76159561  0.86580861  0.50194199  1
  O  O224  1  0.11907728  0.49826000  0.23145518  1
  O  O225  1  0.13715595  0.49350657  0.75290004  1
  O  O226  1  0.09942505  0.97909653  0.24186511  1
  O  O227  1  0.12648522  0.98634115  0.75821832  1
  O  O228  1  0.59186140  0.51723019  0.23886045  1
  O  O229  1  0.64056225  0.48445082  0.74977329  1
  O  O230  1  0.63724421  0.97103548  0.25445195  1
  O  O231  1  0.64896212  1.00534572  0.72975969  1
  O  O232  1  0.30991075  -0.00295426  0.20558690  1
  O  O233  1  0.35763763  0.00580009  0.74046157  1
  O  O234  1  0.38606436  0.53799057  0.25077218  1
  O  O235  1  0.33445903  0.45990936  0.73949449  1
  O  O236  1  0.86249461  -0.00178707  0.24470808  1
  O  O237  1  0.87587957  0.01569766  0.76657096  1
  O  O238  1  0.91249153  0.49674065  0.23983991  1
  O  O239  1  0.86333475  0.49977169  0.74068144  1
  O  O240  1  0.04436048  0.37804090  0.41623553  1
  O  O241  1  0.12723105  0.37624076  0.87936069  1
  O  O242  1  0.10099121  0.86251227  0.36278574  1
  O  O243  1  0.12119837  0.85653133  0.89616922  1
  O  O244  1  0.58352610  0.35325796  0.37701570  1
  O  O245  1  0.61059893  0.35916606  0.86813157  1
  O  O246  1  0.63804414  0.86188579  0.36400200  1
  O  O247  1  0.60923649  0.90055055  0.85580888  1
  O  O248  1  0.39115101  0.13668297  0.11926786  1
  O  O249  1  0.37447616  0.12178005  0.63421323  1
  O  O250  1  0.37156998  0.64779766  0.14530701  1
  O  O251  1  0.37657201  0.64974413  0.63113439  1
  O  O252  1  0.85642514  0.14223182  0.12345651  1
  O  O253  1  0.88771817  0.13831611  0.63653809  1
  O  O254  1  0.88237858  0.61132880  0.12356946  1
  O  O255  1  0.87364088  0.62675581  0.64385346  1
  O  O256  1  0.26259204  0.25715239  0.11782527  1
  O  O257  1  0.26345059  0.23385359  0.60860484  1
  O  O258  1  0.26376860  0.74958229  0.14859024  1
  O  O259  1  0.25777190  0.75393157  0.61877265  1
  O  O260  1  0.69260004  0.29511118  0.15775105  1
  O  O261  1  0.77331861  0.24895858  0.63439909  1
  O  O262  1  0.77449918  0.74774458  0.10550032  1
  O  O263  1  0.75674866  0.75068951  0.62132986  1
  O  O264  1  0.25725808  0.23122230  0.39081832  1
  O  O265  1  0.24958515  0.23445852  0.85664579  1
  O  O266  1  0.22515110  0.75344887  0.38057240  1
  O  O267  1  0.23286518  0.73549212  0.87438497  1
  O  O268  1  0.75795900  0.25664814  0.38172168  1
  O  O269  1  0.74124874  0.23949117  0.86997652  1
  O  O270  1  0.75236254  0.73675161  0.40391253  1
  O  O271  1  0.68951696  0.76323413  0.82205616  1
  O  O272  1  -0.01514614  0.12035947  0.01583451  1
  O  O273  1  0.00746702  0.13556728  0.51668262  1
  O  O274  1  -0.01085363  0.60924993  0.00479942  1
  O  O275  1  0.01001249  0.62676908  0.49468690  1
  O  O276  1  0.50548987  0.11579096  -0.00698501  1
  O  O277  1  0.54149097  0.11514417  0.45802503  1
  O  O278  1  0.52177577  0.64371452  -0.01387069  1
  O  O279  1  0.48623413  0.61905411  0.51743009  1
  O  O280  1  0.42988232  0.37694447  0.40898526  1
  O  O281  1  0.50675250  0.38721125  0.97674511  1
  O  O282  1  0.49031035  0.87180059  0.49334492  1
  O  O283  1  0.52160741  0.89090183  1.00061724  1
  O  O284  1  1.02358837  0.38342053  0.49003258  1
  O  O285  1  1.01417094  0.38305267  0.99479234  1
  O  O286  1  0.99655942  0.86673808  0.48280086  1
  O  O287  1  0.98241465  0.89353085  1.02883848  1
  O  O288  1  0.51171682  0.52331871  0.40335448  1
  O  O289  1  0.49927596  0.49745985  0.86503038  1
  O  O290  1  0.50025225  0.99554905  0.35117612  1
  O  O291  1  0.49369251  0.99501335  0.88612777  1
  O  O292  1  1.03493884  0.45143121  0.37461613  1
  O  O293  1  1.00644391  0.48344054  0.88956116  1
  O  O294  1  0.98166687  0.97944914  0.36402478  1
  O  O295  1  0.98481877  1.01690576  0.89308538  1
  O  O296  1  -0.01802210  0.02276560  0.11727403  1
  O  O297  1  -0.01058249  0.02008954  0.63289153  1
  O  O298  1  0.01964035  0.50713655  0.10825879  1
  O  O299  1  0.03435503  0.48891909  0.62789461  1
  O  O300  1  0.50581509  0.02163950  0.10533865  1
  O  O301  1  0.51284422  0.00075990  0.61871510  1
  O  O302  1  0.44959334  0.52525541  0.11004493  1
  O  O303  1  0.47735303  0.52137906  0.62186222  1
  O  O304  1  0.24904032  0.36211061  0.23377576  1
  O  O305  1  0.28612933  0.40574029  0.75294285  1
  O  O306  1  0.22335626  0.87654874  0.25714988  1
  O  O307  1  0.23308755  0.88830769  0.75917494  1
  O  O308  1  0.74292192  0.44884696  0.28757355  1
  O  O309  1  0.74269225  0.38258495  0.75329713  1
  O  O310  1  0.75840070  0.87394375  0.24227786  1
  O  O311  1  0.76729557  0.88992778  0.76251648  1
  O  O312  1  0.25140523  0.12391179  0.27098303  1
  O  O313  1  0.24614345  0.11143362  0.75772378  1
  O  O314  1  0.26835680  0.62648881  0.25177316  1
  O  O315  1  0.25109614  0.62976718  0.74499224  1
  O  O316  1  0.71906664  0.10573805  0.25344030  1
  O  O317  1  0.76127875  0.12228150  0.76045899  1
  O  O318  1  0.74034033  0.60238690  0.24749863  1
  O  O319  1  0.75060890  0.59442787  0.75630065  1
  O  O320  1  0.36672411  0.09858494  0.38393979  1
  O  O321  1  0.36646358  0.12783039  0.84805763  1
  O  O322  1  0.37518218  0.64260615  0.35602503  1
  O  O323  1  0.36417688  0.64882857  0.86748722  1
  O  O324  1  0.88665108  0.10621135  0.37442472  1
  O  O325  1  0.86411524  0.13104564  0.87331964  1
  O  O326  1  0.83989870  0.60089067  0.39117312  1
  O  O327  1  0.85430975  0.61494224  0.86187739  1
  O  O328  1  0.14298508  0.38723150  0.11002080  1
  O  O329  1  0.13550575  0.36816442  0.64148672  1
  O  O330  1  0.12079686  0.85896044  0.13785510  1
  O  O331  1  0.11394170  0.86642201  0.63848735  1
  O  O332  1  0.65981858  0.32742965  0.09011392  1
  O  O333  1  0.62263247  0.36512476  0.64008751  1
  O  O334  1  0.60515364  0.85140927  0.15926088  1
  O  O335  1  0.62522518  0.88996230  0.62219153  1
  O  O336  1  0.12096499  0.23850941  0.25974021  1
  O  O337  1  0.11627039  0.24704093  0.74722575  1
  O  O338  1  0.11107394  0.75054762  0.25929374  1
  O  O339  1  0.12263589  0.76819804  0.76815069  1
  O  O340  1  0.71935261  0.27608639  0.32373796  1
  O  O341  1  0.63277316  0.25962945  0.75570224  1
  O  O342  1  0.65453713  0.75278015  0.26925339  1
  O  O343  1  0.65148905  0.75458070  0.75929954  1
  O  O344  1  0.37731840  0.25641416  0.22649993  1
  O  O345  1  0.38407056  0.22826377  0.72742589  1
  O  O346  1  0.36212763  0.74701253  0.25769508  1
  O  O347  1  0.36709675  0.76968902  0.74202359  1
  O  O348  1  0.84425294  0.32272452  0.20540057  1
  O  O349  1  0.88679012  0.24265632  0.75373332  1
  O  O350  1  0.87999251  0.74113876  0.25137127  1
  O  O351  1  0.86856073  0.72694713  0.74659399  1
  O  O352  1  0.36848755  0.50190129  0.49939005  1
  O  O353  1  0.37021048  0.47513553  0.99063532  1
  O  O354  1  0.36827262  0.98171756  0.51476830  1
  O  O355  1  0.39356947  0.97726091  1.01105230  1
  O  O356  1  0.89359821  0.48552698  0.50644607  1
  O  O357  1  0.88980312  0.48385914  1.00834818  1
  O  O358  1  0.86832056  0.99795565  0.48587776  1
  O  O359  1  0.87336335  1.00400294  0.98824526  1
  O  O360  1  0.09901492  -0.00597193  -0.00143883  1
  O  O361  1  0.11710830  0.01269468  0.50155970  1
  O  O362  1  0.13164746  0.51744743  0.00625755  1
  O  O363  1  0.13697886  0.52879946  0.48642769  1
  O  O364  1  0.61657019  0.01782710  -0.01374675  1
  O  O365  1  0.64334742  0.00718167  0.51507463  1
  O  O366  1  0.61755917  0.51513218  0.00265462  1
  O  O367  1  0.53027369  0.42422563  0.51749129  1
  O  O368  1  0.36003717  0.36557127  0.10589800  1
  O  O369  1  0.38253458  0.34604620  0.62320343  1
  O  O370  1  0.37716241  0.87666307  0.13201392  1
  O  O371  1  0.37740721  0.85844969  0.60669008  1
  O  O372  1  0.84596003  0.34624664  0.13705002  1
  O  O373  1  0.88761234  0.36151822  0.63559863  1
  O  O374  1  0.91941498  0.87733564  0.07995454  1
  O  O375  1  0.88238194  0.85170886  0.64280173  1
  O  O376  1  0.10180941  0.11997124  0.38637584  1
  O  O377  1  0.13588939  0.12523422  0.88157748  1
  O  O378  1  0.12000997  0.63367721  0.36736979  1
  O  O379  1  0.13934187  0.62816798  0.89058419  1
  O  O380  1  0.60585554  0.12699124  0.40389251  1
  O  O381  1  0.63285237  0.13002814  0.86654531  1
  O  O382  1  0.64017279  0.64438063  0.37760942  1
  O  O383  1  0.65182931  0.61530403  0.87967615  1
