# generated using pymatgen
data_VZnO4
_symmetry_space_group_name_H-M   'P 1'
_cell_length_a   16.89474826
_cell_length_b   16.94103896
_cell_length_c   16.95081110
_cell_angle_alpha   90.10895588
_cell_angle_beta   90.01085028
_cell_angle_gamma   89.92397300
_symmetry_Int_Tables_number   1
_chemical_formula_structural   VZnO4
_chemical_formula_sum   'V64 Zn64 O256'
_cell_volume   4851.55629707
_cell_formula_units_Z   64
loop_
 _symmetry_equiv_pos_site_id
 _symmetry_equiv_pos_as_xyz
  1  'x, y, z'
loop_
 _atom_site_type_symbol
 _atom_site_label
 _atom_site_symmetry_multiplicity
 _atom_site_fract_x
 _atom_site_fract_y
 _atom_site_fract_z
 _atom_site_occupancy
  V  V0  1  0.88271468  0.36496419  0.00836708  1
  V  V1  1  -0.01003813  0.12659033  0.11604231  1
  V  V2  1  -0.00918719  0.86586428  0.36938292  1
  V  V3  1  0.13057811  0.22899177  0.88027780  1
  V  V4  1  0.12253299  0.62358323  0.49354714  1
  V  V5  1  0.12251684  0.86529005  0.23799899  1
  V  V6  1  0.19310495  0.60603727  0.85176559  1
  V  V7  1  0.87036233  0.12705149  0.75064346  1
  V  V8  1  0.62559225  0.26090835  0.37165594  1
  V  V9  1  -0.00408995  0.00304757  0.48743463  1
  V  V10  1  0.37830659  0.26666337  0.14104424  1
  V  V11  1  0.23316045  0.76126728  -0.03176827  1
  V  V12  1  0.73506910  0.24876205  -0.00482328  1
  V  V13  1  0.25518873  0.00897180  0.75945516  1
  V  V14  1  0.49494575  0.12596739  0.62497952  1
  V  V15  1  0.63575083  0.63776266  0.00029367  1
  V  V16  1  0.11836799  0.25064190  0.35099234  1
  V  V17  1  -0.00193850  0.36259091  0.86792367  1
  V  V18  1  0.26590319  0.12449292  0.36118036  1
  V  V19  1  0.50803881  0.25021535  0.76806710  1
  V  V20  1  0.61995581  0.50171552  0.12557781  1
  V  V21  1  0.61696781  0.83891294  0.28349905  1
  V  V22  1  0.87561599  0.51422894  0.38504692  1
  V  V23  1  0.12213888  0.39891184  0.23398864  1
  V  V24  1  0.13082086  0.00625069  0.61576352  1
  V  V25  1  0.60305616  0.38871989  0.25694408  1
  V  V26  1  -0.00696657  0.87554592  0.89630969  1
  V  V27  1  0.38620987  0.86599670  0.49467281  1
  V  V28  1  0.25476126  0.87365007  0.61979471  1
  V  V29  1  0.87588093  0.25762173  0.62145037  1
  V  V30  1  0.37692281  0.12231138  0.77465045  1
  V  V31  1  0.49188066  0.13087855  0.14818366  1
  V  V32  1  -0.01385873  0.61598714  0.14303422  1
  V  V33  1  0.62654309  0.76128595  0.87593570  1
  V  V34  1  0.68752207  0.70151577  0.50219482  1
  V  V35  1  0.14432207  0.36836551  0.74664174  1
  V  V36  1  -0.00278000  0.12243902  0.62539920  1
  V  V37  1  0.36547819  0.36883718  0.50503277  1
  V  V38  1  0.76115110  0.37171441  0.13895420  1
  V  V39  1  0.15431611  0.75046310  0.37265210  1
  V  V40  1  0.00714598  0.50115698  0.00213862  1
  V  V41  1  0.76313615  0.89182785  0.11869880  1
  V  V42  1  0.37223649  0.38543457  -0.01881723  1
  V  V43  1  0.37212053  0.72387993  0.10253000  1
  V  V44  1  0.39459681  0.76240531  0.65776145  1
  V  V45  1  0.51732951  0.48572667  -0.03044779  1
  V  V46  1  0.63435617  -0.00298426  0.62830879  1
  V  V47  1  0.11817375  0.00407130  0.11334924  1
  V  V48  1  0.12896748  0.13667758  0.48883736  1
  V  V49  1  0.87625568  0.00765703  0.89178927  1
  V  V50  1  0.40181218  0.60738631  0.75919607  1
  V  V51  1  0.61603055  0.88124653  0.76293037  1
  V  V52  1  0.85869483  0.14455666  0.26448266  1
  V  V53  1  0.61341812  0.10697475  0.01011888  1
  V  V54  1  0.11463140  0.88275463  0.75264976  1
  V  V55  1  0.25579480  0.22515007  0.00317399  1
  V  V56  1  -0.00262586  0.38181132  0.38500051  1
  V  V57  1  0.26055778  0.87236274  0.11022119  1
  V  V58  1  0.77269064  0.62868704  0.86126646  1
  V  V59  1  0.86671461  0.87112846  0.50772637  1
  V  V60  1  0.75284184  0.27520150  0.50586317  1
  V  V61  1  0.75998636  -0.00640804  0.75368943  1
  V  V62  1  0.49224168  -0.00201091  0.49110084  1
  V  V63  1  0.64368044  0.11961182  0.49738176  1
  Zn  Zn64  1  0.19770445  0.18377998  0.18025596  1
  Zn  Zn65  1  0.17048585  0.21532079  0.67385809  1
  Zn  Zn66  1  0.17222116  0.69570554  0.16747287  1
  Zn  Zn67  1  0.09960296  0.70651985  0.66339943  1
  Zn  Zn68  1  0.68159098  0.19260160  0.18466867  1
  Zn  Zn69  1  0.69048965  0.19006263  0.68065363  1
  Zn  Zn70  1  0.67472525  0.68883490  0.19256359  1
  Zn  Zn71  1  0.78080297  0.72222694  0.68215935  1
  Zn  Zn72  1  0.29345208  0.33010576  0.31494482  1
  Zn  Zn73  1  0.31503121  0.29800661  0.81572818  1
  Zn  Zn74  1  0.32959974  0.81835740  0.28675790  1
  Zn  Zn75  1  0.25402424  0.75955735  0.76539210  1
  Zn  Zn76  1  0.81808336  0.31145819  0.31895498  1
  Zn  Zn77  1  0.82079088  0.29305263  0.82484436  1
  Zn  Zn78  1  0.78814302  0.80997816  0.35151095  1
  Zn  Zn79  1  0.81593748  0.81585726  0.83099207  1
  Zn  Zn80  1  0.19335718  0.43683382  0.42566497  1
  Zn  Zn81  1  0.17838328  0.42751406  0.93647143  1
  Zn  Zn82  1  0.19566036  0.94021197  0.43344711  1
  Zn  Zn83  1  0.18199120  0.94555851  0.93497216  1
  Zn  Zn84  1  0.68739063  0.44727733  0.44011478  1
  Zn  Zn85  1  0.72241797  0.45800195  0.94833902  1
  Zn  Zn86  1  0.67170785  0.92575548  0.43455817  1
  Zn  Zn87  1  0.69644938  0.94599742  0.94555598  1
  Zn  Zn88  1  0.26309367  -0.00155644  0.24622330  1
  Zn  Zn89  1  0.28880360  0.11110871  0.58324792  1
  Zn  Zn90  1  0.35112501  0.60175072  -0.03107218  1
  Zn  Zn91  1  0.25691232  0.60204237  0.64702766  1
  Zn  Zn92  1  0.79987321  0.07289110  0.08269638  1
  Zn  Zn93  1  0.81940198  0.05219890  0.56590709  1
  Zn  Zn94  1  0.81907556  0.55784635  0.06193602  1
  Zn  Zn95  1  0.80454368  0.55415854  0.53840750  1
  Zn  Zn96  1  0.42178485  0.45185325  0.17150256  1
  Zn  Zn97  1  0.43881099  0.42654847  0.68895583  1
  Zn  Zn98  1  0.44552770  0.94895703  0.21768335  1
  Zn  Zn99  1  0.44287676  0.94792819  0.68880831  1
  Zn  Zn100  1  0.94277975  0.43604637  0.20058803  1
  Zn  Zn101  1  0.92430513  0.43685467  0.69572336  1
  Zn  Zn102  1  0.93753807  0.94289494  0.18937091  1
  Zn  Zn103  1  0.93831752  0.82026673  0.67518680  1
  Zn  Zn104  1  0.07413209  0.05131750  0.30719952  1
  Zn  Zn105  1  0.05536780  0.05772438  0.81128695  1
  Zn  Zn106  1  0.06279600  0.56597122  0.31808392  1
  Zn  Zn107  1  0.03734459  0.52865993  0.79171322  1
  Zn  Zn108  1  0.55810888  0.08025450  0.32147139  1
  Zn  Zn109  1  0.59770370  0.10441098  0.80151683  1
  Zn  Zn110  1  0.75798896  0.50503300  0.25917682  1
  Zn  Zn111  1  0.57537888  0.57540652  0.82042806  1
  Zn  Zn112  1  0.44028522  0.18979405  0.43865595  1
  Zn  Zn113  1  0.44250375  0.18839644  0.95241362  1
  Zn  Zn114  1  0.47421759  0.69539979  0.47367082  1
  Zn  Zn115  1  0.41060538  0.75074869  0.88525794  1
  Zn  Zn116  1  0.93603817  0.19373903  0.43202528  1
  Zn  Zn117  1  0.93543004  0.18934239  0.94497608  1
  Zn  Zn118  1  0.94520222  0.69160325  0.44972523  1
  Zn  Zn119  1  0.98546645  0.66768476  0.89020084  1
  Zn  Zn120  1  0.07053094  0.30037082  0.06824291  1
  Zn  Zn121  1  0.05855410  0.31474473  0.56273324  1
  Zn  Zn122  1  0.06155647  0.78794946  0.05785820  1
  Zn  Zn123  1  0.07209101  0.81635919  0.54197426  1
  Zn  Zn124  1  0.56073102  0.31724087  0.06807324  1
  Zn  Zn125  1  0.54559210  0.29196690  0.53894646  1
  Zn  Zn126  1  0.53981062  0.82188946  0.12316020  1
  Zn  Zn127  1  0.56602583  0.81438424  0.57834835  1
  O  O128  1  0.11952828  0.10556264  0.13699375  1
  O  O129  1  0.11611674  0.12599934  0.60883007  1
  O  O130  1  0.06312491  0.68707144  0.11589587  1
  O  O131  1  0.15804954  0.63637283  0.59742316  1
  O  O132  1  0.60376161  0.14249519  0.12151023  1
  O  O133  1  0.62375701  0.11542068  0.61291001  1
  O  O134  1  0.63714353  0.61011528  0.11379953  1
  O  O135  1  0.65547391  0.58825141  0.67069178  1
  O  O136  1  0.37338074  0.33835483  0.40166995  1
  O  O137  1  0.38047972  0.36568552  0.88345467  1
  O  O138  1  0.38368838  0.84564019  0.39970097  1
  O  O139  1  0.38234199  0.88657952  0.89773235  1
  O  O140  1  0.89552406  0.36761270  0.38236551  1
  O  O141  1  0.88845391  0.35775738  0.89126849  1
  O  O142  1  0.88862549  0.87031031  0.37258276  1
  O  O143  1  0.88181089  0.89514256  0.88547205  1
  O  O144  1  0.24369444  0.02079151  0.36973856  1
  O  O145  1  0.24668271  -0.00558088  0.85673036  1
  O  O146  1  0.28117863  0.44061576  0.35410585  1
  O  O147  1  0.21190477  0.51005350  0.85982570  1
  O  O148  1  0.70849358  0.00980174  0.34510039  1
  O  O149  1  0.76422784  0.00420171  0.86457336  1
  O  O150  1  0.76486539  0.49766081  0.37723256  1
  O  O151  1  0.75307651  0.52531304  0.86653706  1
  O  O152  1  0.28316446  0.55269626  0.19074744  1
  O  O153  1  0.26885718  0.49680399  0.62104534  1
  O  O154  1  0.23084228  0.97468661  0.12589826  1
  O  O155  1  0.24039152  1.01090966  0.62561183  1
  O  O156  1  0.74400106  0.48315714  0.12473380  1
  O  O157  1  0.73898640  0.44404061  0.66210384  1
  O  O158  1  0.74779600  0.98963285  0.14085403  1
  O  O159  1  0.74366280  1.00388937  0.63801771  1
  O  O160  1  0.01578942  0.37877629  0.26888258  1
  O  O161  1  -0.01175153  0.36301272  0.76840164  1
  O  O162  1  0.01006563  0.87939617  0.26474643  1
  O  O163  1  0.01842507  0.88982461  0.72959202  1
  O  O164  1  0.50557925  0.39964131  0.25219459  1
  O  O165  1  0.50080963  0.34649689  0.74121311  1
  O  O166  1  0.53818362  0.88247480  0.22181168  1
  O  O167  1  0.51778620  0.90055872  0.76463975  1
  O  O168  1  0.50823130  0.14599079  0.24913438  1
  O  O169  1  0.48994245  0.11817610  0.74144312  1
  O  O170  1  0.44180861  0.64288773  0.30626388  1
  O  O171  1  0.50059821  0.62052321  0.74941815  1
  O  O172  1  0.98235766  0.09822022  0.24763370  1
  O  O173  1  0.98862193  0.11514866  0.73290507  1
  O  O174  1  0.99134974  0.61740409  0.24216250  1
  O  O175  1  0.93926220  0.53561190  0.73600556  1
  O  O176  1  0.36357067  0.26264591  -0.00184704  1
  O  O177  1  0.37746211  0.25931581  0.51067353  1
  O  O178  1  0.34839597  0.74674649  -0.01342539  1
  O  O179  1  0.39889439  0.76421223  0.53215346  1
  O  O180  1  0.86371455  0.25849727  0.00804197  1
  O  O181  1  0.86075358  0.24784231  0.50982410  1
  O  O182  1  0.84857504  0.75340128  -0.00331189  1
  O  O183  1  0.87876883  0.77071854  0.49948512  1
  O  O184  1  0.12085589  0.23638316  0.49476596  1
  O  O185  1  0.14608109  0.25289992  0.99498626  1
  O  O186  1  0.14267633  0.74476836  0.48103138  1
  O  O187  1  0.13247531  0.74972053  0.97533661  1
  O  O188  1  0.64487541  0.24041868  0.51219144  1
  O  O189  1  0.63557229  0.26846464  0.99683561  1
  O  O190  1  0.58100291  0.72399030  0.50780236  1
  O  O191  1  0.62777839  0.73788706  0.99681699  1
  O  O192  1  0.48646112  0.25716652  0.12819401  1
  O  O193  1  0.51005989  0.22858584  0.62852687  1
  O  O194  1  0.47298189  0.74161315  0.09038516  1
  O  O195  1  0.49318521  0.76516965  0.65695343  1
  O  O196  1  1.01421809  0.22303354  0.13126791  1
  O  O197  1  0.98350130  0.23313458  0.60784303  1
  O  O198  1  0.89743184  0.76815776  0.04792179  1
  O  O199  1  1.01249073  0.75711780  0.61689832  1
  O  O200  1  0.01366266  0.26016359  0.38010725  1
  O  O201  1  0.01694127  0.25622107  0.89479151  1
  O  O202  1  0.00886675  0.76691648  0.38370733  1
  O  O203  1  -0.01114650  0.77948915  0.86560850  1
  O  O204  1  0.52897516  0.25807163  0.40729524  1
  O  O205  1  0.50059981  0.24452163  0.86725377  1
  O  O206  1  0.45441083  0.70274622  0.34821310  1
  O  O207  1  0.52537939  0.75712185  0.88167292  1
  O  O208  1  0.23270672  0.12285764  0.48208212  1
  O  O209  1  0.26053386  0.13013554  1.00210527  1
  O  O210  1  0.29898409  0.62540789  0.49265402  1
  O  O211  1  0.23743291  0.64350342  0.93962645  1
  O  O212  1  0.74318402  0.11647843  0.50256706  1
  O  O213  1  0.72686606  0.14430523  1.02571147  1
  O  O214  1  0.70927619  0.60136389  0.50719429  1
  O  O215  1  0.73915326  0.61289258  0.99471896  1
  O  O216  1  0.27227020  0.39942704  -0.00810204  1
  O  O217  1  0.26181766  0.36598413  0.50321776  1
  O  O218  1  0.23352505  0.87081366  0.00496955  1
  O  O219  1  0.27185950  0.88576075  0.51209899  1
  O  O220  1  0.76395004  0.36852510  0.00723359  1
  O  O221  1  0.74415931  0.37255453  0.51449578  1
  O  O222  1  0.76677555  0.89093273  0.01755949  1
  O  O223  1  0.76978323  0.89292779  0.47823108  1
  O  O224  1  0.12943478  0.49808634  0.25425142  1
  O  O225  1  0.11482103  0.46445117  0.73458387  1
  O  O226  1  0.13509201  0.97664767  0.24373563  1
  O  O227  1  0.13381665  1.00244036  0.73723256  1
  O  O228  1  0.63640336  0.49239260  0.24060416  1
  O  O229  1  0.64502448  0.53634975  0.72135620  1
  O  O230  1  0.65794446  1.01473309  0.28894476  1
  O  O231  1  0.64023165  1.00623148  0.74917784  1
  O  O232  1  0.35248398  -0.06851551  0.26918445  1
  O  O233  1  0.36409335  0.00956807  0.74620115  1
  O  O234  1  0.35034154  0.53097650  0.22842495  1
  O  O235  1  0.38672339  0.50897118  0.74735727  1
  O  O236  1  0.91926316  0.03975536  0.25944804  1
  O  O237  1  0.86493571  0.01023881  0.75246768  1
  O  O238  1  0.87409649  0.49231440  0.27316835  1
  O  O239  1  0.79247561  0.49463902  0.65040794  1
  O  O240  1  0.12476019  0.36064951  0.36457977  1
  O  O241  1  0.11548226  0.36165043  0.86343263  1
  O  O242  1  0.13115615  0.86412354  0.36710723  1
  O  O243  1  0.10348824  0.89592330  0.85854471  1
  O  O244  1  0.62639891  0.37721787  0.36628159  1
  O  O245  1  0.67311517  0.38299614  0.82481048  1
  O  O246  1  0.59581051  0.86078189  0.38041874  1
  O  O247  1  0.63694255  0.87481428  0.87434803  1
  O  O248  1  0.38719474  0.15714655  0.13557190  1
  O  O249  1  0.39614274  0.11130231  0.61870259  1
  O  O250  1  0.36063928  0.62482363  0.08337372  1
  O  O251  1  0.36731169  0.65387215  0.66147027  1
  O  O252  1  0.88587308  0.12408144  0.13800451  1
  O  O253  1  0.87987231  0.12700348  0.63218437  1
  O  O254  1  0.88901639  0.63329284  0.11653587  1
  O  O255  1  0.87303267  0.62950219  0.61460596  1
  O  O256  1  0.26275907  0.24879273  0.11172204  1
  O  O257  1  0.26843255  0.21152353  0.62715925  1
  O  O258  1  0.24502589  0.75475854  0.09468617  1
  O  O259  1  0.26039988  0.77394178  0.63430335  1
  O  O260  1  0.73986834  0.27177916  0.11822264  1
  O  O261  1  0.76348212  0.24951364  0.61698679  1
  O  O262  1  0.71634598  0.77981585  0.12754295  1
  O  O263  1  0.72611192  0.74244224  0.58733120  1
  O  O264  1  0.22953376  0.23296537  0.36389619  1
  O  O265  1  0.24170526  0.24378801  0.88940921  1
  O  O266  1  0.25227239  0.75336805  0.35810941  1
  O  O267  1  0.24930492  0.79334240  0.87437018  1
  O  O268  1  0.73802382  0.26571795  0.39669785  1
  O  O269  1  0.75352919  0.23908235  0.89659546  1
  O  O270  1  0.72962119  0.73773856  0.41821528  1
  O  O271  1  0.74048818  0.74626491  0.88069048  1
  O  O272  1  -0.00885421  0.12052179  0.01592884  1
  O  O273  1  0.00479380  0.11527905  0.49723450  1
  O  O274  1  -0.00268605  0.60009046  -0.01414025  1
  O  O275  1  0.02327958  0.62222648  0.50100850  1
  O  O276  1  0.50562239  0.12405088  0.02084626  1
  O  O277  1  0.50921028  0.11520685  0.50850628  1
  O  O278  1  0.53778151  0.59409133  -0.01390490  1
  O  O279  1  0.51504432  0.58112470  0.43329134  1
  O  O280  1  0.47290193  0.37410231  0.51256922  1
  O  O281  1  0.49774787  0.38540448  0.99851286  1
  O  O282  1  0.49776530  0.88891223  0.51298583  1
  O  O283  1  0.51016567  0.88732248  1.01208692  1
  O  O284  1  1.02295792  0.38313957  0.48445799  1
  O  O285  1  0.98972435  0.36837998  1.00752315  1
  O  O286  1  0.99401740  0.88736603  0.48927126  1
  O  O287  1  1.00572698  0.86816294  0.99427724  1
  O  O288  1  0.48513984  0.54883087  0.37341119  1
  O  O289  1  0.54111753  0.47957186  0.87260822  1
  O  O290  1  0.50827953  1.00643734  0.39189823  1
  O  O291  1  0.41866839  0.94944881  0.89204946  1
  O  O292  1  0.99146058  0.49132200  0.37587240  1
  O  O293  1  1.00234058  0.46880141  0.89097703  1
  O  O294  1  1.01462037  0.98625755  0.38567478  1
  O  O295  1  0.98416869  0.99373960  0.87553453  1
  O  O296  1  0.01171540  0.00362836  0.12554684  1
  O  O297  1  0.01507216  0.01018193  0.60454003  1
  O  O298  1  -0.00475498  0.51152219  0.11751084  1
  O  O299  1  -0.05982773  0.60453864  0.63694612  1
  O  O300  1  0.48106336  0.02921816  0.14918650  1
  O  O301  1  0.51611335  0.00897932  0.61859075  1
  O  O302  1  0.51905543  0.50174933  0.12754958  1
  O  O303  1  0.52752968  0.48506394  0.62957378  1
  O  O304  1  0.21926057  0.36328087  0.23725660  1
  O  O305  1  0.24419187  0.36733341  0.75768885  1
  O  O306  1  0.22908212  0.85281989  0.21901712  1
  O  O307  1  0.24045629  0.89833909  0.72953557  1
  O  O308  1  0.75295473  0.37313042  0.24234852  1
  O  O309  1  0.72365484  0.35524649  0.77721249  1
  O  O310  1  0.71771251  0.86339763  0.27742147  1
  O  O311  1  0.74271540  0.89325235  0.75591455  1
  O  O312  1  0.25600268  0.11801173  0.25580381  1
  O  O313  1  0.26692643  0.11668824  0.75529253  1
  O  O314  1  0.24654268  0.61245517  0.22647095  1
  O  O315  1  0.24044138  0.63901380  0.76297219  1
  O  O316  1  0.75876785  0.13607057  0.24296571  1
  O  O317  1  0.76432352  0.11887832  0.74535525  1
  O  O318  1  0.83257410  0.66306936  0.26018281  1
  O  O319  1  0.76428499  0.64086073  0.76158331  1
  O  O320  1  0.36409950  0.13558105  0.37784537  1
  O  O321  1  0.38632208  0.11644186  0.87191017  1
  O  O322  1  0.36478989  0.61224886  0.46225841  1
  O  O323  1  0.38442176  0.63520349  0.85989026  1
  O  O324  1  0.86380898  0.13791514  0.36700479  1
  O  O325  1  0.88833637  0.12098404  0.85714661  1
  O  O326  1  0.88316415  0.61472098  0.39206264  1
  O  O327  1  0.87110809  0.64303212  0.88213936  1
  O  O328  1  0.10240009  0.38424490  0.13611795  1
  O  O329  1  0.12615307  0.32711944  0.65051292  1
  O  O330  1  0.10249157  0.86985292  0.13487027  1
  O  O331  1  0.14185916  0.88913913  0.61420681  1
  O  O332  1  0.62849560  0.38128147  0.14529901  1
  O  O333  1  0.58196500  0.44319358  0.58733036  1
  O  O334  1  0.65722721  0.84193048  0.13648727  1
  O  O335  1  0.62304633  0.88846451  0.64607053  1
  O  O336  1  0.11699512  0.23811293  0.25263373  1
  O  O337  1  0.13053359  0.24733717  0.77577111  1
  O  O338  1  0.12190950  0.75722849  0.26057690  1
  O  O339  1  0.13667786  0.78048609  0.74451663  1
  O  O340  1  0.62381914  0.26810526  0.26749928  1
  O  O341  1  0.61051326  0.21540089  0.75634684  1
  O  O342  1  0.60692431  0.73808577  0.26798546  1
  O  O343  1  0.62872035  0.77640306  0.76485453  1
  O  O344  1  0.36778731  0.28339347  0.23851238  1
  O  O345  1  0.38904902  0.22803206  0.75650698  1
  O  O346  1  0.35860856  0.74167397  0.20302658  1
  O  O347  1  0.37384929  0.77294267  0.76032456  1
  O  O348  1  0.87894484  0.24309097  0.25098414  1
  O  O349  1  0.86951031  0.23606014  0.73658255  1
  O  O350  1  0.83020075  0.73903787  0.25577599  1
  O  O351  1  0.86249379  0.77149728  0.73882623  1
  O  O352  1  0.36962444  0.46635110  0.47802316  1
  O  O353  1  0.40629565  0.49644001  0.97739209  1
  O  O354  1  0.39133212  0.98687688  0.49859347  1
  O  O355  1  0.48336060  0.95560411  1.01203559  1
  O  O356  1  0.87563239  0.48764330  0.48635048  1
  O  O357  1  0.88380602  0.47579885  1.00498253  1
  O  O358  1  0.89253193  0.99904439  0.49471591  1
  O  O359  1  0.86166344  1.02722552  0.98638633  1
  O  O360  1  0.12440449  0.00097192  0.01443064  1
  O  O361  1  0.12074573  0.00899269  0.50021880  1
  O  O362  1  0.10615063  0.48463543  0.00521529  1
  O  O363  1  0.15469027  0.52904492  0.47542538  1
  O  O364  1  0.63083763  0.00847596  0.01783468  1
  O  O365  1  0.62450476  0.00722451  0.50641567  1
  O  O366  1  0.62658779  0.47742109  0.01680333  1
  O  O367  1  0.61363373  0.48676131  0.52836195  1
  O  O368  1  0.37946278  0.37186693  0.10362486  1
  O  O369  1  0.36633527  0.37867765  0.60860142  1
  O  O370  1  0.35838302  0.87231075  0.10774782  1
  O  O371  1  0.37038470  0.87593492  0.63103971  1
  O  O372  1  0.86750172  0.37495349  0.12437841  1
  O  O373  1  0.88730362  0.35627687  0.63097608  1
  O  O374  1  0.85835496  0.87340062  0.15550048  1
  O  O375  1  0.87246229  0.88900619  0.60577508  1
  O  O376  1  0.11540522  0.13363370  0.37935519  1
  O  O377  1  0.11562103  0.13037390  0.87805210  1
  O  O378  1  0.12656937  0.64474890  0.37715680  1
  O  O379  1  0.08819635  0.62244006  0.83982877  1
  O  O380  1  0.62903502  0.14480648  0.39292597  1
  O  O381  1  0.61636112  0.11873030  0.90944408  1
  O  O382  1  0.75928288  0.62510721  0.23982378  1
  O  O383  1  0.64236068  0.64387683  0.88058403  1
