# generated using pymatgen
data_VZnO4
_symmetry_space_group_name_H-M   'P 1'
_cell_length_a   16.89931774
_cell_length_b   16.95823164
_cell_length_c   17.12263127
_cell_angle_alpha   89.36886697
_cell_angle_beta   89.32469189
_cell_angle_gamma   90.54076695
_symmetry_Int_Tables_number   1
_chemical_formula_structural   VZnO4
_chemical_formula_sum   'V64 Zn64 O256'
_cell_volume   4906.18408434
_cell_formula_units_Z   64
loop_
 _symmetry_equiv_pos_site_id
 _symmetry_equiv_pos_as_xyz
  1  'x, y, z'
loop_
 _atom_site_type_symbol
 _atom_site_label
 _atom_site_symmetry_multiplicity
 _atom_site_fract_x
 _atom_site_fract_y
 _atom_site_fract_z
 _atom_site_occupancy
  V  V0  1  0.87426643  0.70262717  0.13245979  1
  V  V1  1  0.64218309  0.50538932  0.13167999  1
  V  V2  1  0.52533139  -0.00165780  0.00247657  1
  V  V3  1  0.74974390  0.00725992  0.76078667  1
  V  V4  1  0.62346583  0.00272641  0.62977246  1
  V  V5  1  0.36327428  0.87899028  0.48525719  1
  V  V6  1  0.50149359  0.11420275  0.65605788  1
  V  V7  1  0.76564898  0.87198894  0.63411135  1
  V  V8  1  0.61795711  0.86954394  0.76500414  1
  V  V9  1  -0.01044139  0.62867431  0.62621701  1
  V  V10  1  0.88497985  0.86096794  -0.02090204  1
  V  V11  1  0.12369437  0.50014419  0.61927757  1
  V  V12  1  0.39145718  0.36269872  -0.00833660  1
  V  V13  1  0.61548561  0.62162389  -0.00712935  1
  V  V14  1  0.36522408  0.76267917  0.63286135  1
  V  V15  1  -0.02833101  0.86003542  0.39317513  1
  V  V16  1  0.12915679  -0.00243575  0.62213406  1
  V  V17  1  0.39743439  0.38788624  0.51034226  1
  V  V18  1  0.24848526  0.66011451  0.38258559  1
  V  V19  1  0.13848310  0.64359517  0.50989885  1
  V  V20  1  0.74809787  0.26154062  0.01601864  1
  V  V21  1  0.13123986  0.24362696  0.88467670  1
  V  V22  1  0.62337408  0.27027919  0.87449034  1
  V  V23  1  0.88919463  0.39762704  0.50098401  1
  V  V24  1  0.85344791  0.50982321  0.86127898  1
  V  V25  1  0.88674848  0.49807955  0.35923968  1
  V  V26  1  0.63147396  0.78794861  0.39369077  1
  V  V27  1  0.11714653  0.31502659  0.35446912  1
  V  V28  1  0.88552945  0.38450116  -0.00758190  1
  V  V29  1  0.37688025  0.53956772  0.34723241  1
  V  V30  1  0.25809186  0.37343908  0.62248389  1
  V  V31  1  0.50446789  0.64960624  0.60045884  1
  V  V32  1  0.08101861  -0.02213856  0.11747233  1
  V  V33  1  0.67174604  0.01623666  0.12886429  1
  V  V34  1  0.25373924  0.37202493  0.11430497  1
  V  V35  1  0.12954469  0.87307189  0.74992491  1
  V  V36  1  0.15594386  0.13298275  0.49764323  1
  V  V37  1  0.37904108  0.23941426  0.63411827  1
  V  V38  1  -0.00082205  0.12106585  0.61154381  1
  V  V39  1  0.74987661  0.59916693  0.36093190  1
  V  V40  1  0.87261455  0.12991759  0.75645978  1
  V  V41  1  0.48823225  0.86481948  0.87924031  1
  V  V42  1  -0.01128540  0.02192817  -0.03334975  1
  V  V43  1  0.12088304  0.37312599  0.74905575  1
  V  V44  1  0.35960950  0.00404828  0.89468216  1
  V  V45  1  0.49764547  0.00670407  0.48773451  1
  V  V46  1  0.64324771  0.36307093  0.24108337  1
  V  V47  1  0.10850122  0.59934909  -0.01173211  1
  V  V48  1  0.11754700  0.50345866  0.14203501  1
  V  V49  1  0.50362439  0.27300093  0.75670643  1
  V  V50  1  0.76875803  0.13240612  0.37619778  1
  V  V51  1  0.74860308  0.40772501  0.62243324  1
  V  V52  1  0.86652657  0.25319787  0.61348259  1
  V  V53  1  0.73589437  0.13149266  0.88018527  1
  V  V54  1  0.50266477  0.13967943  0.12203601  1
  V  V55  1  0.25415992  0.62698404  0.87156324  1
  V  V56  1  0.49733098  0.34442977  0.37130366  1
  V  V57  1  0.38941350  0.49529611  0.87164571  1
  V  V58  1  0.74338474  0.74288659  -0.01952912  1
  V  V59  1  0.00012425  0.25242286  0.74759130  1
  V  V60  1  0.12094703  0.74851203  0.87790465  1
  V  V61  1  0.25340234  0.01360190  0.75403583  1
  V  V62  1  0.25553314  0.50411158  0.74842137  1
  V  V63  1  -0.00767452  0.74841589  0.74733959  1
  Zn  Zn64  1  0.22347218  0.25744846  0.22951324  1
  Zn  Zn65  1  0.18799133  0.18801777  0.68229912  1
  Zn  Zn66  1  0.28400548  0.58032427  0.19604357  1
  Zn  Zn67  1  0.19039590  0.69069732  0.69064885  1
  Zn  Zn68  1  0.68053499  0.17313665  0.19036294  1
  Zn  Zn69  1  0.68407423  0.19670790  0.69098264  1
  Zn  Zn70  1  0.69397124  0.67879995  0.18864501  1
  Zn  Zn71  1  0.67734867  0.70231102  0.67663889  1
  Zn  Zn72  1  0.29527161  0.36612807  0.33987860  1
  Zn  Zn73  1  0.31275406  0.31155572  0.81299423  1
  Zn  Zn74  1  0.34580893  0.90498173  0.28270912  1
  Zn  Zn75  1  0.31120070  0.81717880  0.80942812  1
  Zn  Zn76  1  0.83344998  0.32372895  0.30975482  1
  Zn  Zn77  1  0.80610622  0.32765497  0.80326417  1
  Zn  Zn78  1  0.75723747  0.85306008  0.12242637  1
  Zn  Zn79  1  0.80390784  0.80565092  0.80064587  1
  Zn  Zn80  1  0.20450261  0.44621395  0.45064457  1
  Zn  Zn81  1  0.18711785  0.42361518  0.92661491  1
  Zn  Zn82  1  0.16880036  0.92167818  0.44511181  1
  Zn  Zn83  1  0.16664648  0.94560199  0.93167752  1
  Zn  Zn84  1  0.70041586  0.41716494  0.43260409  1
  Zn  Zn85  1  0.68157238  0.44334429  0.94258767  1
  Zn  Zn86  1  0.77009122  0.92035896  0.43194958  1
  Zn  Zn87  1  0.69648351  0.93147285  0.93955872  1
  Zn  Zn88  1  0.36937054  0.00026944  0.10221070  1
  Zn  Zn89  1  0.32177498  0.05513681  0.56979846  1
  Zn  Zn90  1  0.28642635  0.52087047  0.02659047  1
  Zn  Zn91  1  0.32395280  0.57568893  0.56446934  1
  Zn  Zn92  1  0.87352280  -0.00532064  0.10702927  1
  Zn  Zn93  1  0.81135802  0.06107206  0.56931884  1
  Zn  Zn94  1  0.80199505  0.55550862  0.03454297  1
  Zn  Zn95  1  0.65032862  0.53695979  0.58444502  1
  Zn  Zn96  1  0.40273433  0.41219891  0.20257346  1
  Zn  Zn97  1  0.44166903  0.44577824  0.68747651  1
  Zn  Zn98  1  0.38470960  1.09118873  0.23597059  1
  Zn  Zn99  1  0.42904361  0.92616816  0.69467164  1
  Zn  Zn100  1  0.90647405  0.49204994  0.14993249  1
  Zn  Zn101  1  0.93681173  0.43956979  0.68443417  1
  Zn  Zn102  1  0.95761438  0.84137133  0.18079081  1
  Zn  Zn103  1  0.94400828  0.94357358  0.70777406  1
  Zn  Zn104  1  0.11741609  0.06464754  0.29708421  1
  Zn  Zn105  1  0.06787239  0.07346919  0.80263617  1
  Zn  Zn106  1  0.09208059  0.52942430  0.34493320  1
  Zn  Zn107  1  0.05466310  0.56076764  0.80926759  1
  Zn  Zn108  1  0.57457314  0.07039108  0.30258072  1
  Zn  Zn109  1  0.55998044  0.05512721  0.82434386  1
  Zn  Zn110  1  0.57679957  0.50861999  0.33631600  1
  Zn  Zn111  1  0.56840102  0.56826848  0.80062831  1
  Zn  Zn112  1  0.50399570  0.20420576  0.48610893  1
  Zn  Zn113  1  0.44218763  0.17977958  0.93758213  1
  Zn  Zn114  1  0.44958239  0.71535537  0.43136751  1
  Zn  Zn115  1  0.43356497  0.67351020  0.93624974  1
  Zn  Zn116  1  0.99188465  0.15718790  0.39404137  1
  Zn  Zn117  1  0.92949767  0.20988510  0.93171210  1
  Zn  Zn118  1  0.95738295  0.64362001  0.42595001  1
  Zn  Zn119  1  0.93034309  0.67940839  0.92964464  1
  Zn  Zn120  1  0.06352179  0.33390321  0.06029712  1
  Zn  Zn121  1  0.04026960  0.28620000  0.52273806  1
  Zn  Zn122  1  0.05716971  0.78941209  0.05484332  1
  Zn  Zn123  1  0.06080307  0.81220762  0.56980506  1
  Zn  Zn124  1  0.57096184  0.31994031  0.05888845  1
  Zn  Zn125  1  0.59101565  0.33779400  0.55651042  1
  Zn  Zn126  1  0.53367870  0.78048874  0.03940680  1
  Zn  Zn127  1  0.56623548  0.82964538  0.56126810  1
  O  O128  1  0.16947110  0.13527451  0.06539997  1
  O  O129  1  0.11650470  0.11639742  0.62261323  1
  O  O130  1  0.12799233  0.60041590  0.09190437  1
  O  O131  1  0.13881462  0.61346304  0.62042286  1
  O  O132  1  0.61116698  0.11261606  0.11156114  1
  O  O133  1  0.61126711  0.11458921  0.64619820  1
  O  O134  1  0.62295294  0.60996760  0.12826341  1
  O  O135  1  0.61619491  0.63998451  0.61038901  1
  O  O136  1  0.38836832  0.35656655  0.40615404  1
  O  O137  1  0.37069987  0.38772058  0.88065063  1
  O  O138  1  0.37976374  0.88469095  0.38569796  1
  O  O139  1  0.38281842  0.88654130  0.87090189  1
  O  O140  1  0.88550987  0.38916425  0.38882977  1
  O  O141  1  0.86045328  0.38416390  0.88152570  1
  O  O142  1  0.86783016  0.86280844  0.39648377  1
  O  O143  1  0.86830533  0.86283654  0.88181718  1
  O  O144  1  0.19307074  -0.02551018  0.33973483  1
  O  O145  1  0.25097943  -0.00642426  0.86743554  1
  O  O146  1  0.29384080  0.48230805  0.38015467  1
  O  O147  1  0.25330263  0.50314973  0.85895991  1
  O  O148  1  0.77352233  0.03201316  0.35686062  1
  O  O149  1  0.74316100  0.01998066  0.87194251  1
  O  O150  1  0.77093282  0.49382238  0.37474646  1
  O  O151  1  0.75144773  0.49764040  0.87161726  1
  O  O152  1  0.24526046  0.49989288  0.12867657  1
  O  O153  1  0.25175205  0.49779664  0.63633030  1
  O  O154  1  0.20964304  0.94046374  0.08923971  1
  O  O155  1  0.23716485  1.00574494  0.64126245  1
  O  O156  1  0.74043147  0.50076687  0.12165468  1
  O  O157  1  0.76607911  0.50489166  0.62360997  1
  O  O158  1  0.66569739  0.91449202  0.14191124  1
  O  O159  1  0.73667378  1.00378536  0.64076563  1
  O  O160  1  -0.03790865  0.31033041  0.19536307  1
  O  O161  1  0.01669884  0.36635103  0.72790260  1
  O  O162  1  -0.02379843  0.85953374  0.29101326  1
  O  O163  1  0.01368650  0.86005884  0.74777779  1
  O  O164  1  0.47594259  0.36471296  0.27433153  1
  O  O165  1  0.50928082  0.37124124  0.74219043  1
  O  O166  1  0.51983269  0.92857539  0.26568372  1
  O  O167  1  0.50955330  0.88656789  0.76932818  1
  O  O168  1  0.50145792  0.11725967  0.22787060  1
  O  O169  1  0.49214973  0.11922513  0.75574991  1
  O  O170  1  0.45785282  0.55265949  0.10829746  1
  O  O171  1  0.50106912  0.59569011  0.71052010  1
  O  O172  1  1.01058657  0.09268934  0.30850810  1
  O  O173  1  0.99050358  0.13410382  0.73964093  1
  O  O174  1  1.06774245  0.68734847  0.24849293  1
  O  O175  1  1.01182116  0.63807349  0.73528744  1
  O  O176  1  0.37894523  0.26413023  -0.01834096  1
  O  O177  1  0.40233173  0.25905133  0.53533911  1
  O  O178  1  0.36190718  0.72743940  0.01985994  1
  O  O179  1  0.38123753  0.77552192  0.50212808  1
  O  O180  1  0.85617324  0.26928968  -0.00529416  1
  O  O181  1  0.88963023  0.25962714  0.51744869  1
  O  O182  1  0.86030820  0.74466879  -0.00190366  1
  O  O183  1  0.80668726  0.69374631  0.50946405  1
  O  O184  1  0.13794666  0.23036261  0.52149906  1
  O  O185  1  0.11114999  0.26489911  0.98007566  1
  O  O186  1  0.13800966  0.74241834  0.51962193  1
  O  O187  1  0.12401766  0.73460429  0.97982883  1
  O  O188  1  0.60506633  0.23918840  0.52085277  1
  O  O189  1  0.63357266  0.25563148  0.98093279  1
  O  O190  1  0.63424718  0.76785368  0.49184778  1
  O  O191  1  0.63985698  0.74318307  1.00947414  1
  O  O192  1  0.50713381  0.23830197  0.11111723  1
  O  O193  1  0.49732556  0.23310865  0.65262887  1
  O  O194  1  0.49004445  0.77226038  0.14838863  1
  O  O195  1  0.50121944  0.75146586  0.61900975  1
  O  O196  1  0.99222085  0.26893346  0.13762842  1
  O  O197  1  0.99556552  0.23454299  0.62874700  1
  O  O198  1  0.97377819  0.73929493  0.11945046  1
  O  O199  1  1.00154110  0.74131129  0.63777306  1
  O  O200  1  0.03646689  0.26360658  0.40114551  1
  O  O201  1  0.00743466  0.25063029  0.85080718  1
  O  O202  1  -0.02815782  0.75192937  0.39349714  1
  O  O203  1  0.01612727  0.73476733  0.85945835  1
  O  O204  1  0.50309199  0.24591278  0.37887296  1
  O  O205  1  0.51028884  0.24832709  0.86449995  1
  O  O206  1  0.53130941  0.77219604  0.37366645  1
  O  O207  1  0.48188908  0.76536405  0.88109986  1
  O  O208  1  0.25424868  0.12408896  0.51211099  1
  O  O209  1  0.22901181  0.12567869  1.02528024  1
  O  O210  1  0.24781301  0.62483233  0.49426922  1
  O  O211  1  0.23535524  0.60996383  0.97244837  1
  O  O212  1  0.75746558  0.12670240  0.47858209  1
  O  O213  1  0.75284458  0.15089008  0.97577610  1
  O  O214  1  0.75365369  0.64600305  0.49201857  1
  O  O215  1  0.73063292  0.63378321  0.99540824  1
  O  O216  1  0.26274038  0.39545565  0.00566106  1
  O  O217  1  0.27165320  0.37969578  0.51848330  1
  O  O218  1  0.21352529  0.89193318  0.03136350  1
  O  O219  1  0.26289254  0.89069001  0.49385099  1
  O  O220  1  0.74068696  0.36403342  0.00371940  1
  O  O221  1  0.76915810  0.37734572  0.51437456  1
  O  O222  1  0.75977323  0.85680724  -0.00144474  1
  O  O223  1  0.74898022  0.87359967  0.53693208  1
  O  O224  1  0.12639511  0.52141321  0.23831585  1
  O  O225  1  0.13538131  0.48976990  0.74251420  1
  O  O226  1  0.12775927  1.02553981  0.19154924  1
  O  O227  1  0.13122654  0.99356531  0.74647792  1
  O  O228  1  0.61853717  0.48453983  0.23560513  1
  O  O229  1  0.67444831  0.55137969  0.74693640  1
  O  O230  1  0.65875714  1.04438200  0.22906938  1
  O  O231  1  0.63401545  0.99772022  0.75404406  1
  O  O232  1  0.34300197  -0.01237110  0.20919869  1
  O  O233  1  0.35530175  -0.00511646  0.75518870  1
  O  O234  1  0.37802536  0.52509059  0.24577859  1
  O  O235  1  0.36030540  0.49170750  0.75631704  1
  O  O236  1  0.85330955  -0.03065289  0.24636244  1
  O  O237  1  0.86248594  0.01798506  0.75021232  1
  O  O238  1  0.88976306  0.48371882  0.26239629  1
  O  O239  1  0.87491977  0.49414396  0.75804860  1
  O  O240  1  0.11947967  0.41897697  0.37641874  1
  O  O241  1  0.12246829  0.36907763  0.85059956  1
  O  O242  1  0.08016032  0.86326527  0.39803718  1
  O  O243  1  0.12975846  0.85462456  0.86910892  1
  O  O244  1  0.60653805  0.38449848  0.35753360  1
  O  O245  1  0.62459278  0.36887586  0.87197664  1
  O  O246  1  0.67374889  0.88261529  0.38581207  1
  O  O247  1  0.61496240  0.88281981  0.86919298  1
  O  O248  1  0.39859201  0.11733084  0.11677637  1
  O  O249  1  0.38253514  0.13403378  0.63785269  1
  O  O250  1  0.35809831  0.67068013  0.07632612  1
  O  O251  1  0.38969363  0.65162785  0.61600215  1
  O  O252  1  0.76882509  0.03791975  0.10920110  1
  O  O253  1  0.88395577  0.13008307  0.62770398  1
  O  O254  1  0.87469839  0.60030992  0.11431356  1
  O  O255  1  0.89536762  0.61940257  0.62083994  1
  O  O256  1  0.23717579  0.27377214  0.11397885  1
  O  O257  1  0.27148850  0.25934837  0.63972717  1
  O  O258  1  0.30590635  0.68383810  0.13403336  1
  O  O259  1  0.26509378  0.75011324  0.62799843  1
  O  O260  1  0.73861709  0.23808704  0.11105036  1
  O  O261  1  0.76644759  0.23567442  0.62060134  1
  O  O262  1  0.76475314  0.73710522  0.11671134  1
  O  O263  1  0.76341640  0.77240360  0.66230052  1
  O  O264  1  0.21387763  0.29131192  0.37938591  1
  O  O265  1  0.23104129  0.26043330  0.87142883  1
  O  O266  1  0.24482065  0.75526752  0.37711236  1
  O  O267  1  0.24268857  0.73263000  0.86168820  1
  O  O268  1  0.77624033  0.23994478  0.37880808  1
  O  O269  1  0.73144021  0.24714112  0.85798102  1
  O  O270  1  0.71328668  0.71405993  0.36054716  1
  O  O271  1  0.74348886  0.74788243  0.88246234  1
  O  O272  1  -0.02280748  0.11924546  -0.01930822  1
  O  O273  1  0.00378276  0.12459155  0.51204579  1
  O  O274  1  0.01088959  0.61992083  -0.01565649  1
  O  O275  1  0.02302064  0.63245309  0.52051772  1
  O  O276  1  0.50270580  0.10376779  0.00272611  1
  O  O277  1  0.49407799  0.10397129  0.53701665  1
  O  O278  1  0.51690459  0.65913503  0.01278621  1
  O  O279  1  0.49873424  0.63522051  0.50308543  1
  O  O280  1  0.50227562  0.37910697  0.48762921  1
  O  O281  1  0.49060608  0.37595913  0.99744465  1
  O  O282  1  0.50381261  0.90311934  0.49939995  1
  O  O283  1  0.50796498  0.87935964  0.98392419  1
  O  O284  1  0.98918995  0.38502433  0.51761764  1
  O  O285  1  0.98464834  0.37070278  0.98744145  1
  O  O286  1  0.97480020  0.84477491  0.49937891  1
  O  O287  1  0.98407168  0.84710669  0.98570286  1
  O  O288  1  0.46864191  0.50733690  0.37201631  1
  O  O289  1  0.48670181  0.50297820  0.85056804  1
  O  O290  1  0.51630992  1.03280716  0.39315990  1
  O  O291  1  0.48691339  0.99287949  0.89484955  1
  O  O292  1  0.98311320  0.54062043  0.37590182  1
  O  O293  1  0.97253386  0.49110964  0.84190738  1
  O  O294  1  0.97530786  0.96182446  0.40394374  1
  O  O295  1  1.00110947  1.00494678  0.86973097  1
  O  O296  1  -0.01346349  0.01622242  0.11815669  1
  O  O297  1  0.01131908  0.01467745  0.63645328  1
  O  O298  1  0.02000472  0.48623692  0.12974108  1
  O  O299  1  0.01959220  0.51368362  0.63571072  1
  O  O300  1  0.49018294  -0.01902513  0.09458176  1
  O  O301  1  0.50835398  0.00535653  0.65014426  1
  O  O302  1  0.49569992  0.49449450  0.13263778  1
  O  O303  1  0.50675011  0.53530413  0.64878391  1
  O  O304  1  0.28682805  0.36644837  0.22638473  1
  O  O305  1  0.24242404  0.38325513  0.73998607  1
  O  O306  1  0.21668667  0.91853481  0.29169699  1
  O  O307  1  0.23440071  0.88394550  0.75218667  1
  O  O308  1  0.74193205  0.36793906  0.25672166  1
  O  O309  1  0.74727106  0.36773277  0.71605898  1
  O  O310  1  0.79783024  0.92274171  0.26192956  1
  O  O311  1  0.73737212  0.89148604  0.75718705  1
  O  O312  1  0.28121140  0.16233725  0.26080377  1
  O  O313  1  0.24258241  0.11262156  0.75204716  1
  O  O314  1  0.24499719  0.62486625  0.28901023  1
  O  O315  1  0.24467885  0.60953873  0.75641253  1
  O  O316  1  0.77442961  0.14951842  0.27163824  1
  O  O317  1  0.75302304  0.12327497  0.75555316  1
  O  O318  1  0.73536035  0.60123053  0.26467368  1
  O  O319  1  0.71978906  0.61302752  0.75260502  1
  O  O320  1  0.36129014  0.11357679  0.35440886  1
  O  O321  1  0.37470405  0.10226069  0.88459140  1
  O  O322  1  0.36632223  0.63797274  0.38360943  1
  O  O323  1  0.36161073  0.61350908  0.87086614  1
  O  O324  1  0.87363818  0.13490425  0.38621083  1
  O  O325  1  0.85927999  0.14714010  0.85711992  1
  O  O326  1  0.85441292  0.61222371  0.37569016  1
  O  O327  1  0.86607212  0.61095887  0.86986265  1
  O  O328  1  0.14303653  0.39626869  0.11600314  1
  O  O329  1  0.14108050  0.39111903  0.63001234  1
  O  O330  1  0.06616324  0.87600093  0.13629322  1
  O  O331  1  0.11604562  0.89203682  0.63119303  1
  O  O332  1  0.62136915  0.38719822  0.13485898  1
  O  O333  1  0.64011378  0.42069199  0.60493613  1
  O  O334  1  0.56482712  0.87312205  0.25595137  1
  O  O335  1  0.62617037  0.89074773  0.64792751  1
  O  O336  1  0.11535896  0.29073158  0.25791615  1
  O  O337  1  0.12137644  0.26189707  0.74257094  1
  O  O338  1  0.11998659  0.73845844  0.24807538  1
  O  O339  1  0.12349570  0.75666697  0.75551441  1
  O  O340  1  0.62477731  0.26408008  0.23875381  1
  O  O341  1  0.61082577  0.25139943  0.75866748  1
  O  O342  1  0.67596825  0.74525964  0.29092371  1
  O  O343  1  0.62322729  0.77120741  0.75538358  1
  O  O344  1  0.29929612  0.15803581  0.34547152  1
  O  O345  1  0.39118482  0.26215628  0.74630919  1
  O  O346  1  0.38818355  0.80251581  0.22765742  1
  O  O347  1  0.37925683  0.76827353  0.73235381  1
  O  O348  1  0.90901830  0.26728878  0.24028215  1
  O  O349  1  0.88343078  0.24896551  0.73445340  1
  O  O350  1  0.86739249  0.71317744  0.22730785  1
  O  O351  1  0.89456588  0.74987251  0.76055162  1
  O  O352  1  0.38815137  0.48684018  0.51918386  1
  O  O353  1  0.38581970  0.50130159  0.97460723  1
  O  O354  1  0.38907842  0.99354895  0.50405189  1
  O  O355  1  0.35131737  0.98692856  0.99248217  1
  O  O356  1  0.88340117  0.49569595  0.49294083  1
  O  O357  1  0.87323351  0.49392487  0.97315594  1
  O  O358  1  0.83645758  0.99697297  0.48382105  1
  O  O359  1  0.89383274  0.97536906  0.98985638  1
  O  O360  1  0.08874788  -0.00824645  0.00433098  1
  O  O361  1  0.13309022  0.00895802  0.51939527  1
  O  O362  1  0.11422986  0.49960310  -0.02609407  1
  O  O363  1  0.13580029  0.50673669  0.51916565  1
  O  O364  1  0.62850089  -0.00468315  0.01206401  1
  O  O365  1  0.61285736  0.00381556  0.53175691  1
  O  O366  1  0.62020971  0.51321942  0.01658488  1
  O  O367  1  0.64265795  0.51399295  0.46996904  1
  O  O368  1  0.36772047  0.38268144  0.09860158  1
  O  O369  1  0.37942721  0.37138899  0.62320817  1
  O  O370  1  0.42556621  0.81859464  0.16048414  1
  O  O371  1  0.38109903  0.86929561  0.61149968  1
  O  O372  1  0.86992837  0.40082379  0.09215163  1
  O  O373  1  0.86899580  0.37039182  0.61765574  1
  O  O374  1  0.87183037  0.87490151  0.11138103  1
  O  O375  1  0.86314964  0.89621884  0.64365260  1
  O  O376  1  0.14159659  0.11886637  0.39924101  1
  O  O377  1  0.12154774  0.14342191  0.87273997  1
  O  O378  1  0.13661743  0.62527516  0.40268032  1
  O  O379  1  0.13194610  0.62778480  0.87107864  1
  O  O380  1  0.66460464  0.13356864  0.36998981  1
  O  O381  1  0.63273785  0.13327349  0.87238958  1
  O  O382  1  0.64323856  0.57375964  0.40708835  1
  O  O383  1  0.60802532  0.61546077  0.89484666  1
