# generated using pymatgen
data_VZnO4
_symmetry_space_group_name_H-M   'P 1'
_cell_length_a   17.07672862
_cell_length_b   17.28245875
_cell_length_c   17.05786662
_cell_angle_alpha   89.27662776
_cell_angle_beta   89.10615533
_cell_angle_gamma   90.55943526
_symmetry_Int_Tables_number   1
_chemical_formula_structural   VZnO4
_chemical_formula_sum   'V64 Zn64 O256'
_cell_volume   5032.98807419
_cell_formula_units_Z   64
loop_
 _symmetry_equiv_pos_site_id
 _symmetry_equiv_pos_as_xyz
  1  'x, y, z'
loop_
 _atom_site_type_symbol
 _atom_site_label
 _atom_site_symmetry_multiplicity
 _atom_site_fract_x
 _atom_site_fract_y
 _atom_site_fract_z
 _atom_site_occupancy
  V  V0  1  0.09705876  0.22873264  0.84664747  1
  V  V1  1  0.52858611  -0.01904873  0.49775018  1
  V  V2  1  0.58021130  0.34208125  0.25965312  1
  V  V3  1  0.11901804  0.76103976  0.88857549  1
  V  V4  1  0.50223346  0.61728862  0.14124439  1
  V  V5  1  0.73985236  0.62148762  0.87995329  1
  V  V6  1  0.73914978  0.61832268  0.37602198  1
  V  V7  1  0.00220004  0.76141010  0.75889921  1
  V  V8  1  0.48335807  0.49285997  0.00684705  1
  V  V9  1  0.27466752  0.64545682  0.36701621  1
  V  V10  1  0.09609264  -0.01021637  0.10300175  1
  V  V11  1  0.87783331  0.62838579  0.26220791  1
  V  V12  1  0.62579144  0.60755747  0.51895350  1
  V  V13  1  0.45381824  0.20410096  0.30547041  1
  V  V14  1  0.47874197  0.51018465  0.49583992  1
  V  V15  1  0.51863119  0.75321075  0.25254560  1
  V  V16  1  0.38342246  0.74804134  0.11851275  1
  V  V17  1  -0.01014906  0.61467067  0.12184501  1
  V  V18  1  0.86617011  0.04036420  0.81576157  1
  V  V19  1  0.87467081  0.62447456  0.75757814  1
  V  V20  1  0.38157242  0.73903890  0.63844151  1
  V  V21  1  0.00087484  0.63106976  0.62207774  1
  V  V22  1  0.51001991  0.71625993  0.75956088  1
  V  V23  1  0.74086660  0.75669761  -0.00459602  1
  V  V24  1  0.74284793  0.12294827  0.37273335  1
  V  V25  1  0.87560357  0.88573390  0.50157338  1
  V  V26  1  0.47500700  0.31839098  0.76406592  1
  V  V27  1  0.25433316  0.53035439  0.75529452  1
  V  V28  1  0.86709947  0.74629665  0.62676547  1
  V  V29  1  0.62806596  0.88434409  0.76093967  1
  V  V30  1  0.27400880  -0.00450481  0.74005588  1
  V  V31  1  0.10604663  -0.01649049  0.63538128  1
  V  V32  1  0.28567140  0.89325100  0.12683338  1
  V  V33  1  0.62913648  0.60463741  0.01100065  1
  V  V34  1  0.35414870  0.38176575  0.49154510  1
  V  V35  1  0.25932694  0.21766185  0.47490436  1
  V  V36  1  0.63301510  -0.01171012  0.12416159  1
  V  V37  1  0.11322597  0.61417413  0.00961887  1
  V  V38  1  0.88792805  0.49867356  0.88630196  1
  V  V39  1  0.63788184  0.26453849  0.86166410  1
  V  V40  1  0.53726754  0.85756876  0.37877441  1
  V  V41  1  0.48754979  -0.00019515  -0.00644516  1
  V  V42  1  0.38117046  0.85883802  0.49734543  1
  V  V43  1  0.74497642  0.74130980  0.49858927  1
  V  V44  1  0.63752352  0.11676912  -0.00664654  1
  V  V45  1  0.89891457  0.36890657  -0.00286359  1
  V  V46  1  0.50825872  0.08900799  0.63560450  1
  V  V47  1  0.86551715  0.75761101  0.12094932  1
  V  V48  1  0.74091160  0.27301295  0.00461762  1
  V  V49  1  0.24966624  0.22499181  -0.03520894  1
  V  V50  1  0.10720649  0.39324958  0.76484160  1
  V  V51  1  0.86662632  0.25242198  0.13737893  1
  V  V52  1  0.37374733  0.24870028  0.09107995  1
  V  V53  1  -0.00952857  0.13964287  0.12382400  1
  V  V54  1  0.12633850  0.64782754  0.48378113  1
  V  V55  1  0.11993789  0.51837825  0.62644394  1
  V  V56  1  0.88213565  0.88029288  -0.01783069  1
  V  V57  1  0.49108114  0.86069561  0.88312110  1
  V  V58  1  0.73620188  0.88162804  0.63093344  1
  V  V59  1  0.25110382  0.63362239  0.89030492  1
  V  V60  1  0.25376374  0.38981254  0.63592180  1
  V  V61  1  0.74271216  0.48872974  0.75027775  1
  V  V62  1  -0.00013848  0.76979720  0.24792837  1
  V  V63  1  0.74054643  0.50466754  0.24295365  1
  Zn  Zn64  1  0.20364124  0.17455390  0.12564132  1
  Zn  Zn65  1  0.32222848  0.17679322  0.79454144  1
  Zn  Zn66  1  0.20972276  0.74323043  0.22318940  1
  Zn  Zn67  1  0.18544216  0.70208729  0.69261412  1
  Zn  Zn68  1  0.71105881  0.14147334  0.15815014  1
  Zn  Zn69  1  0.62076515  0.22810421  0.66488242  1
  Zn  Zn70  1  0.69166598  0.68385806  0.18314768  1
  Zn  Zn71  1  0.68409322  0.67614481  0.69443798  1
  Zn  Zn72  1  0.31053149  0.32151295  0.30879176  1
  Zn  Zn73  1  0.29477002  0.34437160  0.81277652  1
  Zn  Zn74  1  0.33967406  0.82224203  0.30258977  1
  Zn  Zn75  1  0.31778781  0.79821755  0.81544411  1
  Zn  Zn76  1  0.76665102  0.31949871  0.30912245  1
  Zn  Zn77  1  0.81628308  0.31709422  0.82283148  1
  Zn  Zn78  1  0.84893951  0.80019218  0.33339456  1
  Zn  Zn79  1  0.80521868  0.80793299  0.81396770  1
  Zn  Zn80  1  0.19612924  0.47356414  0.44757864  1
  Zn  Zn81  1  0.17889087  0.45510977  0.93813584  1
  Zn  Zn82  1  0.23808144  0.86040455  0.60441893  1
  Zn  Zn83  1  0.19464275  0.92914434  0.95405567  1
  Zn  Zn84  1  0.62132887  0.42697058  0.42075681  1
  Zn  Zn85  1  0.68859230  0.43888791  0.93320440  1
  Zn  Zn86  1  0.71352599  0.92090527  0.43146454  1
  Zn  Zn87  1  0.70197090  0.94572221  0.91899349  1
  Zn  Zn88  1  0.31560420  0.06966091  0.05827427  1
  Zn  Zn89  1  0.32750292  0.03534750  0.56063736  1
  Zn  Zn90  1  0.31023927  0.57665644  0.07519398  1
  Zn  Zn91  1  0.29818004  0.58355770  0.55672259  1
  Zn  Zn92  1  0.81604295  0.06583412  0.04823063  1
  Zn  Zn93  1  0.91791065  0.07897114  0.61407084  1
  Zn  Zn94  1  0.81875504  0.56563143  0.05798783  1
  Zn  Zn95  1  0.80501732  0.56926625  0.57387847  1
  Zn  Zn96  1  0.44730374  0.40894127  0.15285433  1
  Zn  Zn97  1  0.42527013  0.48307793  0.67550498  1
  Zn  Zn98  1  0.46632366  0.92789099  0.18397386  1
  Zn  Zn99  1  0.45110125  0.91443555  0.68401480  1
  Zn  Zn100  1  0.87781887  0.44752115  0.17371630  1
  Zn  Zn101  1  0.93573823  0.45047858  0.69195159  1
  Zn  Zn102  1  0.93929790  0.93566366  0.15368257  1
  Zn  Zn103  1  0.92137765  0.93238997  0.69219968  1
  Zn  Zn104  1  0.05486008  0.04171585  0.27615601  1
  Zn  Zn105  1  0.06264038  0.03296707  0.80516303  1
  Zn  Zn106  1  0.14862034  0.56726535  0.29353098  1
  Zn  Zn107  1  0.06500149  0.57751212  0.81547680  1
  Zn  Zn108  1  0.55234305  0.04747057  0.31145081  1
  Zn  Zn109  1  0.44578638  0.04229782  0.81541658  1
  Zn  Zn110  1  0.56168063  0.55907146  0.31781040  1
  Zn  Zn111  1  0.54149926  0.51400326  0.80626776  1
  Zn  Zn112  1  0.42200695  0.15158187  0.49095900  1
  Zn  Zn113  1  0.45929831  0.18819203  0.92306992  1
  Zn  Zn114  1  0.44435606  0.69247767  0.43749829  1
  Zn  Zn115  1  0.44992844  0.67949001  0.94164766  1
  Zn  Zn116  1  0.93972789  0.06448928  0.43686597  1
  Zn  Zn117  1  0.92246899  0.18103113  0.92671240  1
  Zn  Zn118  1  0.94189747  0.69347256  0.43764115  1
  Zn  Zn119  1  0.93234738  0.68936431  0.93953166  1
  Zn  Zn120  1  0.05342421  0.24864317  0.02490598  1
  Zn  Zn121  1  0.10537515  0.30772540  0.57453741  1
  Zn  Zn122  1  0.05248498  0.80630291  0.05904314  1
  Zn  Zn123  1  0.05296654  0.81489611  0.55831666  1
  Zn  Zn124  1  0.56178825  0.30507850  0.07771520  1
  Zn  Zn125  1  0.52888584  0.37100951  0.58846727  1
  Zn  Zn126  1  0.57169730  0.81068047  0.06390650  1
  Zn  Zn127  1  0.56384009  0.79266463  0.57483539  1
  O  O128  1  0.09600756  0.17144403  0.11185483  1
  O  O129  1  0.06882685  0.18770596  0.63392648  1
  O  O130  1  0.09943273  0.62743041  0.11494689  1
  O  O131  1  0.11352698  0.63370981  0.63267709  1
  O  O132  1  0.61581795  0.12603398  0.09469699  1
  O  O133  1  0.58355012  0.14947973  0.60162544  1
  O  O134  1  0.61826798  0.62349358  0.11528531  1
  O  O135  1  0.63201247  0.60973708  0.61732282  1
  O  O136  1  0.33952457  0.39136790  0.39455830  1
  O  O137  1  0.33156825  0.40298875  0.90907040  1
  O  O138  1  0.40524407  0.84531196  0.39609441  1
  O  O139  1  0.39288837  0.85706733  0.88109173  1
  O  O140  1  0.87789471  0.32647760  0.38891800  1
  O  O141  1  0.87989206  0.39092506  0.88621411  1
  O  O142  1  0.83530078  0.88351818  0.40440206  1
  O  O143  1  0.87200461  0.86162467  0.88427857  1
  O  O144  1  0.29750494  -0.02550359  0.36224737  1
  O  O145  1  0.25252475  -0.04466180  0.84767877  1
  O  O146  1  0.23244281  0.53705340  0.36598338  1
  O  O147  1  0.23967458  0.52698601  0.86593926  1
  O  O148  1  0.74187440  0.02047881  0.37589070  1
  O  O149  1  0.78429797  -0.00805174  0.85224541  1
  O  O150  1  0.75173827  0.52080732  0.36472286  1
  O  O151  1  0.76211771  0.50877677  0.87300650  1
  O  O152  1  0.25147489  0.50909445  0.16008468  1
  O  O153  1  0.23591920  0.52473766  0.64185898  1
  O  O154  1  0.28506371  0.99130982  0.13543425  1
  O  O155  1  0.26815790  0.96989386  0.63743909  1
  O  O156  1  0.76189906  0.51532445  0.14298034  1
  O  O157  1  0.76310971  0.50144729  0.65115795  1
  O  O158  1  0.73073820  1.02899596  0.12273829  1
  O  O159  1  0.74114709  0.97418924  0.62347505  1
  O  O160  1  0.01961600  0.46421253  0.29994770  1
  O  O161  1  0.00927215  0.39135980  0.74996822  1
  O  O162  1  -0.02133172  0.86599953  0.23416624  1
  O  O163  1  -0.01775369  0.85621952  0.74995982  1
  O  O164  1  0.49662824  0.39678892  0.25400186  1
  O  O165  1  0.47734013  0.41960802  0.76461305  1
  O  O166  1  0.51882167  0.85910066  0.26371651  1
  O  O167  1  0.51633646  0.86652289  0.76751895  1
  O  O168  1  0.46283755  0.10804397  0.28464254  1
  O  O169  1  0.50854528  0.09680444  0.73390596  1
  O  O170  1  0.51159215  0.62932131  0.24411813  1
  O  O171  1  0.50403057  0.61895345  0.77167096  1
  O  O172  1  0.98980278  0.11933111  0.22215713  1
  O  O173  1  1.00529234  0.17682379  0.66956334  1
  O  O174  1  0.98019928  0.64360320  0.23633832  1
  O  O175  1  0.98771747  0.63824893  0.74722628  1
  O  O176  1  0.36572303  0.24157018  -0.01595218  1
  O  O177  1  0.33699249  0.28138320  0.51194993  1
  O  O178  1  0.40156423  0.74506398  0.01958609  1
  O  O179  1  0.39842505  0.74941224  0.52263040  1
  O  O180  1  0.86248623  0.26957078  -0.01085298  1
  O  O181  1  0.94018568  0.13162385  0.52001798  1
  O  O182  1  0.86504084  0.75367188  0.00642552  1
  O  O183  1  0.86395324  0.74393718  0.51495800  1
  O  O184  1  0.17189936  0.23598222  0.52000006  1
  O  O185  1  0.13690289  0.24595322  0.94440624  1
  O  O186  1  0.12262809  0.74343299  0.50783694  1
  O  O187  1  0.11221786  0.73805719  0.99158499  1
  O  O188  1  0.61196132  0.34279343  0.50912719  1
  O  O189  1  0.63848012  0.25978871  1.00769735  1
  O  O190  1  0.63868808  0.72505905  0.51346012  1
  O  O191  1  0.64059039  0.73682175  1.00491416  1
  O  O192  1  0.47170203  0.23347845  0.09767229  1
  O  O193  1  0.52340781  0.29700563  0.67375666  1
  O  O194  1  0.50863840  0.73817568  0.13265995  1
  O  O195  1  0.49628109  0.73432649  0.64996617  1
  O  O196  1  0.97231397  0.24984254  0.13139488  1
  O  O197  1  0.97804744  0.31011215  0.59525246  1
  O  O198  1  0.97938572  0.74665593  0.13098601  1
  O  O199  1  0.98654470  0.74643645  0.63948600  1
  O  O200  1  -0.11273225  0.29308946  0.45314268  1
  O  O201  1  0.00104642  0.24478065  0.86207872  1
  O  O202  1  -0.03641228  0.76060179  0.34799357  1
  O  O203  1  0.00525047  0.74408226  0.86642811  1
  O  O204  1  0.44220663  0.21742626  0.40409423  1
  O  O205  1  0.51309573  0.26942388  0.84591826  1
  O  O206  1  0.51470628  0.74630449  0.36143525  1
  O  O207  1  0.50293341  0.75052164  0.86638989  1
  O  O208  1  0.30033056  0.12366415  0.48855290  1
  O  O209  1  0.25132442  0.12818356  0.97963580  1
  O  O210  1  0.23632461  0.63970716  0.47849250  1
  O  O211  1  0.22972505  0.62024157  0.99875318  1
  O  O212  1  0.73143160  0.13168328  0.47413267  1
  O  O213  1  0.73905802  0.13584194  0.98974779  1
  O  O214  1  0.74509630  0.62252947  0.49357766  1
  O  O215  1  0.74164272  0.62426162  0.99830137  1
  O  O216  1  0.27678043  0.39590051  -0.03574308  1
  O  O217  1  0.24979212  0.41016748  0.52485669  1
  O  O218  1  0.24553595  0.87179613  0.03814041  1
  O  O219  1  0.28246244  0.86174356  0.49761495  1
  O  O220  1  0.75049467  0.37177030  0.00582574  1
  O  O221  1  0.80390572  0.42328637  0.50429823  1
  O  O222  1  0.75113511  0.85528096  -0.01242479  1
  O  O223  1  0.75024281  0.85402202  0.52182303  1
  O  O224  1  0.08395489  0.48530044  0.25217721  1
  O  O225  1  0.12405523  0.50885685  0.74448732  1
  O  O226  1  0.12952777  1.02930708  0.19039896  1
  O  O227  1  0.14275200  0.99742966  0.73337332  1
  O  O228  1  0.64101625  0.50388293  0.25247879  1
  O  O229  1  0.64423029  0.50329521  0.76359118  1
  O  O230  1  0.60476029  1.00512267  0.21984272  1
  O  O231  1  0.63068770  0.97717537  0.74946259  1
  O  O232  1  0.37558379  -0.06351226  0.26207587  1
  O  O233  1  0.37780847  -0.01957907  0.74543193  1
  O  O234  1  0.29537003  0.45987335  0.20421107  1
  O  O235  1  0.35269948  0.52797056  0.74831520  1
  O  O236  1  0.84908788  -0.02003605  0.22989383  1
  O  O237  1  0.86829839  0.03452892  0.70906530  1
  O  O238  1  0.87127808  0.52983728  0.25129675  1
  O  O239  1  0.87039833  0.51082874  0.76553130  1
  O  O240  1  0.12163041  0.37985393  0.41140989  1
  O  O241  1  0.11691168  0.40132928  0.86373492  1
  O  O242  1  0.15113002  0.90567172  0.40362644  1
  O  O243  1  0.12349825  0.85788401  0.89535685  1
  O  O244  1  0.65073836  0.36057587  0.33547689  1
  O  O245  1  0.62707006  0.36270199  0.87920635  1
  O  O246  1  0.63585857  0.85674224  0.37603579  1
  O  O247  1  0.63449918  0.87055629  0.86351206  1
  O  O248  1  0.31652418  0.16245265  0.12895933  1
  O  O249  1  0.41358398  0.11652750  0.60211575  1
  O  O250  1  0.39853701  0.63379762  0.12808245  1
  O  O251  1  0.36540621  0.64141821  0.62454027  1
  O  O252  1  0.87363625  0.14322546  0.11690604  1
  O  O253  1  0.84256530  0.19968373  0.62992210  1
  O  O254  1  0.87900007  0.63927128  0.12360887  1
  O  O255  1  0.88178020  0.63024642  0.63646836  1
  O  O256  1  0.23276351  0.26846962  0.05463589  1
  O  O257  1  0.24599285  0.29637971  0.64740874  1
  O  O258  1  0.28476275  0.73368675  0.12742837  1
  O  O259  1  0.27156701  0.76515203  0.65482685  1
  O  O260  1  0.75848912  0.23938431  0.10631758  1
  O  O261  1  0.69297137  0.31137269  0.61226183  1
  O  O262  1  0.75911852  0.73951050  0.10714741  1
  O  O263  1  0.75996043  0.73364834  0.62231266  1
  O  O264  1  0.25104779  0.24686029  0.37968078  1
  O  O265  1  0.25867111  0.24789112  0.85925432  1
  O  O266  1  0.26817832  0.74622441  0.35969363  1
  O  O267  1  0.22751506  0.74089933  0.87106522  1
  O  O268  1  0.74721855  0.22584368  0.37010431  1
  O  O269  1  0.74338064  0.25966847  0.89318511  1
  O  O270  1  0.76103611  0.73506486  0.39353576  1
  O  O271  1  0.75837329  0.73105748  0.89049604  1
  O  O272  1  -0.01235490  0.15206945  0.01009133  1
  O  O273  1  -0.00213757  0.01327376  0.36435743  1
  O  O274  1  -0.00104554  0.62872275  0.01198684  1
  O  O275  1  0.00552326  0.64057445  0.51568086  1
  O  O276  1  0.50874249  0.09912040  -0.01445140  1
  O  O277  1  0.51057461  0.07672460  0.47936017  1
  O  O278  1  0.51597404  0.60985537  0.00964473  1
  O  O279  1  0.51565944  0.61196181  0.49631269  1
  O  O280  1  0.45902166  0.38931571  0.49830193  1
  O  O281  1  0.50216387  0.39771555  1.04417274  1
  O  O282  1  0.51996506  0.85952961  0.49004858  1
  O  O283  1  0.51562000  0.87103926  0.98385867  1
  O  O284  1  1.06659791  0.35692414  0.45798059  1
  O  O285  1  0.99485995  0.35334482  0.99931505  1
  O  O286  1  0.97115203  0.85771417  0.49553810  1
  O  O287  1  0.97972576  0.87013520  0.99739682  1
  O  O288  1  0.52075114  0.48899345  0.40004536  1
  O  O289  1  0.50134626  0.49155322  0.90929519  1
  O  O290  1  0.51942559  0.96150225  0.38108371  1
  O  O291  1  0.50005564  0.97328798  0.88645195  1
  O  O292  1  1.01612926  0.49343165  0.36818206  1
  O  O293  1  0.98413517  0.51527427  0.87481450  1
  O  O294  1  1.13725461  0.91490461  0.33393669  1
  O  O295  1  0.95998872  1.00550858  0.83858248  1
  O  O296  1  -0.00600384  0.02231443  0.10300743  1
  O  O297  1  0.00336846  -0.00329813  0.63871159  1
  O  O298  1  -0.02652083  0.51947959  0.13066911  1
  O  O299  1  0.00583525  0.52357331  0.63436165  1
  O  O300  1  0.51773786  -0.01605688  0.09661953  1
  O  O301  1  0.51763849  -0.01351306  0.61255011  1
  O  O302  1  0.49572520  0.51771057  0.13174901  1
  O  O303  1  0.50847709  0.48695501  0.59668684  1
  O  O304  1  0.25055924  0.40723457  0.24387937  1
  O  O305  1  0.23749162  0.41470168  0.74795761  1
  O  O306  1  0.24694240  0.85145161  0.21634712  1
  O  O307  1  0.24898792  0.89241844  0.79067264  1
  O  O308  1  0.78274132  0.41170417  0.25310479  1
  O  O309  1  0.75825408  0.39279095  0.76303337  1
  O  O310  1  0.80046076  0.92816709  0.24985863  1
  O  O311  1  0.74004402  0.85839152  0.73895094  1
  O  O312  1  0.23460547  0.11021909  0.29565094  1
  O  O313  1  0.26983408  0.09347535  0.74307541  1
  O  O314  1  0.23125879  0.64115166  0.26556134  1
  O  O315  1  0.23465013  0.63073972  0.76909061  1
  O  O316  1  0.74376339  0.12845391  0.26660782  1
  O  O317  1  0.82339613  0.21967863  0.69990547  1
  O  O318  1  0.75541338  0.62593778  0.26090951  1
  O  O319  1  0.76064248  0.62153279  0.76354596  1
  O  O320  1  0.35293316  -0.00478798  0.31738415  1
  O  O321  1  0.39352125  0.12644066  0.86099770  1
  O  O322  1  0.37260313  0.63011569  0.37386661  1
  O  O323  1  0.34898132  0.64319103  0.89432367  1
  O  O324  1  0.84578344  0.11592141  0.37545580  1
  O  O325  1  0.86226310  0.13419234  0.84770091  1
  O  O326  1  0.86901168  0.63285908  0.36468921  1
  O  O327  1  0.86713980  0.61544541  0.87542579  1
  O  O328  1  0.10749569  0.31359875  0.23019424  1
  O  O329  1  0.13199399  0.40241255  0.63633717  1
  O  O330  1  0.09390857  0.89186910  0.11706921  1
  O  O331  1  0.12500515  0.88375031  0.60801027  1
  O  O332  1  0.62318354  0.33597666  0.16958795  1
  O  O333  1  0.68752660  0.32028727  0.53545891  1
  O  O334  1  0.63895813  0.89034562  0.11403667  1
  O  O335  1  0.63267094  0.85746097  0.64093038  1
  O  O336  1  0.06679080  0.28790184  0.28478945  1
  O  O337  1  0.12654137  0.28875354  0.76241214  1
  O  O338  1  0.09710477  0.75886044  0.24452376  1
  O  O339  1  0.10607870  0.75408472  0.76175540  1
  O  O340  1  0.54894216  0.24504925  0.27881170  1
  O  O341  1  0.65901378  0.25002427  0.76533005  1
  O  O342  1  0.61783155  0.74456041  0.23834314  1
  O  O343  1  0.61087864  0.73755849  0.75229082  1
  O  O344  1  0.37806655  0.24977745  0.25663371  1
  O  O345  1  0.37915998  0.28501695  0.75898967  1
  O  O346  1  0.40737433  0.75453219  0.23434755  1
  O  O347  1  0.39473260  0.74565869  0.74843844  1
  O  O348  1  0.84698420  0.26386980  0.23240569  1
  O  O349  1  0.87523637  0.27071488  0.73480583  1
  O  O350  1  0.85929989  0.74405027  0.23178356  1
  O  O351  1  0.87668685  0.73818529  0.74739812  1
  O  O352  1  0.37768911  0.51607033  0.49831706  1
  O  O353  1  0.38578019  0.50921436  1.01932944  1
  O  O354  1  0.40458374  0.96212664  0.50786216  1
  O  O355  1  0.38953655  1.00197928  1.00326711  1
  O  O356  1  0.85421782  0.47671498  0.50256189  1
  O  O357  1  0.87551147  0.48685654  0.99319288  1
  O  O358  1  0.87925784  0.98284469  0.51483514  1
  O  O359  1  0.86048269  0.97630794  1.00088394  1
  O  O360  1  0.14738596  0.01081552  0.01667031  1
  O  O361  1  0.14109317  0.04641736  0.57141881  1
  O  O362  1  0.11373799  0.51598216  0.00472589  1
  O  O363  1  0.12702345  0.53459485  0.52025204  1
  O  O364  1  0.63697374  0.01133102  -0.00964972  1
  O  O365  1  0.62783730  -0.02625093  0.49529070  1
  O  O366  1  0.62921279  0.50603825  0.00916903  1
  O  O367  1  0.63765220  0.51058496  0.49871894  1
  O  O368  1  0.36056007  0.34151163  0.12414496  1
  O  O369  1  0.35650292  0.40574497  0.62447420  1
  O  O370  1  0.38768624  0.86186962  0.12406784  1
  O  O371  1  0.39369153  0.84975557  0.61505572  1
  O  O372  1  0.87413630  0.36284653  0.10497683  1
  O  O373  1  0.93945238  0.37290684  0.58967738  1
  O  O374  1  0.86649810  0.85848750  0.10911451  1
  O  O375  1  0.85843056  0.86106336  0.62188171  1
  O  O376  1  0.17966883  0.09108624  0.33996177  1
  O  O377  1  0.10685945  0.13367747  0.82599237  1
  O  O378  1  0.10539164  0.64094652  0.38853727  1
  O  O379  1  0.12337747  0.63482903  0.89395294  1
  O  O380  1  0.63872314  0.11639928  0.36327775  1
  O  O381  1  0.61039834  0.16677101  0.90190087  1
  O  O382  1  0.63862439  0.62515888  0.38306907  1
  O  O383  1  0.63756055  0.61644700  0.89643014  1
