# generated using pymatgen
data_VZnO4
_symmetry_space_group_name_H-M   'P 1'
_cell_length_a   16.89528398
_cell_length_b   16.83244709
_cell_length_c   16.88806008
_cell_angle_alpha   90.14325983
_cell_angle_beta   89.98577457
_cell_angle_gamma   89.91072483
_symmetry_Int_Tables_number   1
_chemical_formula_structural   VZnO4
_chemical_formula_sum   'V64 Zn64 O256'
_cell_volume   4802.75707661
_cell_formula_units_Z   64
loop_
 _symmetry_equiv_pos_site_id
 _symmetry_equiv_pos_as_xyz
  1  'x, y, z'
loop_
 _atom_site_type_symbol
 _atom_site_label
 _atom_site_symmetry_multiplicity
 _atom_site_fract_x
 _atom_site_fract_y
 _atom_site_fract_z
 _atom_site_occupancy
  V  V0  1  0.48848458  0.11912856  0.61869580  1
  V  V1  1  0.00736693  0.62740635  0.11686150  1
  V  V2  1  0.76030881  0.75183814  0.50963706  1
  V  V3  1  0.48795299  0.26353238  0.75383290  1
  V  V4  1  0.51432524  0.25102972  0.23860408  1
  V  V5  1  0.37122826  0.73975786  0.09598473  1
  V  V6  1  0.37064979  0.50694298  0.39121539  1
  V  V7  1  0.12329786  0.61397038  0.47972476  1
  V  V8  1  0.77010075  0.75743811  -0.00387823  1
  V  V9  1  0.61347700  0.75327186  0.87802783  1
  V  V10  1  0.75780375  0.25063627  -0.00578364  1
  V  V11  1  0.23611998  0.77118781  0.48227387  1
  V  V12  1  0.61794254  0.87570234  0.23233747  1
  V  V13  1  0.73304219  0.49854288  0.24090408  1
  V  V14  1  0.22442288  0.36356819  0.61557943  1
  V  V15  1  0.23430460  0.87645295  0.11448379  1
  V  V16  1  0.25610446  0.27265946  -0.00714197  1
  V  V17  1  0.73271475  0.38838979  0.11540939  1
  V  V18  1  0.37737248  0.87418106  0.51344652  1
  V  V19  1  0.75499074  0.12256540  0.39463885  1
  V  V20  1  0.12926437  0.74914431  0.86099360  1
  V  V21  1  0.75646926  0.00620576  0.24923205  1
  V  V22  1  0.43678048  0.07501977  0.18721123  1
  V  V23  1  0.25326394  0.49549352  0.73187402  1
  V  V24  1  0.61927477  0.75186175  0.36886664  1
  V  V25  1  -0.00387372  0.11529864  0.64163163  1
  V  V26  1  0.23899757  0.00076252  0.24093328  1
  V  V27  1  0.87426559  0.88548640  0.52021599  1
  V  V28  1  0.25374573  0.12981508  0.37470685  1
  V  V29  1  0.88706809  0.51172830  0.86556740  1
  V  V30  1  0.38189091  0.90419924  -0.01047161  1
  V  V31  1  0.87882334  0.47814952  0.37686037  1
  V  V32  1  0.77670097  0.87677792  0.12250659  1
  V  V33  1  0.38215849  0.00384809  0.37644575  1
  V  V34  1  0.62267485  0.62528029  0.01545851  1
  V  V35  1  -0.01084416  0.14999714  0.13012385  1
  V  V36  1  0.61392562  0.49665112  0.62774133  1
  V  V37  1  0.00790852  0.37373270  0.85730450  1
  V  V38  1  0.02036922  -0.00421333  0.48972025  1
  V  V39  1  0.88872590  0.38893429  0.00942332  1
  V  V40  1  0.38011865  0.63266548  0.25111133  1
  V  V41  1  0.36778721  0.26800723  0.12950550  1
  V  V42  1  0.26592390  -0.02391646  0.72978483  1
  V  V43  1  0.75413796  0.50284200  0.73802949  1
  V  V44  1  0.37065939  0.12248243  0.76893468  1
  V  V45  1  0.74876214  0.62319673  0.37203018  1
  V  V46  1  0.37377895  0.35312839  0.50470633  1
  V  V47  1  0.65218292  0.86504674  0.75123272  1
  V  V48  1  0.51061113  0.38091351  0.37903957  1
  V  V49  1  0.49794081  0.87528495  0.36973690  1
  V  V50  1  -0.00282575  0.62892522  0.60928647  1
  V  V51  1  0.88282666  0.62813527  0.24434613  1
  V  V52  1  0.61114478  0.63142408  0.51211871  1
  V  V53  1  0.62531462  0.24043063  0.39966166  1
  V  V54  1  0.62694127  -0.00131152  0.62401031  1
  V  V55  1  0.61922285  0.12066141  0.00425786  1
  V  V56  1  0.10792404  0.24850683  0.38392545  1
  V  V57  1  0.10921113  0.36950444  0.25554373  1
  V  V58  1  0.12324044  0.49629320  0.11324337  1
  V  V59  1  0.12196437  0.24939747  0.87746567  1
  V  V60  1  0.13175986  0.12895536  0.01830844  1
  V  V61  1  -0.02693746  -0.03329295  0.00475434  1
  V  V62  1  0.61963274  0.26672039  0.87154637  1
  V  V63  1  0.24686432  0.49685439  0.25164708  1
  Zn  Zn64  1  0.19452731  0.19077732  0.19404375  1
  Zn  Zn65  1  0.14558626  0.12245112  0.73648836  1
  Zn  Zn66  1  0.20896620  0.67097808  0.17277600  1
  Zn  Zn67  1  0.17256715  0.68216248  0.67130178  1
  Zn  Zn68  1  0.70869585  0.19361280  0.18089151  1
  Zn  Zn69  1  0.65666053  0.20081830  0.67267389  1
  Zn  Zn70  1  0.69648252  0.69545780  0.18449256  1
  Zn  Zn71  1  0.69707783  0.68570040  0.69378047  1
  Zn  Zn72  1  0.32086895  0.31388866  0.31136403  1
  Zn  Zn73  1  0.26292972  0.26475530  0.75886957  1
  Zn  Zn74  1  0.30161134  0.81934976  0.30946241  1
  Zn  Zn75  1  0.33431285  0.81153255  0.80450940  1
  Zn  Zn76  1  0.80256843  0.30452086  0.30244840  1
  Zn  Zn77  1  0.80004009  0.34236738  0.82961444  1
  Zn  Zn78  1  0.80506252  0.80789828  0.30378578  1
  Zn  Zn79  1  0.75843779  0.63446091  0.87164142  1
  Zn  Zn80  1  0.19187381  0.42424085  0.43260696  1
  Zn  Zn81  1  0.21592320  0.46398763  0.93443073  1
  Zn  Zn82  1  0.22663123  0.99587955  0.52279917  1
  Zn  Zn83  1  0.15491569  0.94795388  0.93394136  1
  Zn  Zn84  1  0.69372428  0.44227323  0.44718501  1
  Zn  Zn85  1  0.69158858  0.44867524  0.93208112  1
  Zn  Zn86  1  0.69160529  0.93828857  0.43629990  1
  Zn  Zn87  1  0.69709970  0.93478565  0.93497446  1
  Zn  Zn88  1  0.30442173  0.07013859  0.05496365  1
  Zn  Zn89  1  0.30185264  0.17300082  0.56684175  1
  Zn  Zn90  1  0.32110376  0.54618764  0.06958396  1
  Zn  Zn91  1  0.27786067  0.56574138  0.55306831  1
  Zn  Zn92  1  0.81467413  0.06029452  0.05805141  1
  Zn  Zn93  1  0.81051930  0.06552336  0.58001582  1
  Zn  Zn94  1  0.81588419  0.56825359  0.05735007  1
  Zn  Zn95  1  0.81060001  0.55955703  0.55564659  1
  Zn  Zn96  1  0.42478360  0.42488301  0.21114790  1
  Zn  Zn97  1  0.43239826  0.44788465  0.68553996  1
  Zn  Zn98  1  0.43272638  0.90842080  0.17531002  1
  Zn  Zn99  1  0.45891238  0.93927662  0.70839482  1
  Zn  Zn100  1  0.93502155  0.44677598  0.19403195  1
  Zn  Zn101  1  0.94313253  0.43769826  0.68141563  1
  Zn  Zn102  1  0.95569276  0.99583261  0.20473543  1
  Zn  Zn103  1  0.95101186  0.93302394  0.68495207  1
  Zn  Zn104  1  0.06494935  0.06952844  0.31568834  1
  Zn  Zn105  1  -0.02263529  0.05740151  0.83871051  1
  Zn  Zn106  1  0.05954419  0.55804930  0.32074894  1
  Zn  Zn107  1  0.09005554  0.53643592  0.80968048  1
  Zn  Zn108  1  0.57453189  0.06010084  0.31220388  1
  Zn  Zn109  1  0.56041274  0.08932836  0.82564960  1
  Zn  Zn110  1  0.55695531  0.56775681  0.31237539  1
  Zn  Zn111  1  0.57294307  0.56373209  0.81598092  1
  Zn  Zn112  1  0.44573064  0.18521186  0.42988325  1
  Zn  Zn113  1  0.43930420  0.19181476  0.94622812  1
  Zn  Zn114  1  0.43097223  0.69634083  0.43715871  1
  Zn  Zn115  1  0.44499547  0.65343067  0.92611417  1
  Zn  Zn116  1  0.93838872  0.17630344  0.45132113  1
  Zn  Zn117  1  0.94055595  0.19581621  0.94704749  1
  Zn  Zn118  1  0.93346610  0.68250180  0.43511608  1
  Zn  Zn119  1  0.94954458  0.69380746  0.94043565  1
  Zn  Zn120  1  0.06514718  0.31471761  0.07044991  1
  Zn  Zn121  1  0.10782330  0.23808215  0.59421653  1
  Zn  Zn122  1  0.02151657  0.83650494  0.12197170  1
  Zn  Zn123  1  0.05174143  0.82412149  0.58201248  1
  Zn  Zn124  1  0.56635710  0.31003927  0.05899465  1
  Zn  Zn125  1  0.55324902  0.31433190  0.56974951  1
  Zn  Zn126  1  0.54957996  0.80547918  0.05150099  1
  Zn  Zn127  1  0.58253858  0.84443601  0.54547094  1
  O  O128  1  0.11737818  0.14317558  0.12339011  1
  O  O129  1  0.11971836  0.12858179  0.62417735  1
  O  O130  1  0.12074756  0.60879469  0.13308703  1
  O  O131  1  0.11501822  0.63213950  0.58988252  1
  O  O132  1  0.64215555  0.13786428  0.10326080  1
  O  O133  1  0.60902180  0.10680653  0.63217295  1
  O  O134  1  0.63485814  0.63140893  0.11593741  1
  O  O135  1  0.62472375  0.63397639  0.61422004  1
  O  O136  1  0.38251456  0.38400167  0.38852569  1
  O  O137  1  0.39419741  0.39865107  0.87911909  1
  O  O138  1  0.38673304  0.88478309  0.36043616  1
  O  O139  1  0.35731213  0.86649188  0.89865987  1
  O  O140  1  0.86149711  0.37849922  0.36128348  1
  O  O141  1  0.89227584  0.38656050  0.88105395  1
  O  O142  1  0.90171954  0.83905682  0.37129996  1
  O  O143  1  0.84329835  0.93943857  0.82872904  1
  O  O144  1  0.27299454  0.00520497  0.35457761  1
  O  O145  1  0.21872064  -0.00540174  0.83924919  1
  O  O146  1  0.26742392  0.49596788  0.37139833  1
  O  O147  1  0.39829008  0.46551877  0.90624574  1
  O  O148  1  0.74035588  0.01382159  0.36790990  1
  O  O149  1  0.78433911  -0.01689507  0.84840871  1
  O  O150  1  0.74397959  0.50728234  0.36167478  1
  O  O151  1  0.76997393  0.50531383  0.86410072  1
  O  O152  1  0.23684228  0.50217160  0.14261989  1
  O  O153  1  0.24257219  0.47752726  0.61961450  1
  O  O154  1  0.25147117  0.99634917  0.13368275  1
  O  O155  1  0.24840267  1.00461653  0.63509947  1
  O  O156  1  0.75132906  0.50112675  0.13210973  1
  O  O157  1  0.74183086  0.51093830  0.63337340  1
  O  O158  1  0.75556964  0.98873428  0.13548325  1
  O  O159  1  0.72578765  1.00564716  0.63472166  1
  O  O160  1  0.01066298  0.37770533  0.25368955  1
  O  O161  1  0.00192932  0.36993084  0.75764794  1
  O  O162  1  -0.00633250  0.88534468  0.22649197  1
  O  O163  1  -0.11105018  0.79325277  0.78784301  1
  O  O164  1  0.50095616  0.36268972  0.26710187  1
  O  O165  1  0.48889900  0.36256256  0.74248064  1
  O  O166  1  0.51160314  0.87322025  0.25350830  1
  O  O167  1  0.44337490  0.82998860  0.75376283  1
  O  O168  1  0.50287710  0.13505766  0.24807776  1
  O  O169  1  0.48489170  0.13435797  0.74919065  1
  O  O170  1  0.48004918  0.61821822  0.24460686  1
  O  O171  1  0.47384121  0.70084633  0.70803149  1
  O  O172  1  1.00061161  0.10343407  0.22752116  1
  O  O173  1  1.02662758  0.09587036  0.74414798  1
  O  O174  1  0.98447982  0.61924139  0.25532573  1
  O  O175  1  1.03174897  0.57266639  0.70989100  1
  O  O176  1  0.36621987  0.25117150  0.01419831  1
  O  O177  1  0.37314160  0.25047736  0.49890042  1
  O  O178  1  0.37223202  0.71832697  -0.00171270  1
  O  O179  1  0.35600990  0.76641218  0.48849344  1
  O  O180  1  0.86330835  0.27582154  -0.00881992  1
  O  O181  1  0.87473311  0.27151577  0.51762262  1
  O  O182  1  0.86959937  0.75004205  -0.00278159  1
  O  O183  1  0.86422394  0.75114792  0.50224076  1
  O  O184  1  0.13111928  0.25014736  0.48030056  1
  O  O185  1  0.14100216  0.26130149  1.00092993  1
  O  O186  1  0.14578048  0.78534416  0.52711428  1
  O  O187  1  0.14971123  0.72736422  0.95968573  1
  O  O188  1  0.62128114  0.24814200  0.49850479  1
  O  O189  1  0.63426245  0.24929261  0.98971693  1
  O  O190  1  0.63435184  0.74969982  0.49030495  1
  O  O191  1  0.63335954  0.75233817  0.99003876  1
  O  O192  1  0.49549945  0.25897262  0.13485644  1
  O  O193  1  0.51805265  0.23584599  0.64640627  1
  O  O194  1  0.46745084  0.75807564  0.12276001  1
  O  O195  1  0.46581948  0.77136287  0.68689074  1
  O  O196  1  0.99559950  0.25087073  0.13888895  1
  O  O197  1  0.99565371  0.21725332  0.62813466  1
  O  O198  1  1.01346813  0.72503080  0.13887312  1
  O  O199  1  0.99631483  0.72831626  0.62772666  1
  O  O200  1  0.00938362  0.23424698  0.38026113  1
  O  O201  1  0.01041915  0.26337058  0.87985562  1
  O  O202  1  -0.04337464  0.78395897  0.37032746  1
  O  O203  1  0.02371535  0.75097857  0.87185649  1
  O  O204  1  0.51357577  0.25427340  0.36539762  1
  O  O205  1  0.50681636  0.25568095  0.86743630  1
  O  O206  1  0.51123042  0.75639649  0.37133068  1
  O  O207  1  0.51519527  0.75076117  0.87964713  1
  O  O208  1  0.25561610  0.10706927  0.47979453  1
  O  O209  1  0.23838689  0.15306610  1.01273611  1
  O  O210  1  0.23002987  0.65410213  0.48942949  1
  O  O211  1  0.29133706  0.54460657  0.96421990  1
  O  O212  1  0.74886681  0.11576239  0.49431891  1
  O  O213  1  0.75998586  0.15019206  1.00110717  1
  O  O214  1  0.74313229  0.63710478  0.48952778  1
  O  O215  1  0.74841511  0.64418716  1.00116717  1
  O  O216  1  0.25594191  0.37274801  0.00034262  1
  O  O217  1  0.26514809  0.37193547  0.50585953  1
  O  O218  1  0.24255024  0.89405860  0.01189501  1
  O  O219  1  0.26832698  0.88014702  0.50662819  1
  O  O220  1  0.75976623  0.38604598  0.00581363  1
  O  O221  1  0.73882938  0.36771390  0.51578855  1
  O  O222  1  0.75536975  0.87114756  0.01316676  1
  O  O223  1  0.76554993  0.86000247  0.48462433  1
  O  O224  1  0.13651894  0.48743498  0.26618326  1
  O  O225  1  0.19264123  0.48566727  0.82282443  1
  O  O226  1  0.14132814  0.99828604  0.25719723  1
  O  O227  1  0.16535879  1.00360661  0.77442414  1
  O  O228  1  0.63402268  0.50824811  0.24890712  1
  O  O229  1  0.63838240  0.51186352  0.73963939  1
  O  O230  1  0.63371541  0.97979318  0.25191024  1
  O  O231  1  0.63079388  0.98419242  0.74926581  1
  O  O232  1  0.38182807  0.00618942  0.24632904  1
  O  O233  1  0.36821619  0.01058205  0.75277973  1
  O  O234  1  0.36528281  0.50804355  0.25614256  1
  O  O235  1  0.35267303  0.50033144  0.74591259  1
  O  O236  1  0.85543116  -0.00254210  0.25999927  1
  O  O237  1  0.89880564  -0.01969946  0.77884866  1
  O  O238  1  0.85947124  0.50770784  0.26066326  1
  O  O239  1  0.87319862  0.49913001  0.75692105  1
  O  O240  1  0.12446712  0.36010432  0.36810709  1
  O  O241  1  0.10928625  0.36916618  0.88260049  1
  O  O242  1  0.05796181  0.87444597  0.28685452  1
  O  O243  1  0.12435798  0.85288930  0.87206920  1
  O  O244  1  0.61365953  0.36771630  0.38602404  1
  O  O245  1  0.62303326  0.36835352  0.88344349  1
  O  O246  1  0.61589112  0.86869399  0.37185988  1
  O  O247  1  0.63883501  0.86512885  0.86312673  1
  O  O248  1  0.37787765  0.13423124  0.12680104  1
  O  O249  1  0.38492636  0.12970624  0.63763198  1
  O  O250  1  0.35622681  0.63602422  0.13777212  1
  O  O251  1  0.33277711  0.66317980  0.61899225  1
  O  O252  1  0.89056806  0.13034161  0.11196771  1
  O  O253  1  0.89575243  0.09221600  0.64697841  1
  O  O254  1  0.89237773  0.60863842  0.13643290  1
  O  O255  1  0.89838313  0.60310307  0.61206483  1
  O  O256  1  0.26471357  0.25816513  0.12762185  1
  O  O257  1  0.24901772  0.25884526  0.62284201  1
  O  O258  1  0.25981136  0.76300472  0.12804962  1
  O  O259  1  0.28454173  0.72229487  0.63073336  1
  O  O260  1  0.74391915  0.27817156  0.10238508  1
  O  O261  1  0.76961792  0.20545719  0.65266995  1
  O  O262  1  0.75290651  0.76877946  0.11576009  1
  O  O263  1  0.74405173  0.74955154  0.60756868  1
  O  O264  1  0.26855247  0.23003887  0.37013973  1
  O  O265  1  0.24379152  0.26250367  0.88921287  1
  O  O266  1  0.22379171  0.78095508  0.38406545  1
  O  O267  1  0.23317209  0.75357350  0.84578724  1
  O  O268  1  0.72919460  0.23993657  0.37544253  1
  O  O269  1  0.73983606  0.26559867  0.88621414  1
  O  O270  1  0.74085546  0.73984033  0.37732353  1
  O  O271  1  0.75173424  0.75600658  0.89351586  1
  O  O272  1  0.01820583  0.14686068  0.01874505  1
  O  O273  1  -0.00498800  0.10238865  0.51739347  1
  O  O274  1  0.00073542  0.62522240  0.01700031  1
  O  O275  1  0.00776516  0.62455543  0.49782554  1
  O  O276  1  0.51740227  0.12712251  -0.00046473  1
  O  O277  1  0.49195070  0.13226309  0.51972116  1
  O  O278  1  0.52294050  0.64180290  0.00900066  1
  O  O279  1  0.51256151  0.64111799  0.49974983  1
  O  O280  1  0.48832239  0.36397455  0.48534567  1
  O  O281  1  0.50263266  0.39826197  1.00708077  1
  O  O282  1  0.48638853  0.86387181  0.48112113  1
  O  O283  1  0.48124690  0.88363283  1.00037198  1
  O  O284  1  0.91437242  0.33152707  0.54634526  1
  O  O285  1  0.98958254  0.37544995  1.00178738  1
  O  O286  1  0.98354125  0.88495450  0.50276716  1
  O  O287  1  0.98942678  0.86623814  1.01742081  1
  O  O288  1  0.49165202  0.48602332  0.37103893  1
  O  O289  1  0.47122712  0.57166007  0.85204602  1
  O  O290  1  0.49322600  0.99136923  0.36534842  1
  O  O291  1  0.55170467  0.98057762  0.78653850  1
  O  O292  1  0.97845653  0.49249528  0.37243907  1
  O  O293  1  0.99742917  0.49018647  0.86466108  1
  O  O294  1  1.00001213  1.01191213  0.39047739  1
  O  O295  1  1.02854296  0.98741220  0.91650175  1
  O  O296  1  -0.00028676  0.00818037  0.09652483  1
  O  O297  1  0.01205777  -0.00071157  0.60814319  1
  O  O298  1  0.01778699  0.50708108  0.13496039  1
  O  O299  1  0.02807587  0.51336383  0.64692122  1
  O  O300  1  0.48845940  0.00913460  0.13332217  1
  O  O301  1  0.50229626  0.01294513  0.63020540  1
  O  O302  1  0.48964482  0.45254952  0.06569185  1
  O  O303  1  0.51541189  0.51245974  0.63994705  1
  O  O304  1  0.25318991  0.39067350  0.25809802  1
  O  O305  1  0.24575446  0.37592158  0.72101245  1
  O  O306  1  0.26264532  0.89252315  0.23202258  1
  O  O307  1  0.27370844  0.87627168  0.72878892  1
  O  O308  1  0.74679215  0.39057854  0.22955482  1
  O  O309  1  0.75411267  0.39919412  0.74628983  1
  O  O310  1  0.74225194  0.87971610  0.23806158  1
  O  O311  1  0.74504466  0.86794010  0.73206803  1
  O  O312  1  0.25421937  0.11236455  0.25745235  1
  O  O313  1  0.26862951  0.13924071  0.75166196  1
  O  O314  1  0.25752924  0.60802781  0.25816223  1
  O  O315  1  0.22373401  0.59206724  0.71777716  1
  O  O316  1  0.73268103  0.10608792  0.25542335  1
  O  O317  1  0.82686455  0.16268439  0.76945673  1
  O  O318  1  0.75413945  0.61636808  0.25354254  1
  O  O319  1  0.75930150  0.61507259  0.75583990  1
  O  O320  1  0.37694231  0.11119311  0.37394148  1
  O  O321  1  0.38085581  0.12737169  0.86808868  1
  O  O322  1  0.38493297  0.61127173  0.36898636  1
  O  O323  1  0.34690437  0.64589185  0.83627945  1
  O  O324  1  0.85267000  0.14155328  0.38163578  1
  O  O325  1  0.89361159  0.11453409  0.88805885  1
  O  O326  1  0.86198691  0.61835534  0.36592603  1
  O  O327  1  0.89062687  0.61396681  0.87788787  1
  O  O328  1  0.12367369  0.38759539  0.14483057  1
  O  O329  1  0.12547898  0.35690899  0.60691837  1
  O  O330  1  0.13655735  0.86584131  0.12604464  1
  O  O331  1  0.05485270  0.88761260  0.67750067  1
  O  O332  1  0.63397563  0.39102559  0.11173793  1
  O  O333  1  0.62000969  0.39668965  0.61575907  1
  O  O334  1  0.61606538  0.86701399  0.13320281  1
  O  O335  1  0.59655758  0.88096425  0.65455610  1
  O  O336  1  0.13161311  0.26508732  0.25935699  1
  O  O337  1  0.14173693  0.23932727  0.77678628  1
  O  O338  1  0.08930973  0.80755959  0.28460207  1
  O  O339  1  0.12516398  0.75169818  0.75275425  1
  O  O340  1  0.61437463  0.24936700  0.24342724  1
  O  O341  1  0.61630614  0.25222483  0.76589557  1
  O  O342  1  0.63615928  0.76441352  0.25952219  1
  O  O343  1  0.63311035  0.75673334  0.76272959  1
  O  O344  1  0.38913583  0.25421083  0.23719835  1
  O  O345  1  0.38414068  0.24443812  0.75715471  1
  O  O346  1  0.36462454  0.73213185  0.26568780  1
  O  O347  1  0.34858233  0.68768850  0.77489767  1
  O  O348  1  0.81156720  0.22903208  0.22235823  1
  O  O349  1  0.81598660  0.22137443  0.72355898  1
  O  O350  1  0.86381989  0.72715752  0.24521711  1
  O  O351  1  0.89339911  0.72948648  0.75276849  1
  O  O352  1  0.36736201  0.51069374  0.49203218  1
  O  O353  1  0.44453570  0.51302927  1.04617045  1
  O  O354  1  0.37556835  0.98466969  0.47781404  1
  O  O355  1  0.37048390  1.00510645  0.98980717  1
  O  O356  1  0.85369611  0.49224323  0.47517410  1
  O  O357  1  0.87504077  0.49493638  0.98303731  1
  O  O358  1  0.86364555  0.98457066  0.50409215  1
  O  O359  1  0.87405751  0.98871364  0.98983948  1
  O  O360  1  0.14484741  0.02972894  0.01164753  1
  O  O361  1  0.11910287  -0.01710530  0.48849409  1
  O  O362  1  0.12903217  0.48971570  0.01541338  1
  O  O363  1  0.13806654  0.51441141  0.47762425  1
  O  O364  1  0.65016472  0.02465759  -0.01734499  1
  O  O365  1  0.62160051  -0.03841259  0.52523500  1
  O  O366  1  0.63328444  0.52687658  -0.01163234  1
  O  O367  1  0.62787587  0.52200504  0.51298574  1
  O  O368  1  0.37764221  0.36913229  0.12523136  1
  O  O369  1  0.38832229  0.37785469  0.60139514  1
  O  O370  1  0.36014746  0.86252436  0.09755818  1
  O  O371  1  0.39514847  0.88399889  0.60833468  1
  O  O372  1  0.87206552  0.39342801  0.11105804  1
  O  O373  1  0.87885908  0.36546708  0.61070285  1
  O  O374  1  0.87262998  0.87599226  0.13302931  1
  O  O375  1  0.87163977  0.87658387  0.61944768  1
  O  O376  1  0.14378560  0.14033639  0.36500648  1
  O  O377  1  0.11809226  0.14902763  0.90290670  1
  O  O378  1  0.10632451  0.64328586  0.38298309  1
  O  O379  1  0.12035875  0.64404322  0.84590187  1
  O  O380  1  0.62454288  0.13543284  0.38303085  1
  O  O381  1  0.63028291  0.14925915  0.88714337  1
  O  O382  1  0.62818987  0.63269243  0.38141199  1
  O  O383  1  0.63549314  0.64508349  0.87872358  1
