# generated using pymatgen
data_VZnO4
_symmetry_space_group_name_H-M   'P 1'
_cell_length_a   16.91476046
_cell_length_b   16.92653836
_cell_length_c   16.92318175
_cell_angle_alpha   89.48538812
_cell_angle_beta   90.35251684
_cell_angle_gamma   89.71206985
_symmetry_Int_Tables_number   1
_chemical_formula_structural   VZnO4
_chemical_formula_sum   'V64 Zn64 O256'
_cell_volume   4844.89843026
_cell_formula_units_Z   64
loop_
 _symmetry_equiv_pos_site_id
 _symmetry_equiv_pos_as_xyz
  1  'x, y, z'
loop_
 _atom_site_type_symbol
 _atom_site_label
 _atom_site_symmetry_multiplicity
 _atom_site_fract_x
 _atom_site_fract_y
 _atom_site_fract_z
 _atom_site_occupancy
  V  V0  1  0.26231310  0.36326362  0.13368216  1
  V  V1  1  0.26633299  0.74010828  -0.01980567  1
  V  V2  1  0.12310066  0.37917531  0.76642225  1
  V  V3  1  0.25431507  0.37281790  0.61631601  1
  V  V4  1  0.75424872  0.90952352  0.63074427  1
  V  V5  1  0.00662796  0.23014419  0.72972353  1
  V  V6  1  0.24238326  0.87547808  0.62067870  1
  V  V7  1  0.38508226  0.62749374  0.75052637  1
  V  V8  1  0.11614003  0.51231782  0.62404049  1
  V  V9  1  0.52327989  0.87517977  0.36762998  1
  V  V10  1  -0.01548359  0.00529406  0.48128442  1
  V  V11  1  0.24889188  0.24129781  -0.00371222  1
  V  V12  1  0.36935045  0.14258828  0.74593285  1
  V  V13  1  0.24730356  0.00757823  0.75359558  1
  V  V14  1  0.76020112  0.26829917  0.51854560  1
  V  V15  1  0.88092605  0.38853719  0.52385596  1
  V  V16  1  0.49660256  0.13522839  0.62197559  1
  V  V17  1  0.11691386  0.62980625  0.49119573  1
  V  V18  1  0.49941252  0.49546795  0.50751187  1
  V  V19  1  0.37396894  0.87804709  0.00797992  1
  V  V20  1  0.88004369  0.88565686  -0.01383124  1
  V  V21  1  0.76586692  0.13228753  0.36824363  1
  V  V22  1  0.49785311  0.36700826  0.85177380  1
  V  V23  1  0.12426318  0.36929179  0.25140176  1
  V  V24  1  0.87735690  0.64771829  0.73537013  1
  V  V25  1  0.73039893  0.62820669  0.37372089  1
  V  V26  1  0.88303866  0.23918845  0.13944335  1
  V  V27  1  0.37140757  0.75219414  0.62961207  1
  V  V28  1  0.38731951  -0.01018529  0.86508220  1
  V  V29  1  0.25727985  0.51610526  0.25472020  1
  V  V30  1  0.62027174  0.24722887  0.87249989  1
  V  V31  1  0.49027788  0.23390476  0.25123347  1
  V  V32  1  0.01542010  0.75187298  0.26642509  1
  V  V33  1  0.76812551  0.12778107  0.86976839  1
  V  V34  1  0.76268146  0.48590665  0.74931625  1
  V  V35  1  0.00773255  0.63063331  0.11939109  1
  V  V36  1  0.39096903  0.36367886  0.00880638  1
  V  V37  1  0.50895583  0.62598080  0.12796189  1
  V  V38  1  0.11926501  0.86980010  0.76724963  1
  V  V39  1  0.24942276  0.51590154  0.75445465  1
  V  V40  1  0.24265165  -0.00595645  0.24117024  1
  V  V41  1  0.50642492  0.63486078  0.61875339  1
  V  V42  1  0.61707797  0.75228831  0.86106113  1
  V  V43  1  0.75974219  0.62183821  0.87779414  1
  V  V44  1  0.13096052  0.50775824  0.11659370  1
  V  V45  1  0.62086025  0.88911772  0.74139640  1
  V  V46  1  0.45568989  0.04231030  0.47704527  1
  V  V47  1  0.37722369  0.87455460  0.48643251  1
  V  V48  1  0.63735611  0.11964866  0.50717350  1
  V  V49  1  -0.00944473  0.37426671  0.38247260  1
  V  V50  1  0.87257904  0.86071848  0.50648838  1
  V  V51  1  0.74644193  0.76770829  0.00123984  1
  V  V52  1  0.75193632  0.38366688  0.12206816  1
  V  V53  1  0.88440590  0.60258352  0.26655374  1
  V  V54  1  0.38105408  0.50377408  0.88217617  1
  V  V55  1  0.22281253  0.21675234  0.45144549  1
  V  V56  1  0.36850631  0.51926616  0.38310239  1
  V  V57  1  0.76235712  0.25479642  -0.00110254  1
  V  V58  1  0.62595700  0.48227087  0.63674306  1
  V  V59  1  0.52597770  -0.00106337  0.00390300  1
  V  V60  1  0.11895623  0.01340871  0.60914406  1
  V  V61  1  0.62802847  0.27282288  0.38659071  1
  V  V62  1  0.48706420  0.37754235  0.37335529  1
  V  V63  1  0.24570866  0.74306278  0.48682232  1
  Zn  Zn64  1  0.14392752  0.16737324  0.26905746  1
  Zn  Zn65  1  0.18074171  0.19552383  0.68537124  1
  Zn  Zn66  1  0.19651577  0.70395445  0.19201436  1
  Zn  Zn67  1  0.06164082  0.68568837  0.68994298  1
  Zn  Zn68  1  0.70075171  0.24419052  0.21637079  1
  Zn  Zn69  1  0.67996600  0.19714572  0.69451312  1
  Zn  Zn70  1  0.72762221  0.49618223  0.23966470  1
  Zn  Zn71  1  0.65886103  0.65526955  0.72754831  1
  Zn  Zn72  1  0.30431275  0.29931950  0.32768645  1
  Zn  Zn73  1  0.30365823  0.32075316  0.81741171  1
  Zn  Zn74  1  0.30983047  0.80729566  0.30501628  1
  Zn  Zn75  1  0.30567750  0.81225253  0.80884790  1
  Zn  Zn76  1  0.81935347  0.32157575  0.31291458  1
  Zn  Zn77  1  0.80968777  0.27858557  0.78521809  1
  Zn  Zn78  1  0.85617634  0.78749830  0.33789583  1
  Zn  Zn79  1  0.80254868  0.81558412  0.81438159  1
  Zn  Zn80  1  0.17009206  0.44294688  0.43288833  1
  Zn  Zn81  1  0.20216005  0.43488521  0.94536436  1
  Zn  Zn82  1  0.17966987  0.93423305  0.43727017  1
  Zn  Zn83  1  0.15051480  0.88328819  0.97764841  1
  Zn  Zn84  1  0.70614525  0.46702222  0.45854207  1
  Zn  Zn85  1  0.65262518  0.40865256  0.98118792  1
  Zn  Zn86  1  0.72608481  0.92585429  0.41732913  1
  Zn  Zn87  1  0.70790361  0.93607218  0.91710687  1
  Zn  Zn88  1  0.33059114  0.06250301  0.06126784  1
  Zn  Zn89  1  0.30482266  0.07267111  0.56321524  1
  Zn  Zn90  1  0.32173653  0.55912995  0.06760043  1
  Zn  Zn91  1  0.30868242  0.56153674  0.56612095  1
  Zn  Zn92  1  0.79163003  0.07058933  0.06582971  1
  Zn  Zn93  1  0.81205463  0.06690902  0.54796886  1
  Zn  Zn94  1  0.82430965  0.56552806  0.06671633  1
  Zn  Zn95  1  0.81112241  0.57066268  0.56540737  1
  Zn  Zn96  1  0.43555652  0.43659152  0.20022472  1
  Zn  Zn97  1  0.43204378  0.44058972  0.68472544  1
  Zn  Zn98  1  0.44788576  0.96087199  0.18395838  1
  Zn  Zn99  1  0.43430164  0.95039468  0.67140881  1
  Zn  Zn100  1  0.94456515  0.42724073  0.17350323  1
  Zn  Zn101  1  0.94002014  0.44003493  0.68986588  1
  Zn  Zn102  1  0.86304244  0.75034853  0.13799242  1
  Zn  Zn103  1  0.94295939  0.83251961  0.69190917  1
  Zn  Zn104  1  0.05811637  -0.00373969  0.30880569  1
  Zn  Zn105  1  0.01396290  0.01892538  0.74963264  1
  Zn  Zn106  1  0.06448649  0.55082202  0.31331408  1
  Zn  Zn107  1  0.02862523  0.52938480  0.80588568  1
  Zn  Zn108  1  0.57665598  0.06989481  0.32519711  1
  Zn  Zn109  1  0.56169752  0.06915525  0.80871666  1
  Zn  Zn110  1  0.58581691  0.54536145  0.33411438  1
  Zn  Zn111  1  0.59882804  0.52568765  0.85407157  1
  Zn  Zn112  1  0.42009641  0.23197887  0.47614828  1
  Zn  Zn113  1  0.43704037  0.17856015  0.93458047  1
  Zn  Zn114  1  0.44861925  0.69654289  0.43733436  1
  Zn  Zn115  1  0.44011542  0.68774583  0.93762809  1
  Zn  Zn116  1  0.98118056  0.16605810  0.38423514  1
  Zn  Zn117  1  0.92821041  0.06129037  0.95314521  1
  Zn  Zn118  1  0.93797992  0.68122420  0.44471585  1
  Zn  Zn119  1  0.92701969  0.68590907  0.94094549  1
  Zn  Zn120  1  0.09126231  0.22717530  0.11043230  1
  Zn  Zn121  1  0.07194568  0.31498995  0.56267895  1
  Zn  Zn122  1  0.01205401  0.85921745  0.11718736  1
  Zn  Zn123  1  0.05894162  0.81383408  0.55026658  1
  Zn  Zn124  1  0.56902339  0.29591830  0.07229971  1
  Zn  Zn125  1  0.56005979  0.31211872  0.56599689  1
  Zn  Zn126  1  0.55748051  0.81505642  0.03677081  1
  Zn  Zn127  1  0.54787633  0.84102427  0.58846805  1
  O  O128  1  0.12509954  0.13075745  0.16131597  1
  O  O129  1  0.13719495  0.11051467  0.62200152  1
  O  O130  1  0.12316776  0.61446180  0.13494001  1
  O  O131  1  0.13021660  0.61605478  0.63095524  1
  O  O132  1  0.66374252  0.04673507  0.18234738  1
  O  O133  1  0.60870641  0.14193641  0.62124598  1
  O  O134  1  0.60868328  0.60910801  0.11490181  1
  O  O135  1  0.60763284  0.62802181  0.62929158  1
  O  O136  1  0.38662704  0.39163579  0.37915995  1
  O  O137  1  0.38658574  0.37806347  0.88703268  1
  O  O138  1  0.37237025  0.86388540  0.38534753  1
  O  O139  1  0.37484807  0.88870379  0.86003061  1
  O  O140  1  0.88827088  0.38777054  0.37655825  1
  O  O141  1  0.98307277  0.34072208  0.93202338  1
  O  O142  1  0.83832886  0.87683961  0.40328796  1
  O  O143  1  0.82108950  0.89618703  0.89266030  1
  O  O144  1  0.23008703  0.00158507  0.34713027  1
  O  O145  1  0.25712870  0.00269579  0.85131516  1
  O  O146  1  0.26268562  0.50233097  0.37165939  1
  O  O147  1  0.26979272  0.49158101  0.86313798  1
  O  O148  1  0.75502573  0.03205534  0.38078822  1
  O  O149  1  0.73871476  0.03420991  0.86070681  1
  O  O150  1  0.70074519  0.50495689  0.35148168  1
  O  O151  1  0.74627426  0.51629405  0.85233325  1
  O  O152  1  0.25635557  0.50288636  0.14184919  1
  O  O153  1  0.24636992  0.49950835  0.64363071  1
  O  O154  1  0.25572198  0.99571172  0.13789202  1
  O  O155  1  0.24633038  0.98846032  0.62159452  1
  O  O156  1  0.76426879  0.48787486  0.12615847  1
  O  O157  1  0.73433647  0.50227297  0.63643548  1
  O  O158  1  0.71232590  1.00668711  0.13587276  1
  O  O159  1  0.75667977  1.00931150  0.63459914  1
  O  O160  1  0.02053153  0.38923018  0.25952980  1
  O  O161  1  0.02149421  0.41252525  0.76731886  1
  O  O162  1  0.00423558  0.84938700  0.23433373  1
  O  O163  1  0.01567620  0.89960009  0.75541117  1
  O  O164  1  0.50094738  0.37373345  0.27143465  1
  O  O165  1  0.48722297  0.36432198  0.75333965  1
  O  O166  1  0.49736315  0.90057460  0.27187570  1
  O  O167  1  0.51957955  0.87921239  0.70559923  1
  O  O168  1  0.50072325  0.13461761  0.27016533  1
  O  O169  1  0.49053366  0.12898183  0.72851112  1
  O  O170  1  0.51487413  0.64598245  0.22847021  1
  O  O171  1  0.48705898  0.62364324  0.73258898  1
  O  O172  1  0.97752408  0.03118797  0.21025752  1
  O  O173  1  1.01776990  0.13290683  0.75521983  1
  O  O174  1  1.00041920  0.62278308  0.24797892  1
  O  O175  1  0.98322486  0.62130839  0.75349381  1
  O  O176  1  0.37853373  0.26137280  -0.00014675  1
  O  O177  1  0.31437606  0.26866953  0.45195952  1
  O  O178  1  0.37665523  0.76749035  -0.01064379  1
  O  O179  1  0.36404940  0.75820101  0.50682767  1
  O  O180  1  0.86076814  0.24990028  0.00825091  1
  O  O181  1  0.85928558  0.26432163  0.50685937  1
  O  O182  1  0.85671530  0.76772849  -0.02440786  1
  O  O183  1  0.87789097  0.76039317  0.50600458  1
  O  O184  1  0.14057688  0.26298497  0.48946473  1
  O  O185  1  0.14954200  0.25022231  1.01779082  1
  O  O186  1  0.13773241  0.74420603  0.50066598  1
  O  O187  1  0.15482064  0.75293568  1.01215967  1
  O  O188  1  0.63566558  0.25442464  0.49893007  1
  O  O189  1  0.63492476  0.26828876  0.98330317  1
  O  O190  1  0.63887110  0.75537346  0.50453893  1
  O  O191  1  0.63655622  0.75832752  0.97893525  1
  O  O192  1  0.50848731  0.24846734  0.15222683  1
  O  O193  1  0.47523454  0.23404534  0.58478819  1
  O  O194  1  0.51496894  0.72980766  0.11295302  1
  O  O195  1  0.48732998  0.74069887  0.61224117  1
  O  O196  1  0.98154086  0.24603766  0.12001255  1
  O  O197  1  1.01078327  0.24387549  0.63053637  1
  O  O198  1  1.01366099  0.73156182  0.13973034  1
  O  O199  1  1.00311868  0.76078464  0.63057661  1
  O  O200  1  0.01206688  0.27694281  0.37049066  1
  O  O201  1  0.01337220  0.27709557  0.91717177  1
  O  O202  1  -0.01689435  0.75596066  0.36570718  1
  O  O203  1  0.03717299  0.72410360  0.88782950  1
  O  O204  1  0.50251522  0.26998466  0.39436371  1
  O  O205  1  0.50643962  0.25953672  0.88051185  1
  O  O206  1  0.50673255  0.77512280  0.37962938  1
  O  O207  1  0.51896446  0.74115593  0.87743115  1
  O  O208  1  0.23479173  0.12398107  0.49115525  1
  O  O209  1  0.27170611  0.14301759  1.01293194  1
  O  O210  1  0.24518208  0.64029654  0.50671418  1
  O  O211  1  0.27990629  0.64277970  1.00476548  1
  O  O212  1  0.74954847  0.14983331  0.49909562  1
  O  O213  1  0.74571096  0.14275512  0.98366094  1
  O  O214  1  0.75060823  0.58379913  0.46975862  1
  O  O215  1  0.76727572  0.61379356  0.97883044  1
  O  O216  1  0.26807973  0.36741234  0.01348035  1
  O  O217  1  0.23488569  0.39705105  0.51983716  1
  O  O218  1  0.26768793  0.86396611  -0.00873696  1
  O  O219  1  0.25326723  0.86956805  0.50213534  1
  O  O220  1  0.75931985  0.36736745  0.00669296  1
  O  O221  1  0.76654105  0.37862502  0.50151023  1
  O  O222  1  0.74279698  0.86721544  0.01821650  1
  O  O223  1  0.75769010  0.88547938  0.52444973  1
  O  O224  1  0.14716175  0.49086236  0.24637036  1
  O  O225  1  0.13845730  0.50654935  0.75238205  1
  O  O226  1  0.13782196  0.99166306  0.22145087  1
  O  O227  1  0.14035936  0.99202348  0.73354887  1
  O  O228  1  0.61123918  0.50670043  0.23287815  1
  O  O229  1  0.63559015  0.50766893  0.74207163  1
  O  O230  1  0.63875500  1.00381853  0.24468279  1
  O  O231  1  0.62032127  0.98850461  0.75325034  1
  O  O232  1  0.34642576  -0.02160322  0.25288661  1
  O  O233  1  0.36433722  0.00260668  0.74743186  1
  O  O234  1  0.36743640  0.50207601  0.26803017  1
  O  O235  1  0.36780606  0.50868243  0.75569081  1
  O  O236  1  0.83517828  -0.01553832  0.24424706  1
  O  O237  1  0.87927806  0.07742043  0.70342629  1
  O  O238  1  0.88944439  0.50401511  0.24303839  1
  O  O239  1  0.86369578  0.51302287  0.73869531  1
  O  O240  1  0.16039171  0.36263675  0.34577017  1
  O  O241  1  0.13855362  0.38489589  0.86508212  1
  O  O242  1  0.11097324  0.90477065  0.35447491  1
  O  O243  1  0.13701555  0.87806922  0.86490934  1
  O  O244  1  0.61320135  0.37253615  0.39117481  1
  O  O245  1  0.59907318  0.37963318  0.87475517  1
  O  O246  1  0.62287671  0.89073916  0.37827928  1
  O  O247  1  0.63268181  0.86454468  0.85200919  1
  O  O248  1  0.40247792  0.06274214  0.14637192  1
  O  O249  1  0.37700653  0.12899354  0.63508970  1
  O  O250  1  0.40068497  0.62530665  0.13071933  1
  O  O251  1  0.37887357  0.63417854  0.63026475  1
  O  O252  1  0.86003374  0.13958216  0.12555266  1
  O  O253  1  0.88108463  0.12179389  0.64424889  1
  O  O254  1  0.89455708  0.62243871  0.13657553  1
  O  O255  1  0.86689509  0.63959028  0.63561073  1
  O  O256  1  0.26493386  0.26542514  0.12414792  1
  O  O257  1  0.23863435  0.27200135  0.62689009  1
  O  O258  1  0.20143076  0.75842328  0.07978543  1
  O  O259  1  0.25787332  0.76775802  0.61485935  1
  O  O260  1  0.75023348  0.25631394  0.11338943  1
  O  O261  1  0.74326726  0.25924145  0.61700269  1
  O  O262  1  0.75625287  0.72799529  0.09393279  1
  O  O263  1  0.69559855  0.72757398  0.54123164  1
  O  O264  1  0.21613118  0.21163572  0.34614387  1
  O  O265  1  0.25331514  0.25538459  0.89551823  1
  O  O266  1  0.25346132  0.75129415  0.38882822  1
  O  O267  1  0.25261681  0.74159201  0.88006348  1
  O  O268  1  0.73750038  0.26247830  0.38653568  1
  O  O269  1  0.74429083  0.25478980  0.88644234  1
  O  O270  1  0.76885014  0.72047060  0.37940755  1
  O  O271  1  0.74044151  0.73829116  0.88155770  1
  O  O272  1  0.02522717  0.11400490  0.00289987  1
  O  O273  1  -0.00956128  0.10559961  0.48596695  1
  O  O274  1  -0.00612060  0.63402277  0.01952282  1
  O  O275  1  0.01917632  0.63735223  0.51117096  1
  O  O276  1  0.49201630  0.09655129  -0.00719362  1
  O  O277  1  0.52830242  0.12410817  0.50122494  1
  O  O278  1  0.49398938  0.62192635  0.02191084  1
  O  O279  1  0.49572555  0.61634911  0.51377335  1
  O  O280  1  0.49667920  0.39032869  0.50103270  1
  O  O281  1  0.49101293  0.37195484  1.01074012  1
  O  O282  1  0.48346038  0.87714736  0.49629933  1
  O  O283  1  0.48655910  0.88970780  0.98866777  1
  O  O284  1  0.98592156  0.36672491  0.49553701  1
  O  O285  1  1.00040934  0.50907339  0.91942762  1
  O  O286  1  0.97899506  0.88283813  0.50492604  1
  O  O287  1  0.97014784  0.88543701  0.95084800  1
  O  O288  1  0.49592889  0.49595194  0.38741968  1
  O  O289  1  0.48536663  0.48233298  0.86259707  1
  O  O290  1  0.50341453  0.99982988  0.39595012  1
  O  O291  1  0.48876113  0.99837644  0.86617224  1
  O  O292  1  1.05162085  0.46229016  0.39028851  1
  O  O293  1  0.92148155  0.49034750  0.92699269  1
  O  O294  1  0.97359382  0.98769745  0.38289582  1
  O  O295  1  1.01909410  1.02365968  0.88230286  1
  O  O296  1  -0.01654757  0.00683378  0.14168455  1
  O  O297  1  0.02063681  0.00365922  0.62974454  1
  O  O298  1  0.02500163  0.50388308  0.12625563  1
  O  O299  1  0.01743235  0.50432913  0.62911103  1
  O  O300  1  0.53002710  -0.01417841  0.10579424  1
  O  O301  1  0.47965016  0.02842577  0.59164956  1
  O  O302  1  0.49514540  0.52215449  0.14056608  1
  O  O303  1  0.50599576  0.50947729  0.62569965  1
  O  O304  1  0.26438641  0.37666757  0.23968908  1
  O  O305  1  0.23828742  0.38593672  0.74500484  1
  O  O306  1  0.23503342  0.88768242  0.25399269  1
  O  O307  1  0.24307714  0.88331704  0.73492254  1
  O  O308  1  0.74285987  0.36509966  0.23151741  1
  O  O309  1  0.76992137  0.38740215  0.75876365  1
  O  O310  1  0.82687067  0.91560030  0.22439914  1
  O  O311  1  0.74093332  0.87560783  0.73412300  1
  O  O312  1  0.25188174  0.09792119  0.24593913  1
  O  O313  1  0.25830903  0.11628189  0.73737399  1
  O  O314  1  0.24702730  0.61281883  0.25486161  1
  O  O315  1  0.26371981  0.61486249  0.75441631  1
  O  O316  1  0.73994726  0.14989219  0.27114323  1
  O  O317  1  0.76414077  0.16842959  0.76790662  1
  O  O318  1  0.77393086  0.60863912  0.26916423  1
  O  O319  1  0.76778015  0.62866070  0.75321507  1
  O  O320  1  0.39495176  0.11727849  0.44881538  1
  O  O321  1  0.38258152  0.11242392  0.84984641  1
  O  O322  1  0.38506236  0.61787421  0.37812557  1
  O  O323  1  0.39052243  0.60978051  0.86872677  1
  O  O324  1  0.86436139  0.15111750  0.37600367  1
  O  O325  1  0.86943686  0.12444383  0.87978054  1
  O  O326  1  0.89804235  0.60569384  0.36778837  1
  O  O327  1  0.86556421  0.63148079  0.86012392  1
  O  O328  1  0.15216993  0.39359291  0.13503160  1
  O  O329  1  0.13039248  0.39515358  0.63969307  1
  O  O330  1  0.09393349  0.91195183  0.06608015  1
  O  O331  1  0.13824944  0.88244284  0.61757172  1
  O  O332  1  0.64631984  0.37976220  0.10502128  1
  O  O333  1  0.61431321  0.38370415  0.63891776  1
  O  O334  1  0.61797589  0.85836728  0.14366033  1
  O  O335  1  0.64673826  0.87915025  0.62871693  1
  O  O336  1  0.12178596  0.27176601  0.21913989  1
  O  O337  1  0.10995089  0.27147894  0.75301367  1
  O  O338  1  0.11518858  0.73524145  0.26615353  1
  O  O339  1  0.12058039  0.77243930  0.74815519  1
  O  O340  1  0.60600185  0.25334884  0.28351307  1
  O  O341  1  0.63169618  0.26771700  0.77335918  1
  O  O342  1  0.64116159  0.81900962  0.20162313  1
  O  O343  1  0.62355315  0.76237507  0.75443172  1
  O  O344  1  0.39237426  0.25341821  0.26886214  1
  O  O345  1  0.36280423  0.24009400  0.75590507  1
  O  O346  1  0.29911677  0.75709330  0.21005508  1
  O  O347  1  0.36750762  0.74268791  0.73794178  1
  O  O348  1  0.87393378  0.25176039  0.24047375  1
  O  O349  1  0.92240214  0.27158799  0.76861863  1
  O  O350  1  0.88798551  0.72710144  0.24788466  1
  O  O351  1  0.87963358  0.75170896  0.75481433  1
  O  O352  1  0.38229808  0.50812313  0.49207856  1
  O  O353  1  0.37307762  0.49084664  0.98561888  1
  O  O354  1  0.36388256  0.98085727  0.49793928  1
  O  O355  1  0.36832264  0.98961374  0.97549027  1
  O  O356  1  0.88035709  0.48855747  0.51952875  1
  O  O357  1  0.89832182  0.47934157  0.99992287  1
  O  O358  1  0.88376338  0.99086283  0.51266693  1
  O  O359  1  0.86482483  0.99282016  1.01597283  1
  O  O360  1  0.09209186  0.03019393  -0.09361360  1
  O  O361  1  0.10578730  -0.00683463  0.50399823  1
  O  O362  1  0.15000976  0.50486530  0.01839561  1
  O  O363  1  0.13693804  0.52070873  0.51847237  1
  O  O364  1  0.62131135  -0.01026957  -0.02412486  1
  O  O365  1  0.65056270  0.02419966  0.50938877  1
  O  O366  1  0.61907883  0.51311771  -0.03480457  1
  O  O367  1  0.61393912  0.49773714  0.52642364  1
  O  O368  1  0.37293423  0.38791826  0.11619793  1
  O  O369  1  0.35549063  0.38297669  0.62709683  1
  O  O370  1  0.38475162  0.88580543  0.10623402  1
  O  O371  1  0.36584948  0.86972098  0.61471646  1
  O  O372  1  0.86396305  0.35998719  0.12561068  1
  O  O373  1  0.88527992  0.36999232  0.62216122  1
  O  O374  1  0.89907421  0.85127483  0.09241141  1
  O  O375  1  0.85760349  0.87343547  0.62411935  1
  O  O376  1  0.06488634  0.11056625  0.32536082  1
  O  O377  1  0.09468896  0.09764844  0.97981481  1
  O  O378  1  0.12089607  0.61701598  0.39321988  1
  O  O379  1  0.08797575  0.67069655  0.87986742  1
  O  O380  1  0.63723845  0.14093317  0.39679148  1
  O  O381  1  0.62041555  0.14491861  0.86996935  1
  O  O382  1  0.63002591  0.64541505  0.36794393  1
  O  O383  1  0.64270549  0.63830873  0.85019149  1
