# generated using pymatgen
data_VZnO4
_symmetry_space_group_name_H-M   'P 1'
_cell_length_a   16.92873235
_cell_length_b   16.89967507
_cell_length_c   16.93269628
_cell_angle_alpha   89.75371826
_cell_angle_beta   90.02850172
_cell_angle_gamma   90.01033128
_symmetry_Int_Tables_number   1
_chemical_formula_structural   VZnO4
_chemical_formula_sum   'V64 Zn64 O256'
_cell_volume   4844.23093501
_cell_formula_units_Z   64
loop_
 _symmetry_equiv_pos_site_id
 _symmetry_equiv_pos_as_xyz
  1  'x, y, z'
loop_
 _atom_site_type_symbol
 _atom_site_label
 _atom_site_symmetry_multiplicity
 _atom_site_fract_x
 _atom_site_fract_y
 _atom_site_fract_z
 _atom_site_occupancy
  V  V0  1  0.72454843  0.34882135  0.62204800  1
  V  V1  1  0.48200924  0.50249164  0.01076427  1
  V  V2  1  0.13298442  0.36376349  0.24312944  1
  V  V3  1  -0.03886941  0.25019421  0.73355826  1
  V  V4  1  0.50521535  0.13281854  0.14012208  1
  V  V5  1  0.75028509  0.50675677  0.74821795  1
  V  V6  1  0.48760666  0.64044291  0.62320466  1
  V  V7  1  0.22270518  0.24763771  -0.03424134  1
  V  V8  1  0.49433112  -0.01920375  0.50633425  1
  V  V9  1  0.37554963  0.49985934  0.38664077  1
  V  V10  1  -0.01736389  0.85549260  0.89497654  1
  V  V11  1  0.71011034  0.13028487  0.85694397  1
  V  V12  1  0.64054293  0.87655973  0.76407915  1
  V  V13  1  0.88276483  0.48420614  0.87433325  1
  V  V14  1  0.12412769  0.00359528  0.10034591  1
  V  V15  1  0.23844468  -0.01596798  0.23794646  1
  V  V16  1  0.24252760  0.51596504  0.76738469  1
  V  V17  1  0.24103958  0.63147103  0.39098527  1
  V  V18  1  0.50834866  -0.00399250  0.01153294  1
  V  V19  1  0.48366528  0.88138638  0.88570829  1
  V  V20  1  0.00436440  0.13439044  0.11561364  1
  V  V21  1  0.51688415  0.85663995  0.37471698  1
  V  V22  1  0.25584520  0.77250290  0.50887564  1
  V  V23  1  0.62000882  0.37851200  0.28171745  1
  V  V24  1  0.01242704  0.37006193  0.39327189  1
  V  V25  1  0.63027608  0.60806210  0.01197412  1
  V  V26  1  0.37477738  -0.02307058  0.36914163  1
  V  V27  1  0.37124495  0.63120136  0.24347299  1
  V  V28  1  0.02849089  0.62257719  0.09779725  1
  V  V29  1  -0.02016562  0.25866628  0.25090195  1
  V  V30  1  0.47259895  0.38829855  0.86945619  1
  V  V31  1  0.49569240  0.75454400  0.76494596  1
  V  V32  1  0.50542890  0.73843857  0.22508746  1
  V  V33  1  0.36552320  0.26402004  0.14036780  1
  V  V34  1  0.23888383  0.11769067  0.37912088  1
  V  V35  1  0.74855078  0.63282505  0.87383435  1
  V  V36  1  0.60829399  0.36418200  0.75586880  1
  V  V37  1  0.87721343  0.36340218  0.01331240  1
  V  V38  1  0.77153812  0.86334109  0.61469706  1
  V  V39  1  0.12089743  0.26309236  0.82445958  1
  V  V40  1  0.74996846  0.73597812  0.49717782  1
  V  V41  1  0.88455885  -0.01338985  0.38706125  1
  V  V42  1  0.37762864  0.11918856  0.25361270  1
  V  V43  1  0.84959029  0.35725520  0.50537818  1
  V  V44  1  0.49831434  0.49638329  0.50142643  1
  V  V45  1  0.11285891  0.49947194  0.59536228  1
  V  V46  1  0.87049079  0.11332495  0.24854267  1
  V  V47  1  0.62596087  0.14418075  0.01580093  1
  V  V48  1  0.62338813  0.51075973  0.62903888  1
  V  V49  1  -0.01223164  0.74561287  0.25075261  1
  V  V50  1  0.74078851  0.62427137  0.37572229  1
  V  V51  1  0.02407814  0.11686839  0.61909814  1
  V  V52  1  0.62750989  0.87726570  0.22728301  1
  V  V53  1  -0.01000252  0.74192736  0.74207527  1
  V  V54  1  0.37020636  0.02226795  0.87909990  1
  V  V55  1  0.75222918  0.12793663  0.38196131  1
  V  V56  1  0.62099929  0.12449828  0.49372707  1
  V  V57  1  0.11620948  0.78638891  0.37649590  1
  V  V58  1  0.77834329  0.88211633  0.12150212  1
  V  V59  1  0.12646181  0.87180817  0.76410487  1
  V  V60  1  0.37978351  0.14517347  0.71579987  1
  V  V61  1  0.24264993  0.49535513  0.25014829  1
  V  V62  1  0.75495883  0.49932817  0.24209022  1
  V  V63  1  0.63657997  -0.01657444  0.61635531  1
  Zn  Zn64  1  0.18960787  0.18120262  0.19374538  1
  Zn  Zn65  1  0.17762725  0.09237424  0.74253577  1
  Zn  Zn66  1  0.15053205  0.66188246  0.22182192  1
  Zn  Zn67  1  0.20274768  0.69884814  0.70842929  1
  Zn  Zn68  1  0.67818846  0.18944559  0.20932895  1
  Zn  Zn69  1  0.63568549  0.17853061  0.67934894  1
  Zn  Zn70  1  0.69959290  0.68718335  0.18665049  1
  Zn  Zn71  1  0.68266009  0.69490593  0.68945228  1
  Zn  Zn72  1  0.35830227  0.28846917  0.35850771  1
  Zn  Zn73  1  0.30524656  0.31699944  0.78535069  1
  Zn  Zn74  1  0.30379330  0.80529442  0.30475987  1
  Zn  Zn75  1  0.33925418  0.87915383  0.76755405  1
  Zn  Zn76  1  0.80584212  0.31962192  0.32154484  1
  Zn  Zn77  1  0.79506704  0.30834930  0.81349230  1
  Zn  Zn78  1  0.80515762  0.81151219  0.30922930  1
  Zn  Zn79  1  0.82365858  0.81460972  0.80676784  1
  Zn  Zn80  1  0.18239693  0.43985483  0.43187535  1
  Zn  Zn81  1  0.20332993  0.41859537  0.92398656  1
  Zn  Zn82  1  0.19225648  0.95703561  0.44509302  1
  Zn  Zn83  1  0.15656940  0.98346851  0.89714006  1
  Zn  Zn84  1  0.68574526  0.45302253  0.44557054  1
  Zn  Zn85  1  0.68042648  0.42710528  0.93453737  1
  Zn  Zn86  1  0.69792858  0.93471327  0.42919033  1
  Zn  Zn87  1  0.70372989  0.95950540  0.94649552  1
  Zn  Zn88  1  0.31325013  0.07165453  0.05804360  1
  Zn  Zn89  1  0.31420385  0.06171830  0.55478034  1
  Zn  Zn90  1  0.29982262  0.55472563  0.06258142  1
  Zn  Zn91  1  0.31566377  0.57513880  0.57054721  1
  Zn  Zn92  1  0.81146643  0.07015191  0.06844612  1
  Zn  Zn93  1  0.80997770  0.05062430  0.55063427  1
  Zn  Zn94  1  0.79007181  0.51355108  0.03501329  1
  Zn  Zn95  1  0.87859433  0.50363768  0.37914824  1
  Zn  Zn96  1  0.44101744  0.44524128  0.20079211  1
  Zn  Zn97  1  0.43895650  0.42869064  0.67110854  1
  Zn  Zn98  1  0.44265138  0.93177082  0.19387538  1
  Zn  Zn99  1  0.49842944  1.00550484  0.74020777  1
  Zn  Zn100  1  0.93939164  0.44833176  0.18685104  1
  Zn  Zn101  1  0.92154528  0.43676869  0.65347241  1
  Zn  Zn102  1  0.95032310  0.94352739  0.19256035  1
  Zn  Zn103  1  0.97808672  0.91867764  0.66738262  1
  Zn  Zn104  1  0.05898961  0.06143966  0.30669311  1
  Zn  Zn105  1  0.03318753  0.08037443  0.81405515  1
  Zn  Zn106  1  0.05495067  0.55625660  0.32744064  1
  Zn  Zn107  1  0.03918313  0.53751945  0.75333220  1
  Zn  Zn108  1  0.56557597  0.04770450  0.31816822  1
  Zn  Zn109  1  0.52863989  0.18973212  0.82683877  1
  Zn  Zn110  1  0.56488775  0.56279350  0.30857218  1
  Zn  Zn111  1  0.55895644  0.56614068  0.81768681  1
  Zn  Zn112  1  0.43406274  0.16299054  0.44894302  1
  Zn  Zn113  1  0.38920277  0.20519160  0.94161240  1
  Zn  Zn114  1  0.42729599  0.69014222  0.44064435  1
  Zn  Zn115  1  0.49502196  0.72042678  0.99019875  1
  Zn  Zn116  1  0.94542867  0.18632806  0.44425661  1
  Zn  Zn117  1  0.96829641  0.24584269  0.94401597  1
  Zn  Zn118  1  0.91630061  0.71207303  0.41439807  1
  Zn  Zn119  1  0.96852886  0.63891947  0.89279041  1
  Zn  Zn120  1  0.06608750  0.32126863  0.06495448  1
  Zn  Zn121  1  0.06810343  0.32050561  0.62790303  1
  Zn  Zn122  1  0.02576967  0.82794544  0.09632585  1
  Zn  Zn123  1  0.10602102  0.79499576  0.59156047  1
  Zn  Zn124  1  0.51164243  0.29021792  0.01609272  1
  Zn  Zn125  1  0.54471353  0.30832247  0.43454735  1
  Zn  Zn126  1  0.66909710  0.79613483  0.03890290  1
  Zn  Zn127  1  0.56959866  0.80254977  0.56089609  1
  O  O128  1  0.11083558  0.12417794  0.13242407  1
  O  O129  1  0.12273897  0.10819094  0.63940939  1
  O  O130  1  0.12936607  0.62493778  0.11699104  1
  O  O131  1  0.15656772  0.60044171  0.62847570  1
  O  O132  1  0.61196202  0.12636346  0.13877800  1
  O  O133  1  0.62295312  0.09757258  0.60115911  1
  O  O134  1  0.64220551  0.61560525  0.11058642  1
  O  O135  1  0.60717266  0.61534268  0.64108675  1
  O  O136  1  0.37138168  0.40110619  0.37613461  1
  O  O137  1  0.37484732  0.37832836  0.85886265  1
  O  O138  1  0.38288913  0.87372913  0.36243411  1
  O  O139  1  0.38364066  0.88093304  0.88726487  1
  O  O140  1  0.87285671  0.37647563  0.39920284  1
  O  O141  1  0.86455803  0.38222264  0.86642959  1
  O  O142  1  0.86531519  0.88865234  0.36829393  1
  O  O143  1  0.88617298  0.88474890  0.86987452  1
  O  O144  1  0.25762941  -0.00562548  0.35196313  1
  O  O145  1  0.27198692  0.00703907  0.89256120  1
  O  O146  1  0.26030090  0.51261593  0.37994995  1
  O  O147  1  0.26799520  0.48923242  0.86138114  1
  O  O148  1  0.76754072  0.01279765  0.37844385  1
  O  O149  1  0.75449790  0.04376108  0.88974013  1
  O  O150  1  0.75680876  0.51159662  0.38067975  1
  O  O151  1  0.75114734  0.49342936  0.85369995  1
  O  O152  1  0.25800723  0.49820315  0.15284216  1
  O  O153  1  0.21750074  0.53922344  0.63042196  1
  O  O154  1  0.23703564  1.01523652  0.12823419  1
  O  O155  1  0.27241689  0.96707481  0.62895354  1
  O  O156  1  0.75815313  0.50590573  0.14338251  1
  O  O157  1  0.72667365  0.50220563  0.63376337  1
  O  O158  1  0.76484526  0.98318095  0.12778675  1
  O  O159  1  0.74069616  0.98324326  0.61751699  1
  O  O160  1  0.00715552  0.36510914  0.24992823  1
  O  O161  1  -0.01854662  0.35265063  0.70895503  1
  O  O162  1  0.00688714  0.84609247  0.21994526  1
  O  O163  1  -0.00026344  0.85473458  0.76274935  1
  O  O164  1  0.52175420  0.39596779  0.26219415  1
  O  O165  1  0.50035336  0.38556664  0.75741257  1
  O  O166  1  0.50577988  0.85442933  0.25355906  1
  O  O167  1  0.51883793  0.87908587  0.77799473  1
  O  O168  1  0.48804391  0.10249665  0.24867775  1
  O  O169  1  0.48704677  0.12283774  0.74172622  1
  O  O170  1  0.48676288  0.63176189  0.25372387  1
  O  O171  1  0.50149169  0.65003086  0.75681442  1
  O  O172  1  0.98440221  0.14195612  0.25412215  1
  O  O173  1  0.98401088  0.13970986  0.73133496  1
  O  O174  1  1.02873495  0.64520941  0.25920032  1
  O  O175  1  1.01331744  0.64464704  0.78146085  1
  O  O176  1  0.40074160  0.26255065  0.04057432  1
  O  O177  1  0.37285737  0.25134658  0.52158564  1
  O  O178  1  0.37891857  0.72521648  0.00044804  1
  O  O179  1  0.35486313  0.75278287  0.50649144  1
  O  O180  1  0.86180575  0.26493718  -0.00600731  1
  O  O181  1  0.88085516  0.26123240  0.50693062  1
  O  O182  1  0.85411530  0.71230925  0.04160651  1
  O  O183  1  0.85448271  0.75756665  0.49614414  1
  O  O184  1  0.19896704  0.29425444  0.49995897  1
  O  O185  1  0.12693440  0.24276036  0.99914445  1
  O  O186  1  0.13246658  0.76239486  0.48135352  1
  O  O187  1  0.21278484  0.78111915  1.04454211  1
  O  O188  1  0.60105077  0.22111104  0.49653327  1
  O  O189  1  0.61345353  0.24433585  1.02630470  1
  O  O190  1  0.64797501  0.75630760  0.49745870  1
  O  O191  1  0.60982008  0.71763569  0.99301253  1
  O  O192  1  0.49202813  0.23077358  0.15104918  1
  O  O193  1  0.41443654  0.28928178  0.57586990  1
  O  O194  1  0.49270559  0.74087651  0.12879274  1
  O  O195  1  0.50539272  0.74395734  0.63590913  1
  O  O196  1  1.00635081  0.24303334  0.14496321  1
  O  O197  1  0.99813884  0.23000518  0.62843747  1
  O  O198  1  0.99896740  0.72235872  0.13524896  1
  O  O199  1  1.01727750  0.74145412  0.64347292  1
  O  O200  1  -0.00796024  0.26205904  0.36155236  1
  O  O201  1  0.00578331  0.25326317  0.83579756  1
  O  O202  1  0.00942262  0.76230633  0.36541675  1
  O  O203  1  -0.01718941  0.75490060  0.87571029  1
  O  O204  1  0.46292984  0.25132822  0.38775983  1
  O  O205  1  0.48086204  0.26908165  0.89412724  1
  O  O206  1  0.49687983  0.75685387  0.37528362  1
  O  O207  1  0.50046450  0.76912596  0.87418665  1
  O  O208  1  0.23392174  0.07040322  0.47703205  1
  O  O209  1  0.28213384  0.16447581  0.99156456  1
  O  O210  1  0.25302591  0.63488512  0.49241788  1
  O  O211  1  0.23489618  0.62853935  0.98287828  1
  O  O212  1  0.73694393  0.12121085  0.49158222  1
  O  O213  1  0.72542894  0.13166865  1.02660706  1
  O  O214  1  0.74866121  0.63330627  0.49165912  1
  O  O215  1  0.74083955  0.60770640  0.98418632  1
  O  O216  1  0.25712759  0.33807319  -0.00719113  1
  O  O217  1  0.24891835  0.35764923  0.48281556  1
  O  O218  1  0.33218384  0.88674450  0.06293256  1
  O  O219  1  0.25059007  0.87288051  0.49651916  1
  O  O220  1  0.76919673  0.40089519  0.00035435  1
  O  O221  1  0.73919271  0.37274276  0.51259712  1
  O  O222  1  0.74534768  0.87908033  0.01560420  1
  O  O223  1  0.75460646  0.87212121  0.51206757  1
  O  O224  1  0.13943635  0.50013831  0.26018861  1
  O  O225  1  0.14297557  0.49759571  0.76587774  1
  O  O226  1  0.13718887  0.99928549  0.24187732  1
  O  O227  1  0.11837806  1.00287361  0.78768204  1
  O  O228  1  0.63949678  0.48999073  0.25962517  1
  O  O229  1  0.62445363  0.49431453  0.74365180  1
  O  O230  1  0.61383909  0.97546874  0.24422682  1
  O  O231  1  0.61432178  0.98218081  0.72398499  1
  O  O232  1  0.36649647  -0.00255632  0.25051404  1
  O  O233  1  0.38800215  -0.01282025  0.77614064  1
  O  O234  1  0.36965688  0.51376020  0.26870314  1
  O  O235  1  0.33499509  0.46957267  0.70817158  1
  O  O236  1  0.87818233  0.01237472  0.25509006  1
  O  O237  1  0.83903492  0.08072283  0.71558760  1
  O  O238  1  0.85874172  0.48549834  0.26106276  1
  O  O239  1  0.84999710  0.48908761  0.73518795  1
  O  O240  1  0.11325918  0.37789733  0.36061060  1
  O  O241  1  0.12309232  0.35403828  0.87427695  1
  O  O242  1  0.12444602  0.88547603  0.37674702  1
  O  O243  1  0.09082098  0.88509238  0.87312540  1
  O  O244  1  0.62346521  0.37457734  0.38718025  1
  O  O245  1  0.61312336  0.37401969  0.85855737  1
  O  O246  1  0.61852543  0.86927486  0.36272798  1
  O  O247  1  0.65163923  0.89265698  0.86179529  1
  O  O248  1  0.38342924  0.12073479  0.14321591  1
  O  O249  1  0.38376660  0.12325351  0.61497489  1
  O  O250  1  0.35953526  0.62007204  0.14589057  1
  O  O251  1  0.38954913  0.62524120  0.64098272  1
  O  O252  1  0.88676231  0.12360121  0.14176008  1
  O  O253  1  0.82714741  0.11844310  0.65364861  1
  O  O254  1  0.86510756  0.65254413  0.08120098  1
  O  O255  1  0.93008986  0.62645154  0.57250831  1
  O  O256  1  0.26658427  0.24377105  0.13527513  1
  O  O257  1  0.21885707  0.25203263  0.55823551  1
  O  O258  1  0.24754884  0.74603389  0.09761954  1
  O  O259  1  0.22191055  0.75813135  0.60910422  1
  O  O260  1  0.75176251  0.26571577  0.13002960  1
  O  O261  1  0.70607058  0.25224217  0.62188761  1
  O  O262  1  0.74852461  0.76838501  0.12321972  1
  O  O263  1  0.75186072  0.75585246  0.61709988  1
  O  O264  1  0.27188516  0.21284700  0.38895789  1
  O  O265  1  0.23623141  0.25435896  0.85706151  1
  O  O266  1  0.24423272  0.74648566  0.38691637  1
  O  O267  1  0.33895557  0.72465357  0.92847145  1
  O  O268  1  0.75530299  0.22879796  0.37588611  1
  O  O269  1  0.76115313  0.21693746  0.87019938  1
  O  O270  1  0.75280902  0.73523696  0.37953781  1
  O  O271  1  0.76324562  0.73107813  0.86749039  1
  O  O272  1  -0.00848507  0.15190397  0.01871516  1
  O  O273  1  0.00995326  0.12853130  0.51655871  1
  O  O274  1  0.01242768  0.62652495  -0.00198846  1
  O  O275  1  -0.02696711  0.62165718  0.51460876  1
  O  O276  1  0.50897135  0.12071208  0.02981234  1
  O  O277  1  0.51486941  0.08982641  0.48212527  1
  O  O278  1  0.51644649  0.60453482  -0.00774388  1
  O  O279  1  0.49270088  0.63071659  0.51966820  1
  O  O280  1  0.49804645  0.39789002  0.50019264  1
  O  O281  1  0.49631198  0.39631106  0.97911667  1
  O  O282  1  0.50806859  0.87219598  0.48487284  1
  O  O283  1  0.51206084  0.88709694  0.99063585  1
  O  O284  1  1.02867687  0.35249288  0.48714554  1
  O  O285  1  0.98602322  0.35326780  0.99120401  1
  O  O286  1  1.03424742  0.91858456  0.51327688  1
  O  O287  1  0.98804451  0.85916644  0.99543888  1
  O  O288  1  0.48785120  0.51993622  0.39364767  1
  O  O289  1  0.48922653  0.49223608  0.87091332  1
  O  O290  1  0.49383819  0.97313490  0.37554050  1
  O  O291  1  0.49377315  0.99160762  0.88928682  1
  O  O292  1  0.99143945  0.47620169  0.37626871  1
  O  O293  1  0.97727542  0.49926795  0.84464525  1
  O  O294  1  0.98425587  0.99955600  0.36261098  1
  O  O295  1  0.97935056  1.01760199  0.89909713  1
  O  O296  1  0.01196277  0.02086674  0.12732605  1
  O  O297  1  -0.02338934  0.02594200  0.63551012  1
  O  O298  1  -0.01443187  0.53908935  0.13675856  1
  O  O299  1  0.01762459  0.50931664  0.64205611  1
  O  O300  1  0.49159731  -0.00416344  0.11419108  1
  O  O301  1  0.50407725  -0.02024929  0.60699000  1
  O  O302  1  0.49124790  0.49234146  0.10997892  1
  O  O303  1  0.49978558  0.51161766  0.61811563  1
  O  O304  1  0.23762482  0.38774226  0.26550177  1
  O  O305  1  0.27354789  0.41016299  0.71424025  1
  O  O306  1  0.25467333  0.88485279  0.23599939  1
  O  O307  1  0.22653987  0.87973490  0.77502812  1
  O  O308  1  0.73680576  0.38963832  0.26368860  1
  O  O309  1  0.72314061  0.37380094  0.74053123  1
  O  O310  1  0.73518440  0.86691609  0.23477723  1
  O  O311  1  0.74266100  0.86618642  0.73367957  1
  O  O312  1  0.26225552  0.10873557  0.25852040  1
  O  O313  1  0.28766499  0.10910574  0.73869695  1
  O  O314  1  0.25597736  0.61813860  0.26570497  1
  O  O315  1  0.25659398  0.61807567  0.76190748  1
  O  O316  1  0.76493466  0.13023701  0.25713557  1
  O  O317  1  0.68782559  0.11921814  0.76029591  1
  O  O318  1  0.74740548  0.61257039  0.26263630  1
  O  O319  1  0.74262695  0.61300283  0.75448202  1
  O  O320  1  0.37380031  0.09712986  0.36627953  1
  O  O321  1  0.38884418  0.12240635  0.86383336  1
  O  O322  1  0.36136247  0.62276035  0.37156059  1
  O  O323  1  0.35628936  0.66955326  0.88161655  1
  O  O324  1  0.86946434  0.11957310  0.36910205  1
  O  O325  1  0.91249173  0.04983591  0.93282938  1
  O  O326  1  0.86237935  0.61797653  0.38316150  1
  O  O327  1  0.85558634  0.59750704  0.87412629  1
  O  O328  1  0.12305416  0.37989266  0.14370500  1
  O  O329  1  0.14031499  0.40280782  0.61112365  1
  O  O330  1  0.11512887  0.90391522  0.10542202  1
  O  O331  1  0.10288478  0.89225160  0.66098392  1
  O  O332  1  0.71476397  0.32352894  0.10500534  1
  O  O333  1  0.61776710  0.39078904  0.63798765  1
  O  O334  1  0.61841441  0.86985289  0.12870382  1
  O  O335  1  0.63506842  0.87696183  0.62373514  1
  O  O336  1  0.12799071  0.26203482  0.25195266  1
  O  O337  1  0.13206944  0.27828157  0.72735030  1
  O  O338  1  0.13887585  0.76080231  0.27733996  1
  O  O339  1  0.12264600  0.76517337  0.76094017  1
  O  O340  1  0.63007351  0.28155946  0.24913759  1
  O  O341  1  0.59449775  0.26175194  0.74733195  1
  O  O342  1  0.60890312  0.74893766  0.23896310  1
  O  O343  1  0.61391926  0.77141311  0.74842636  1
  O  O344  1  0.37173992  0.22345835  0.25409442  1
  O  O345  1  0.37356837  0.24555007  0.72839710  1
  O  O346  1  0.38217635  0.73729808  0.25180891  1
  O  O347  1  0.40070988  0.78269017  0.74629924  1
  O  O348  1  0.87865315  0.25544644  0.24953871  1
  O  O349  1  0.86327738  0.24571087  0.74262776  1
  O  O350  1  0.88894301  0.74119902  0.26253415  1
  O  O351  1  0.88926966  0.74380284  0.74088557  1
  O  O352  1  0.38201315  0.51020214  0.49707527  1
  O  O353  1  0.38281415  0.51501456  0.99792065  1
  O  O354  1  0.39026416  0.99164073  0.48743175  1
  O  O355  1  0.39543959  1.01952088  0.99051863  1
  O  O356  1  0.90481830  0.43632591  0.53673992  1
  O  O357  1  0.89161412  0.48542464  0.97895700  1
  O  O358  1  0.88557744  1.00043138  0.48846730  1
  O  O359  1  0.88846480  1.00990899  0.99516929  1
  O  O360  1  0.13212227  0.02282352  0.00271476  1
  O  O361  1  0.07717576  -0.02251376  0.50322690  1
  O  O362  1  0.18625058  0.50821977  0.00414250  1
  O  O363  1  0.11228318  0.50678418  0.49505828  1
  O  O364  1  0.61027823  0.01746874  0.00163687  1
  O  O365  1  0.61849674  -0.01220158  0.50329963  1
  O  O366  1  0.61837905  0.50315790  -0.00519245  1
  O  O367  1  0.60912577  0.50650945  0.51761053  1
  O  O368  1  0.37410350  0.35938592  0.16567686  1
  O  O369  1  0.37624768  0.35230207  0.60476353  1
  O  O370  1  0.37025154  0.85380908  0.11678236  1
  O  O371  1  0.32168241  0.91153899  0.63861321  1
  O  O372  1  0.88435737  0.37869906  0.11260039  1
  O  O373  1  0.82665800  0.35416431  0.62854195  1
  O  O374  1  0.87808177  0.87541605  0.12763690  1
  O  O375  1  0.86784797  0.88080737  0.63109174  1
  O  O376  1  0.14092884  0.12287541  0.35901408  1
  O  O377  1  0.12475898  0.15470955  0.83723772  1
  O  O378  1  0.14196295  0.62088385  0.37773611  1
  O  O379  1  0.17886485  0.57972550  0.96247883  1
  O  O380  1  0.64010038  0.10978352  0.38007449  1
  O  O381  1  0.61214369  0.14352712  0.90385334  1
  O  O382  1  0.63973501  0.61852958  0.37680380  1
  O  O383  1  0.64391895  0.61830489  0.87458251  1
