# generated using pymatgen
data_VZnO4
_symmetry_space_group_name_H-M   'P 1'
_cell_length_a   17.03276527
_cell_length_b   16.99053461
_cell_length_c   16.94359656
_cell_angle_alpha   89.61562236
_cell_angle_beta   89.68705720
_cell_angle_gamma   89.12164936
_symmetry_Int_Tables_number   1
_chemical_formula_structural   VZnO4
_chemical_formula_sum   'V64 Zn64 O256'
_cell_volume   4902.64855630
_cell_formula_units_Z   64
loop_
 _symmetry_equiv_pos_site_id
 _symmetry_equiv_pos_as_xyz
  1  'x, y, z'
loop_
 _atom_site_type_symbol
 _atom_site_label
 _atom_site_symmetry_multiplicity
 _atom_site_fract_x
 _atom_site_fract_y
 _atom_site_fract_z
 _atom_site_occupancy
  V  V0  1  0.12631099  0.37001746  0.26882500  1
  V  V1  1  0.87423251  0.63790461  0.73887907  1
  V  V2  1  0.37350062  0.37752429  0.50293337  1
  V  V3  1  0.35527958  0.13357104  0.75091319  1
  V  V4  1  0.00020511  0.74808023  0.80603068  1
  V  V5  1  0.37135584  0.25752556  0.61906597  1
  V  V6  1  0.48360851  0.01380533  0.00543244  1
  V  V7  1  0.24757198  0.77348049  0.49255019  1
  V  V8  1  0.74915507  0.02219915  0.74865467  1
  V  V9  1  0.12394801  0.75723757  0.35837506  1
  V  V10  1  0.22661634  0.48305262  0.76293905  1
  V  V11  1  0.87639566  0.22166760  0.62863459  1
  V  V12  1  0.01614343  0.48180369  -0.00575522  1
  V  V13  1  0.73204252  0.89486528  0.15418457  1
  V  V14  1  0.51844089  0.37463324  0.38401774  1
  V  V15  1  0.01179626  0.52883863  0.50173952  1
  V  V16  1  0.39045440  0.50412349  0.86496349  1
  V  V17  1  0.50721807  0.25464319  0.75260123  1
  V  V18  1  0.24527841  0.50094027  0.23875937  1
  V  V19  1  0.52146661  0.12807002  0.62271274  1
  V  V20  1  0.86173589  0.87576133  -0.00114600  1
  V  V21  1  -0.02904301  0.38390654  0.38655841  1
  V  V22  1  0.63366411  0.61623808  0.00552285  1
  V  V23  1  0.78436999  0.62126126  0.38505641  1
  V  V24  1  0.64078916  0.87985698  0.74731838  1
  V  V25  1  0.24179328  0.62246423  0.38723296  1
  V  V26  1  0.44844124  0.56093331  0.55346157  1
  V  V27  1  0.37579989  0.63068033  0.23419603  1
  V  V28  1  0.87682421  0.37436439  -0.01379023  1
  V  V29  1  0.13165928  0.62689211  -0.01386019  1
  V  V30  1  0.10841239  0.88207418  0.81105821  1
  V  V31  1  -0.01044377  0.26722325  0.76055790  1
  V  V32  1  0.75816896  0.23988463  0.00013145  1
  V  V33  1  -0.01949724  0.24552396  0.25274947  1
  V  V34  1  0.74221214  0.75564336  0.02401509  1
  V  V35  1  0.75962603  0.37035802  0.12073728  1
  V  V36  1  0.48745299  0.48942924  0.00543518  1
  V  V37  1  0.49712733  0.25232224  0.23181311  1
  V  V38  1  0.50268516  0.87901133  0.87386221  1
  V  V39  1  0.33676910  0.08454028  0.25777994  1
  V  V40  1  0.63135626  0.38798440  0.75399494  1
  V  V41  1  0.26172892  0.35939126  0.13206188  1
  V  V42  1  0.76098221  0.37935590  0.61165575  1
  V  V43  1  0.63191943  0.24404058  0.87289927  1
  V  V44  1  0.63439207  0.51590158  0.60806688  1
  V  V45  1  0.10194551  -0.02854462  0.61185399  1
  V  V46  1  0.12747456  0.15580897  0.01903160  1
  V  V47  1  0.50856961  0.63477336  0.12296840  1
  V  V48  1  0.62248378  0.12093150  0.01193113  1
  V  V49  1  0.38363034  0.50390570  0.37235772  1
  V  V50  1  0.13040162  0.86844879  0.19880208  1
  V  V51  1  -0.00810686  0.74040120  0.23503495  1
  V  V52  1  0.73871622  0.79821638  0.50503278  1
  V  V53  1  0.00317086  0.60656111  0.12710756  1
  V  V54  1  0.62181779  0.38265303  0.23188670  1
  V  V55  1  0.63537981  0.74792190  0.87279600  1
  V  V56  1  0.49454356  -0.00504137  0.50342256  1
  V  V57  1  0.85879118  0.51382730  0.87512155  1
  V  V58  1  0.77064119  0.50044999  0.23985432  1
  V  V59  1  0.86165215  0.02161807  0.88458196  1
  V  V60  1  0.26111040  0.26747765  -0.01869161  1
  V  V61  1  0.76794333  0.11851444  0.35990929  1
  V  V62  1  0.62874035  0.14462896  0.48339236  1
  V  V63  1  0.38510097  0.84423678  0.00428324  1
  Zn  Zn64  1  0.18606001  0.19137982  0.31713886  1
  Zn  Zn65  1  0.17177615  0.19469735  0.66262735  1
  Zn  Zn66  1  0.18377916  0.67330835  0.17292365  1
  Zn  Zn67  1  0.18733921  0.78776968  0.69129459  1
  Zn  Zn68  1  0.67567964  0.19016428  0.19464304  1
  Zn  Zn69  1  0.69650051  0.19931726  0.67761652  1
  Zn  Zn70  1  0.69602768  0.68180265  0.20660207  1
  Zn  Zn71  1  0.69869361  0.69834835  0.67796648  1
  Zn  Zn72  1  0.32256461  0.31944084  0.31509978  1
  Zn  Zn73  1  0.32294975  0.32929365  0.80721931  1
  Zn  Zn74  1  0.31608038  0.79645090  0.17540623  1
  Zn  Zn75  1  0.28355851  0.86977868  0.86086346  1
  Zn  Zn76  1  0.80038488  0.30518513  0.31223296  1
  Zn  Zn77  1  0.80888733  0.31047050  0.80905544  1
  Zn  Zn78  1  0.80216123  0.79371646  0.31936532  1
  Zn  Zn79  1  0.81240212  0.80764285  0.81838047  1
  Zn  Zn80  1  0.18875128  0.44587402  0.44850839  1
  Zn  Zn81  1  0.23716284  0.47449404  0.96996016  1
  Zn  Zn82  1  0.15948936  0.93906362  0.42017512  1
  Zn  Zn83  1  0.21013652  0.80252115  1.04056805  1
  Zn  Zn84  1  0.69855720  0.45038008  0.43062810  1
  Zn  Zn85  1  0.68803758  0.43209312  0.93211270  1
  Zn  Zn86  1  0.65685083  0.95778270  0.40913904  1
  Zn  Zn87  1  0.68769452  0.94024014  0.93414453  1
  Zn  Zn88  1  0.31510247  0.10139863  0.06530024  1
  Zn  Zn89  1  0.32626757  0.03832041  0.61006976  1
  Zn  Zn90  1  0.32398397  0.64138877  0.02873418  1
  Zn  Zn91  1  0.26335129  0.62681336  0.60870361  1
  Zn  Zn92  1  0.79838740  0.04864285  0.07644911  1
  Zn  Zn93  1  0.71966792  0.00827018  0.54640303  1
  Zn  Zn94  1  0.81164976  0.56099415  0.07366949  1
  Zn  Zn95  1  0.82132962  0.56132901  0.56629507  1
  Zn  Zn96  1  0.43612223  0.44802040  0.17928415  1
  Zn  Zn97  1  0.44545063  0.44274338  0.69061360  1
  Zn  Zn98  1  0.43195761  0.94727420  0.17751050  1
  Zn  Zn99  1  0.45920259  0.96982033  0.71384383  1
  Zn  Zn100  1  0.95189085  0.41070725  0.17763141  1
  Zn  Zn101  1  0.94071838  0.44916315  0.68890937  1
  Zn  Zn102  1  0.94505125  0.89243166  0.14564409  1
  Zn  Zn103  1  0.95775767  0.96209282  0.74604767  1
  Zn  Zn104  1  0.04142542  0.04233051  0.25677993  1
  Zn  Zn105  1  0.05769706  0.06690229  0.85406394  1
  Zn  Zn106  1  0.05700273  0.55542979  0.31894497  1
  Zn  Zn107  1  0.04558434  0.55935106  0.82453130  1
  Zn  Zn108  1  0.50279910  0.10637298  0.34606168  1
  Zn  Zn109  1  0.56822401  0.06489449  0.81936021  1
  Zn  Zn110  1  0.56281288  0.54871001  0.29457926  1
  Zn  Zn111  1  0.56092651  0.57113603  0.81279621  1
  Zn  Zn112  1  0.34133538  0.18932309  0.42680401  1
  Zn  Zn113  1  0.43827036  0.19101749  0.93041341  1
  Zn  Zn114  1  0.42113646  0.69481211  0.43136060  1
  Zn  Zn115  1  0.45391259  0.67647525  0.90502983  1
  Zn  Zn116  1  0.88579191  0.21159527  0.42306650  1
  Zn  Zn117  1  0.94929799  0.18726413  0.93748267  1
  Zn  Zn118  1  0.93683395  0.71261196  0.44089080  1
  Zn  Zn119  1  0.92244365  0.67283390  0.97690076  1
  Zn  Zn120  1  0.08440466  0.31175806  0.09086049  1
  Zn  Zn121  1  0.02592952  0.27318562  0.54718432  1
  Zn  Zn122  1  0.05336243  0.81629437  -0.00819593  1
  Zn  Zn123  1  0.07014907  0.82769128  0.54055327  1
  Zn  Zn124  1  0.57019232  0.31243049  0.05709269  1
  Zn  Zn125  1  0.56924779  0.32036343  0.56839049  1
  Zn  Zn126  1  0.56405389  0.81840447  0.06781343  1
  Zn  Zn127  1  0.57290278  0.81131640  0.55822390  1
  O  O128  1  0.09876880  0.14528388  0.11006858  1
  O  O129  1  0.15518225  0.06912245  0.61611061  1
  O  O130  1  0.10954569  0.61471060  0.10807781  1
  O  O131  1  0.09101329  0.63451481  0.63303358  1
  O  O132  1  0.62242156  0.13544879  0.10966791  1
  O  O133  1  0.62306074  0.13414760  0.61952908  1
  O  O134  1  0.61696941  0.62836524  0.12283324  1
  O  O135  1  0.63594487  0.61253380  0.63690578  1
  O  O136  1  0.38821936  0.38670131  0.38828545  1
  O  O137  1  0.38543727  0.40260724  0.86838462  1
  O  O138  1  0.42319296  0.85200184  0.37152599  1
  O  O139  1  0.39737284  0.87186671  0.88415112  1
  O  O140  1  0.87215927  0.38337008  0.37942533  1
  O  O141  1  0.86536159  0.38222301  0.88364936  1
  O  O142  1  0.87716479  0.89551427  0.36589786  1
  O  O143  1  0.86258238  0.87648160  0.89634007  1
  O  O144  1  0.25731869  0.04136770  0.44148405  1
  O  O145  1  0.27340333  0.00292097  0.85979455  1
  O  O146  1  0.26418578  0.51075064  0.37329695  1
  O  O147  1  0.26798651  0.50361118  0.85820652  1
  O  O148  1  0.73181646  0.02281542  0.35782584  1
  O  O149  1  0.75357511  0.00352753  0.86681410  1
  O  O150  1  0.75576298  0.52035106  0.35175738  1
  O  O151  1  0.76080759  0.49791199  0.87114780  1
  O  O152  1  0.25168889  0.49655275  0.14139985  1
  O  O153  1  0.23700413  0.55786464  0.69407235  1
  O  O154  1  0.21808483  1.00969082  0.07022993  1
  O  O155  1  0.21252308  1.00609436  0.63070761  1
  O  O156  1  0.75095762  0.47610132  0.12387817  1
  O  O157  1  0.73999456  0.49497041  0.62478556  1
  O  O158  1  0.73525344  0.99689171  0.15228932  1
  O  O159  1  0.75318507  0.99820739  0.65118427  1
  O  O160  1  0.01922486  0.39529998  0.27742469  1
  O  O161  1  -0.00034909  0.36495344  0.74059224  1
  O  O162  1  0.01355809  0.84618287  0.22155854  1
  O  O163  1  0.00286646  0.85987327  0.78270628  1
  O  O164  1  0.51666528  0.38953462  0.24640177  1
  O  O165  1  0.51665578  0.36152982  0.73976415  1
  O  O166  1  0.51587870  0.87841881  0.23831493  1
  O  O167  1  0.51147111  0.88784017  0.76848586  1
  O  O168  1  0.51853413  0.15369290  0.24352552  1
  O  O169  1  0.50724787  0.13816772  0.74213061  1
  O  O170  1  0.48610401  0.61126596  0.23236218  1
  O  O171  1  0.49295878  0.65784623  0.79931643  1
  O  O172  1  1.00762705  0.14888284  0.25235738  1
  O  O173  1  1.04487505  0.14996854  0.76612344  1
  O  O174  1  1.00363299  0.61489031  0.23306433  1
  O  O175  1  0.98958786  0.64508716  0.77472604  1
  O  O176  1  0.35991620  0.24690456  -0.00882710  1
  O  O177  1  0.38013757  0.26424180  0.50786111  1
  O  O178  1  0.39397898  0.74558810  -0.00519414  1
  O  O179  1  0.34687092  0.75650942  0.48995917  1
  O  O180  1  0.86317117  0.25638468  -0.00656936  1
  O  O181  1  0.90941528  0.23970745  0.52791052  1
  O  O182  1  0.84770336  0.76104237  0.00319073  1
  O  O183  1  0.81424856  0.76666019  0.43568788  1
  O  O184  1  0.10954654  0.16284367  0.41126406  1
  O  O185  1  0.13349419  0.26082568  1.00325271  1
  O  O186  1  0.12900198  0.76090110  0.46806473  1
  O  O187  1  0.13566732  0.72902522  0.98751846  1
  O  O188  1  0.62736482  0.24272711  0.50804750  1
  O  O189  1  0.63417546  0.24256234  0.99044321  1
  O  O190  1  0.64585025  0.76766336  0.48111586  1
  O  O191  1  0.63322184  0.74630449  0.99976260  1
  O  O192  1  0.50305408  0.26559928  0.13123616  1
  O  O193  1  0.50349803  0.24514777  0.63616990  1
  O  O194  1  0.50228532  0.73466405  0.12121835  1
  O  O195  1  0.49385453  0.74175277  0.61565395  1
  O  O196  1  0.99747302  0.29780872  0.15941158  1
  O  O197  1  0.98333832  0.23448397  0.65115584  1
  O  O198  1  0.99921620  0.72144206  0.13170343  1
  O  O199  1  1.05275124  0.69594197  0.62404798  1
  O  O200  1  -0.01992969  0.27235106  0.36028861  1
  O  O201  1  -0.01757551  0.26272565  0.86190682  1
  O  O202  1  0.02021299  0.73653937  0.35181451  1
  O  O203  1  -0.00803338  0.74486674  0.90815532  1
  O  O204  1  0.50689811  0.28082526  0.35583202  1
  O  O205  1  0.51112981  0.24926846  0.85875498  1
  O  O206  1  0.46908406  0.79428971  0.37230470  1
  O  O207  1  0.52248689  0.77319222  0.89189902  1
  O  O208  1  0.26414323  0.10053391  0.48644262  1
  O  O209  1  0.23729659  0.15638858  1.00211953  1
  O  O210  1  0.24705013  0.61962134  0.48721392  1
  O  O211  1  0.22561466  0.58453770  1.00685888  1
  O  O212  1  0.73037900  0.11371859  0.48459020  1
  O  O213  1  0.74488328  0.13712317  1.01285157  1
  O  O214  1  0.76091108  0.61667820  0.48385236  1
  O  O215  1  0.73812925  0.63914056  1.01919414  1
  O  O216  1  0.24888814  0.37123666  0.01984452  1
  O  O217  1  0.27651365  0.39129173  0.50307096  1
  O  O218  1  0.28288333  0.86387255  -0.02151063  1
  O  O219  1  0.23791792  0.87266676  0.48379465  1
  O  O220  1  0.75416676  0.36450399  0.00451521  1
  O  O221  1  0.75054492  0.38557275  0.51157805  1
  O  O222  1  0.74159553  0.86599153  0.00929623  1
  O  O223  1  0.73020645  0.90261096  0.49286967  1
  O  O224  1  0.14435947  0.49879941  0.26097145  1
  O  O225  1  0.11092808  0.48836029  0.75362528  1
  O  O226  1  0.10855917  0.96681587  0.20813869  1
  O  O227  1  0.10553635  0.98196796  0.79036095  1
  O  O228  1  0.64723780  0.48895365  0.24827191  1
  O  O229  1  0.61552555  0.48880409  0.75574753  1
  O  O230  1  0.55818158  0.92322257  0.28506450  1
  O  O231  1  0.63778409  0.98870327  0.76224792  1
  O  O232  1  0.35897791  -0.01576116  0.25440722  1
  O  O233  1  0.36303629  0.02756598  0.72378811  1
  O  O234  1  0.36599662  0.50569058  0.25797723  1
  O  O235  1  0.40549639  0.51952780  0.76562087  1
  O  O236  1  0.90692497  -0.05521012  0.31503707  1
  O  O237  1  0.85493106  0.00601802  0.76879894  1
  O  O238  1  0.86589902  0.47149662  0.23685838  1
  O  O239  1  0.88808754  0.52589716  0.76734692  1
  O  O240  1  0.14585814  0.38012941  0.36724601  1
  O  O241  1  0.13829221  0.42260326  0.79786344  1
  O  O242  1  0.13053129  0.85836292  0.34113104  1
  O  O243  1  0.11341098  0.87655381  0.91018027  1
  O  O244  1  0.62007857  0.39070348  0.36814033  1
  O  O245  1  0.63036741  0.36365103  0.86025259  1
  O  O246  1  0.60093112  0.88216325  0.33801301  1
  O  O247  1  0.62244897  0.86841910  0.87017273  1
  O  O248  1  0.36233399  0.11690605  0.16365947  1
  O  O249  1  0.38785078  0.14894217  0.63281482  1
  O  O250  1  0.38618233  0.62157823  0.12933736  1
  O  O251  1  0.37776204  0.60625692  0.60601889  1
  O  O252  1  0.90270968  0.07183233  0.13963025  1
  O  O253  1  0.85959271  0.12843757  0.63357075  1
  O  O254  1  0.90468058  0.62172862  0.08667762  1
  O  O255  1  0.88106468  0.63102934  0.64040731  1
  O  O256  1  0.25698722  0.26180408  0.12642773  1
  O  O257  1  0.27560036  0.26264462  0.63062693  1
  O  O258  1  0.26282485  0.72198769  0.10341353  1
  O  O259  1  0.22941172  0.73945960  0.59750190  1
  O  O260  1  0.74084677  0.26017621  0.10797203  1
  O  O261  1  0.76925447  0.26690219  0.62456776  1
  O  O262  1  0.73718369  0.75586778  0.12546789  1
  O  O263  1  0.75258653  0.76494103  0.60027076  1
  O  O264  1  0.26123349  0.24935838  0.37638992  1
  O  O265  1  0.25059036  0.28125582  0.88282600  1
  O  O266  1  0.24032070  0.73446237  0.37987996  1
  O  O267  1  0.29822799  0.72560780  0.84198736  1
  O  O268  1  0.77357879  0.23155781  0.39201958  1
  O  O269  1  0.74325262  0.25382879  0.88969223  1
  O  O270  1  0.73802645  0.69112101  0.31896284  1
  O  O271  1  0.73589370  0.75606717  0.89300429  1
  O  O272  1  0.04954309  0.12594750  -0.04719253  1
  O  O273  1  0.08962776  0.09037017  0.42290704  1
  O  O274  1  0.02219161  0.59779808  0.00024513  1
  O  O275  1  0.00408942  0.62759642  0.48927605  1
  O  O276  1  0.51177531  0.12034015  -0.00878599  1
  O  O277  1  0.50902717  0.12936999  0.51862172  1
  O  O278  1  0.51692965  0.61788583  0.01111358  1
  O  O279  1  0.49095614  0.62770024  0.49197527  1
  O  O280  1  0.50388305  0.37354168  0.48736801  1
  O  O281  1  0.52497101  0.39621715  0.99847776  1
  O  O282  1  0.51367198  0.89680606  0.51387297  1
  O  O283  1  0.48976641  0.88806761  0.99765503  1
  O  O284  1  1.00415205  0.36511363  0.48078546  1
  O  O285  1  0.98013045  0.37578094  1.00496806  1
  O  O286  1  0.96276810  0.79894712  0.51859951  1
  O  O287  1  0.96186845  0.87178947  1.02857241  1
  O  O288  1  0.49101540  0.49202207  0.36412565  1
  O  O289  1  0.49717074  0.51282376  0.89551916  1
  O  O290  1  0.49271337  1.00850968  0.40197304  1
  O  O291  1  0.51245072  0.98891084  0.89241152  1
  O  O292  1  0.99775415  0.49352834  0.39381779  1
  O  O293  1  0.98088133  0.49335531  0.89435839  1
  O  O294  1  0.97001494  0.98261094  0.34001620  1
  O  O295  1  0.96346993  1.00067133  0.86582720  1
  O  O296  1  -0.04372191  0.01787899  0.15320641  1
  O  O297  1  0.01188443  -0.00649321  0.65058422  1
  O  O298  1  -0.00238233  0.49508671  0.10818699  1
  O  O299  1  -0.00655645  0.50626269  0.60703595  1
  O  O300  1  0.50126901  -0.00002938  0.10323661  1
  O  O301  1  0.51068033  0.02395183  0.62955070  1
  O  O302  1  0.50194284  0.51196459  0.11126624  1
  O  O303  1  0.51450755  0.50736496  0.61815528  1
  O  O304  1  0.25090811  0.38660904  0.25172245  1
  O  O305  1  0.27947485  0.40386693  0.72877608  1
  O  O306  1  0.22993208  0.86138950  0.21114465  1
  O  O307  1  0.21178936  0.86090345  0.77790651  1
  O  O308  1  0.74470900  0.37408746  0.23528569  1
  O  O309  1  0.73382394  0.37137300  0.74067771  1
  O  O310  1  0.74354800  0.86407445  0.25031083  1
  O  O311  1  0.74149129  0.87311714  0.75449718  1
  O  O312  1  0.23733999  0.10054636  0.27036525  1
  O  O313  1  0.25807524  0.15045012  0.73793228  1
  O  O314  1  0.26123609  0.61422095  0.24872102  1
  O  O315  1  0.26349459  0.69205740  0.78764542  1
  O  O316  1  0.75172304  0.14504137  0.26114867  1
  O  O317  1  0.73479204  0.12073916  0.75220467  1
  O  O318  1  0.77362271  0.59424138  0.20270228  1
  O  O319  1  0.77592853  0.65183909  0.75332842  1
  O  O320  1  0.38596007  0.12442760  0.34413516  1
  O  O321  1  0.37667790  0.13601145  0.84876223  1
  O  O322  1  0.36663846  0.61944480  0.36174646  1
  O  O323  1  0.36843664  0.60373939  0.92105789  1
  O  O324  1  0.86774354  0.10683836  0.37436134  1
  O  O325  1  0.86650127  0.11954187  0.89848367  1
  O  O326  1  0.88213707  0.62936074  0.37548431  1
  O  O327  1  0.86649092  0.61170908  0.89653251  1
  O  O328  1  0.14737684  0.37944188  0.15532004  1
  O  O329  1  0.12430632  0.22786833  0.56823266  1
  O  O330  1  0.11969055  0.84987180  0.09648186  1
  O  O331  1  0.11678364  0.86959053  0.64145301  1
  O  O332  1  0.63650925  0.37937255  0.12913078  1
  O  O333  1  0.63476009  0.39119002  0.63303398  1
  O  O334  1  0.63428009  0.87755136  0.12918260  1
  O  O335  1  0.61812304  0.86575107  0.65176295  1
  O  O336  1  0.11607740  0.26745631  0.26409188  1
  O  O337  1  0.09700773  0.21459208  0.75944825  1
  O  O338  1  0.12274955  0.74592318  0.24284718  1
  O  O339  1  0.10100662  0.75670096  0.77899486  1
  O  O340  1  0.61912804  0.27746713  0.24731297  1
  O  O341  1  0.62113672  0.25626801  0.75364442  1
  O  O342  1  0.59117808  0.71596536  0.28626410  1
  O  O343  1  0.63719132  0.75795206  0.76770301  1
  O  O344  1  0.39925702  0.26677817  0.25038783  1
  O  O345  1  0.39142057  0.25363593  0.74138678  1
  O  O346  1  0.37340426  0.72888820  0.24877920  1
  O  O347  1  0.38637255  0.76433218  0.69124512  1
  O  O348  1  0.88090321  0.25195344  0.24495557  1
  O  O349  1  0.87992693  0.25105004  0.74387550  1
  O  O350  1  0.89596930  0.75193451  0.25560692  1
  O  O351  1  0.89542249  0.74818194  0.76551285  1
  O  O352  1  0.39320361  0.49307203  0.49216532  1
  O  O353  1  0.38912644  0.48091837  1.00299958  1
  O  O354  1  0.39526026  1.00317611  0.53067089  1
  O  O355  1  0.38447981  1.02722330  1.00114431  1
  O  O356  1  0.90478077  0.49945978  0.51866763  1
  O  O357  1  0.86600425  0.48254294  0.99269228  1
  O  O358  1  0.92160760  0.93563453  0.51733541  1
  O  O359  1  0.84984491  0.98874276  0.99200852  1
  O  O360  1  0.15979660  0.02449352  0.02618837  1
  O  O361  1  0.08725216  -0.04981781  0.51172648  1
  O  O362  1  0.11246436  0.46651459  -0.01484200  1
  O  O363  1  0.11221674  0.50525548  0.50371965  1
  O  O364  1  0.63214782  0.02069591  -0.00178288  1
  O  O365  1  0.61105608  0.02250789  0.49990648  1
  O  O366  1  0.63886416  0.51735047  -0.00599989  1
  O  O367  1  0.63232909  0.51154930  0.50857153  1
  O  O368  1  0.35957575  0.37967043  0.13750189  1
  O  O369  1  0.39787750  0.36968362  0.60997257  1
  O  O370  1  0.38219210  0.86538825  0.10781316  1
  O  O371  1  0.43592731  0.79250913  0.64275868  1
  O  O372  1  0.86137821  0.36791180  0.10776146  1
  O  O373  1  0.85651052  0.39201801  0.63506262  1
  O  O374  1  0.83810119  0.88362640  0.11403552  1
  O  O375  1  0.90050259  0.86880021  0.53578920  1
  O  O376  1  0.11686065  0.03734624  0.36222687  1
  O  O377  1  0.21757223  0.04196937  0.88806035  1
  O  O378  1  0.14183341  0.62772176  0.36179626  1
  O  O379  1  0.12681137  0.60681773  0.88775849  1
  O  O380  1  0.60680032  0.14286561  0.38559383  1
  O  O381  1  0.62606486  0.13952049  0.88484654  1
  O  O382  1  0.57908919  0.66672668  0.34193911  1
  O  O383  1  0.62596637  0.64069110  0.89469482  1
