# generated using pymatgen
data_VZnO4
_symmetry_space_group_name_H-M   'P 1'
_cell_length_a   17.02690571
_cell_length_b   17.00321997
_cell_length_c   16.99007801
_cell_angle_alpha   89.46452009
_cell_angle_beta   89.72942874
_cell_angle_gamma   90.22452107
_symmetry_Int_Tables_number   1
_chemical_formula_structural   VZnO4
_chemical_formula_sum   'V64 Zn64 O256'
_cell_volume   4918.52697007
_cell_formula_units_Z   64
loop_
 _symmetry_equiv_pos_site_id
 _symmetry_equiv_pos_as_xyz
  1  'x, y, z'
loop_
 _atom_site_type_symbol
 _atom_site_label
 _atom_site_symmetry_multiplicity
 _atom_site_fract_x
 _atom_site_fract_y
 _atom_site_fract_z
 _atom_site_occupancy
  V  V0  1  0.62065260  0.12677972  0.52308281  1
  V  V1  1  0.87139904  0.62527872  0.25313926  1
  V  V2  1  0.63264751  0.75089168  0.88425244  1
  V  V3  1  0.24188206  0.10886338  0.36300533  1
  V  V4  1  0.51657790  0.74766096  0.27917506  1
  V  V5  1  0.00957568  0.74814668  0.24329941  1
  V  V6  1  0.75039937  0.51849339  0.78467871  1
  V  V7  1  0.38688649  0.49935979  0.87319260  1
  V  V8  1  0.14995626  0.87155882  0.24300159  1
  V  V9  1  0.64319681  0.51038558  0.62400240  1
  V  V10  1  0.38853322  0.26164018  0.61197843  1
  V  V11  1  0.12046840  0.39128358  0.73150021  1
  V  V12  1  0.86554663  0.38918548  0.00136598  1
  V  V13  1  0.74478233  0.35820823  0.13098162  1
  V  V14  1  0.12776383  0.12606040  -0.00045561  1
  V  V15  1  0.49937578  0.01016049  0.53750992  1
  V  V16  1  0.87580951  0.25827877  0.63362778  1
  V  V17  1  0.23265698  0.75377371  -0.01700034  1
  V  V18  1  0.11630724  -0.00634548  0.61716067  1
  V  V19  1  0.52335845  0.88317767  0.38479988  1
  V  V20  1  -0.00113028  0.39159353  0.89051255  1
  V  V21  1  0.37635606  0.36918975  0.00173675  1
  V  V22  1  0.49938663  0.60435473  0.10595538  1
  V  V23  1  0.75017433  0.71816369  0.00532013  1
  V  V24  1  0.44346903  0.21507140  0.19745830  1
  V  V25  1  0.48679135  0.01866769  -0.01325747  1
  V  V26  1  0.72717101  -0.00367010  0.75377564  1
  V  V27  1  0.24104079  0.61724803  0.87066758  1
  V  V28  1  0.12637836  0.25995390  0.87604125  1
  V  V29  1  0.50004909  0.36611107  0.84706880  1
  V  V30  1  0.86467396  0.87779354  -0.00503112  1
  V  V31  1  0.61152225  0.26665384  0.37793815  1
  V  V32  1  0.38603180  0.61548267  0.74346713  1
  V  V33  1  0.87303793  0.11396438  0.75367200  1
  V  V34  1  0.74499429  0.26316387  0.51182729  1
  V  V35  1  0.00298003  0.61672958  0.10509647  1
  V  V36  1  0.01750085  0.86357786  0.87104493  1
  V  V37  1  -0.00784744  0.12676780  0.13210530  1
  V  V38  1  0.23276015  0.24457380  0.49991631  1
  V  V39  1  0.14690543  -0.00785462  0.12035432  1
  V  V40  1  0.37068419  0.88423455  0.50979735  1
  V  V41  1  0.87194361  0.75186626  0.12646837  1
  V  V42  1  0.10875392  0.24809571  0.36445662  1
  V  V43  1  0.24690297  0.12488507  0.85771599  1
  V  V44  1  0.89014570  0.37927259  0.50328026  1
  V  V45  1  0.00573164  -0.00144870  -0.01239639  1
  V  V46  1  0.81803072  0.05270278  0.93369940  1
  V  V47  1  0.38302214  0.13289397  0.73360045  1
  V  V48  1  0.37479586  0.50010908  0.38539677  1
  V  V49  1  0.74231090  0.49212455  0.24998503  1
  V  V50  1  0.63705936  0.37106068  0.75040321  1
  V  V51  1  0.02764651  0.73807267  0.74317845  1
  V  V52  1  0.17506383  0.46293891  0.12567777  1
  V  V53  1  -0.00530958  0.87969102  0.36972824  1
  V  V54  1  0.38496308  0.00024262  0.35849639  1
  V  V55  1  0.38614415  0.74108425  0.07843995  1
  V  V56  1  0.76036134  0.83898642  0.59523383  1
  V  V57  1  0.51840063  0.63293136  0.61764197  1
  V  V58  1  0.24972499  0.25597048  0.00961065  1
  V  V59  1  -0.00421077  0.25437987  0.75337348  1
  V  V60  1  0.74838361  0.12051253  0.37331828  1
  V  V61  1  0.50978136  0.77064855  0.75595041  1
  V  V62  1  0.36926429  0.76414997  0.63180549  1
  V  V63  1  0.88951265  0.48629199  0.36913106  1
  Zn  Zn64  1  0.18430939  0.18290972  0.19169730  1
  Zn  Zn65  1  0.22263163  0.24315043  0.71351113  1
  Zn  Zn66  1  0.18618332  0.69700864  0.15426745  1
  Zn  Zn67  1  0.20039887  0.65893518  0.67866392  1
  Zn  Zn68  1  0.63195097  0.15596995  0.22102001  1
  Zn  Zn69  1  0.69617377  0.18608002  0.69926724  1
  Zn  Zn70  1  0.67964913  0.67214591  0.19112835  1
  Zn  Zn71  1  0.69765460  0.68997872  0.69736692  1
  Zn  Zn72  1  0.29547908  0.31544084  0.35164176  1
  Zn  Zn73  1  0.33277478  0.36296171  0.74781979  1
  Zn  Zn74  1  0.36308885  0.86960327  0.21733445  1
  Zn  Zn75  1  0.35863908  0.77488311  0.85533915  1
  Zn  Zn76  1  0.79232934  0.31584247  0.32714153  1
  Zn  Zn77  1  0.81253887  0.31960851  0.82670056  1
  Zn  Zn78  1  0.79197350  0.83308339  0.38342516  1
  Zn  Zn79  1  0.80264395  0.82530483  0.82597846  1
  Zn  Zn80  1  0.18349049  0.42130003  0.39815125  1
  Zn  Zn81  1  0.19254705  0.44593150  0.93682195  1
  Zn  Zn82  1  0.19513475  0.92921881  0.42202957  1
  Zn  Zn83  1  0.19537637  0.93846800  0.93099742  1
  Zn  Zn84  1  0.69459547  0.44656602  0.43673176  1
  Zn  Zn85  1  0.66966312  0.43339472  0.95084495  1
  Zn  Zn86  1  0.69210727  0.94922754  0.46912201  1
  Zn  Zn87  1  0.65200036  0.90603476  1.00059810  1
  Zn  Zn88  1  0.31467397  0.09345506  0.08270095  1
  Zn  Zn89  1  0.31181147  0.07746077  0.55923266  1
  Zn  Zn90  1  0.31239765  0.56796687  0.05244889  1
  Zn  Zn91  1  0.31478473  0.59303301  0.55020842  1
  Zn  Zn92  1  0.80848564  0.18219674  0.07163071  1
  Zn  Zn93  1  0.79878338  0.07975836  0.58362252  1
  Zn  Zn94  1  0.81467054  0.55704198  0.07175359  1
  Zn  Zn95  1  0.81791328  0.55461090  0.56389206  1
  Zn  Zn96  1  0.37679007  0.45538067  0.17871093  1
  Zn  Zn97  1  0.46345267  0.43044991  0.64316897  1
  Zn  Zn98  1  0.62283229  0.93457634  0.21060865  1
  Zn  Zn99  1  0.41866862  0.94372284  0.70587173  1
  Zn  Zn100  1  0.90784541  0.44487677  0.16553196  1
  Zn  Zn101  1  0.91863619  0.43700371  0.70571506  1
  Zn  Zn102  1  0.96372232  0.92509876  0.16691143  1
  Zn  Zn103  1  0.92676997  0.91835071  0.69504085  1
  Zn  Zn104  1  0.03487937  0.08421473  0.33558376  1
  Zn  Zn105  1  0.06087702  0.07079783  0.81218151  1
  Zn  Zn106  1  0.04153628  0.52343670  0.25109398  1
  Zn  Zn107  1  0.05516405  0.56364346  0.80734782  1
  Zn  Zn108  1  0.55655281  0.07766099  0.33335973  1
  Zn  Zn109  1  0.55846191  0.08610818  0.80888959  1
  Zn  Zn110  1  0.53735940  0.53570411  0.26451361  1
  Zn  Zn111  1  0.57011683  0.56928316  0.81128039  1
  Zn  Zn112  1  0.43315583  0.18441160  0.44087583  1
  Zn  Zn113  1  0.42588792  0.20036394  0.91420294  1
  Zn  Zn114  1  0.42986797  0.69778578  0.44390396  1
  Zn  Zn115  1  0.47344063  0.66576339  0.93234401  1
  Zn  Zn116  1  0.92182918  0.19504152  0.43572815  1
  Zn  Zn117  1  0.94476526  0.19273110  0.93759161  1
  Zn  Zn118  1  0.98579024  0.65231737  0.39546386  1
  Zn  Zn119  1  0.94191759  0.69690780  0.93294291  1
  Zn  Zn120  1  0.06260941  0.31526190  0.07069254  1
  Zn  Zn121  1  0.06409137  0.30396459  0.56023869  1
  Zn  Zn122  1  0.06198112  0.81111143  0.05817800  1
  Zn  Zn123  1  0.04471861  0.81758351  0.56555550  1
  Zn  Zn124  1  0.54530358  0.35099209  0.07544276  1
  Zn  Zn125  1  0.57026188  0.32857754  0.56237011  1
  Zn  Zn126  1  0.58526942  0.78317635  0.10730225  1
  Zn  Zn127  1  0.55936041  0.84474473  0.59945177  1
  O  O128  1  0.12581548  0.10993934  0.11274976  1
  O  O129  1  0.08109396  0.08779812  0.59192116  1
  O  O130  1  0.10089677  0.63339171  0.11556599  1
  O  O131  1  0.13493583  0.68099782  0.55298765  1
  O  O132  1  0.64007857  0.15810298  0.09636464  1
  O  O133  1  0.62505683  0.14009174  0.62140442  1
  O  O134  1  0.59713486  0.61463023  0.13444181  1
  O  O135  1  0.62472936  0.62714686  0.63108492  1
  O  O136  1  0.37741083  0.39730448  0.39606151  1
  O  O137  1  0.38140465  0.39391354  0.84551261  1
  O  O138  1  0.39980519  0.89313217  0.40319961  1
  O  O139  1  0.33239557  0.88497646  0.80202048  1
  O  O140  1  0.87302271  0.37762434  0.38951324  1
  O  O141  1  0.89004839  0.37874120  0.88968868  1
  O  O142  1  0.89604968  0.86599035  0.36252840  1
  O  O143  1  0.88742419  0.86437249  0.89305566  1
  O  O144  1  0.27697383  0.00122060  0.38088349  1
  O  O145  1  0.24199223  0.02666016  0.87802451  1
  O  O146  1  0.27139239  0.50988635  0.40220289  1
  O  O147  1  0.26676204  0.51074547  0.86782854  1
  O  O148  1  0.73452490  0.02127635  0.39154090  1
  O  O149  1  0.75703260  0.00610363  0.87110241  1
  O  O150  1  0.76779821  0.48762557  0.35723471  1
  O  O151  1  0.73260042  0.49830441  0.88274152  1
  O  O152  1  0.27921369  0.48564066  0.12645032  1
  O  O153  1  0.22561876  0.57571898  0.60918290  1
  O  O154  1  0.24521943  1.00505461  0.10709374  1
  O  O155  1  0.21554323  1.02259829  0.61728576  1
  O  O156  1  0.76571471  0.48157154  0.14185673  1
  O  O157  1  0.74513543  0.52232012  0.64610831  1
  O  O158  1  0.75254646  0.96753232  0.19406650  1
  O  O159  1  0.74581419  1.01035637  0.65394170  1
  O  O160  1  -0.04957433  0.31191654  0.25048363  1
  O  O161  1  0.00148398  0.37436776  0.76578383  1
  O  O162  1  0.01055180  0.86443372  0.24824919  1
  O  O163  1  -0.00654211  0.86331721  0.76820033  1
  O  O164  1  0.41336525  0.31459917  0.23972441  1
  O  O165  1  0.51420340  0.38837974  0.74537318  1
  O  O166  1  0.53709684  0.88177989  0.28398365  1
  O  O167  1  0.50348565  0.86916606  0.73429680  1
  O  O168  1  0.50767326  0.15761863  0.25149886  1
  O  O169  1  0.48135750  0.13581976  0.74426858  1
  O  O170  1  0.51651607  0.64753385  0.28202397  1
  O  O171  1  0.49677030  0.63970553  0.74551139  1
  O  O172  1  1.00223704  0.10404136  0.22883341  1
  O  O173  1  0.98324853  0.14523643  0.76747751  1
  O  O174  1  0.99217263  0.63261239  0.24319325  1
  O  O175  1  0.99600650  0.64291461  0.75703560  1
  O  O176  1  0.35664074  0.25570961  -0.01072110  1
  O  O177  1  0.36591668  0.25051340  0.50911832  1
  O  O178  1  0.38530138  0.74097818  -0.02441340  1
  O  O179  1  0.39866800  0.78008677  0.52407869  1
  O  O180  1  0.85096444  0.25539202  -0.02247218  1
  O  O181  1  0.86837638  0.25954354  0.51183201  1
  O  O182  1  0.86197179  0.75666969  0.00481633  1
  O  O183  1  0.80082135  0.68789472  0.45990026  1
  O  O184  1  0.12636204  0.24090544  0.48981106  1
  O  O185  1  0.13176035  0.24586669  0.99436377  1
  O  O186  1  0.13884912  0.74688196  0.51862526  1
  O  O187  1  0.13412399  0.74844478  0.99655102  1
  O  O188  1  0.63706325  0.25207667  0.51304854  1
  O  O189  1  0.63070539  0.21324133  1.04797637  1
  O  O190  1  0.61709331  0.64675992  0.41599679  1
  O  O191  1  0.64977006  0.73783793  1.01197353  1
  O  O192  1  0.50138847  0.26167874  0.12671293  1
  O  O193  1  0.48680650  0.26005356  0.61453739  1
  O  O194  1  0.49331427  0.72097644  0.09037950  1
  O  O195  1  0.51143919  0.74746919  0.64133522  1
  O  O196  1  1.01399271  0.22505364  0.11892928  1
  O  O197  1  0.98743257  0.25670598  0.64098782  1
  O  O198  1  0.98892314  0.74045145  0.12292945  1
  O  O199  1  0.99592439  0.76364296  0.64840681  1
  O  O200  1  0.02015766  0.18940025  0.38721613  1
  O  O201  1  0.00861100  0.26314951  0.87265211  1
  O  O202  1  0.01293244  0.75029385  0.34905441  1
  O  O203  1  0.01498219  0.75721216  0.86812767  1
  O  O204  1  0.51348338  0.25359747  0.39888540  1
  O  O205  1  0.48329688  0.26828900  0.84466149  1
  O  O206  1  0.50225413  0.77087991  0.38615796  1
  O  O207  1  0.47696251  0.76514946  0.85448752  1
  O  O208  1  0.26207445  0.13701982  0.47672523  1
  O  O209  1  0.24331874  0.14003400  0.99112281  1
  O  O210  1  0.32026344  0.66879505  0.46875021  1
  O  O211  1  0.25560502  0.62679211  0.97508073  1
  O  O212  1  0.73635068  0.13766311  0.50671380  1
  O  O213  1  0.76586734  0.10246454  1.00130128  1
  O  O214  1  0.76044957  0.62590089  0.48927859  1
  O  O215  1  0.75944360  0.62109498  0.99619903  1
  O  O216  1  0.25993235  0.36253067  -0.01007605  1
  O  O217  1  0.24685865  0.34254498  0.46519284  1
  O  O218  1  0.25351387  0.85243656  -0.02499437  1
  O  O219  1  0.27331530  0.88061741  0.49385878  1
  O  O220  1  0.75881893  0.38002974  0.01649089  1
  O  O221  1  0.75915336  0.36394357  0.50454380  1
  O  O222  1  0.76547491  0.88771709  -0.00255192  1
  O  O223  1  0.76709212  0.86431044  0.49149483  1
  O  O224  1  0.14264164  0.51138173  0.21017267  1
  O  O225  1  0.11607582  0.48974908  0.74492564  1
  O  O226  1  0.13605577  0.98182519  0.22403743  1
  O  O227  1  0.11014731  1.01391261  0.71836297  1
  O  O228  1  0.64386125  0.49670020  0.25600880  1
  O  O229  1  0.63871865  0.49907140  0.75063599  1
  O  O230  1  0.60871066  1.04145456  0.23847218  1
  O  O231  1  0.62976447  1.01427180  0.76475600  1
  O  O232  1  0.38660291  -0.02669153  0.26297226  1
  O  O233  1  0.35940770  0.03371891  0.73126547  1
  O  O234  1  0.34934492  0.49348847  0.28406791  1
  O  O235  1  0.38571249  0.51535719  0.74275655  1
  O  O236  1  0.78488124  -0.07354728  0.24892069  1
  O  O237  1  0.88644661  0.01595075  0.74653036  1
  O  O238  1  0.87063421  0.50469707  0.25601126  1
  O  O239  1  0.84995567  0.50059368  0.76552569  1
  O  O240  1  0.09581276  0.34628659  0.37112271  1
  O  O241  1  0.11420257  0.37413806  0.87967570  1
  O  O242  1  0.13226260  0.87508589  0.34548472  1
  O  O243  1  0.11489158  0.87957319  0.87324088  1
  O  O244  1  0.62895933  0.36596369  0.39529402  1
  O  O245  1  0.60601953  0.37553589  0.86171918  1
  O  O246  1  0.61658627  0.87993213  0.41615500  1
  O  O247  1  0.60743675  0.84286218  0.91283392  1
  O  O248  1  0.37670782  0.15672606  0.14858389  1
  O  O249  1  0.37099333  0.14657904  0.62532129  1
  O  O250  1  0.38441671  0.63474013  0.11489876  1
  O  O251  1  0.39443570  0.63938633  0.63321380  1
  O  O252  1  0.89360258  0.12204393  0.11465993  1
  O  O253  1  0.87506095  0.14161828  0.64770626  1
  O  O254  1  0.88354735  0.63113087  0.13355999  1
  O  O255  1  0.92332203  0.58884553  0.61519455  1
  O  O256  1  0.24190476  0.24436438  0.10773859  1
  O  O257  1  0.23470088  0.24711682  0.60068104  1
  O  O258  1  0.26906995  0.73127927  0.08548968  1
  O  O259  1  0.27443941  0.74557517  0.62920136  1
  O  O260  1  0.76288403  0.25874100  0.13618387  1
  O  O261  1  0.76352798  0.24820329  0.61945929  1
  O  O262  1  0.76238856  0.73287842  0.11542183  1
  O  O263  1  0.76149875  0.74000064  0.61862205  1
  O  O264  1  0.22067087  0.22518246  0.37450712  1
  O  O265  1  0.23040716  0.24445478  0.88018555  1
  O  O266  1  0.21376360  0.66328676  0.32210982  1
  O  O267  1  0.25482653  0.73261778  0.87623824  1
  O  O268  1  0.74149801  0.24556339  0.40037484  1
  O  O269  1  0.79060603  0.24920073  0.91883919  1
  O  O270  1  0.76695318  0.71680279  0.39347712  1
  O  O271  1  0.73916889  0.75039706  0.89469846  1
  O  O272  1  0.01286766  0.11776060  -0.00199770  1
  O  O273  1  -0.06302955  0.05967971  0.49238569  1
  O  O274  1  -0.01775800  0.62303557  0.00701626  1
  O  O275  1  0.04202504  0.59122037  0.47346819  1
  O  O276  1  0.48774944  0.12465344  -0.01979460  1
  O  O277  1  0.50915532  0.11731470  0.50845267  1
  O  O278  1  0.49506703  0.58014332  0.01048852  1
  O  O279  1  0.50361949  0.64355085  0.52036612  1
  O  O280  1  0.50093421  0.40851436  0.53702786  1
  O  O281  1  0.47218433  0.35821944  0.96486495  1
  O  O282  1  0.50236158  0.90167537  0.51618319  1
  O  O283  1  0.46318214  0.91946005  0.97921264  1
  O  O284  1  0.98680956  0.36603994  0.49866586  1
  O  O285  1  0.99280809  0.36909484  0.99376764  1
  O  O286  1  1.01725911  0.85474021  0.46684944  1
  O  O287  1  0.99715330  0.87959887  0.98873563  1
  O  O288  1  0.47766058  0.49363810  0.36085677  1
  O  O289  1  0.49003968  0.49288289  0.86626093  1
  O  O290  1  0.49727621  0.99621489  0.38915203  1
  O  O291  1  0.48609289  1.01992276  0.88008216  1
  O  O292  1  0.98768644  0.48208684  0.34605790  1
  O  O293  1  1.00648652  0.48969816  0.88188289  1
  O  O294  1  1.00522915  0.97939727  0.36273841  1
  O  O295  1  1.01011800  0.99176502  0.88213435  1
  O  O296  1  0.01149711  0.00588055  0.10360742  1
  O  O297  1  0.01659297  -0.04012869  0.61943231  1
  O  O298  1  -0.00664110  0.51527002  0.13696136  1
  O  O299  1  -0.03021412  0.53174439  0.63251126  1
  O  O300  1  0.50171797  0.01609916  0.08833697  1
  O  O301  1  0.49908660  0.00599830  0.63457057  1
  O  O302  1  0.47471391  0.51670590  0.16851037  1
  O  O303  1  0.52409485  0.52695653  0.63488963  1
  O  O304  1  0.23767456  0.39713840  0.29915835  1
  O  O305  1  0.21961365  0.36283978  0.74440170  1
  O  O306  1  0.24781547  0.86064500  0.23653957  1
  O  O307  1  0.25968430  0.89358672  0.78919751  1
  O  O308  1  0.76495274  0.38105548  0.24075613  1
  O  O309  1  0.73878778  0.38665310  0.76956097  1
  O  O310  1  0.73015075  0.87634274  0.28845149  1
  O  O311  1  0.74132891  0.89577696  0.76758429  1
  O  O312  1  0.25366721  0.12401590  0.26357594  1
  O  O313  1  0.22442864  0.13596006  0.75975804  1
  O  O314  1  0.25175311  0.66244430  0.25877087  1
  O  O315  1  0.28098139  0.63373466  0.76299137  1
  O  O316  1  0.73423342  0.13682143  0.27512569  1
  O  O317  1  0.76668595  0.11985200  0.76230456  1
  O  O318  1  0.76156067  0.60825665  0.24132580  1
  O  O319  1  0.73410280  0.61908521  0.77727115  1
  O  O320  1  0.38508193  0.10407807  0.37071972  1
  O  O321  1  0.35218637  0.14389400  0.84688089  1
  O  O322  1  0.38947123  0.60412247  0.36990357  1
  O  O323  1  0.38904014  0.61003501  0.86210504  1
  O  O324  1  0.84973882  0.13305233  0.38009658  1
  O  O325  1  0.87778104  0.11717277  0.87499044  1
  O  O326  1  0.88844934  0.60327861  0.36335024  1
  O  O327  1  0.86698975  0.67232345  0.84101850  1
  O  O328  1  0.14036326  0.36756879  0.13226998  1
  O  O329  1  0.10390442  0.37870036  0.63449358  1
  O  O330  1  0.12719595  0.88674005  0.11740536  1
  O  O331  1  0.14043691  0.89089324  0.63253535  1
  O  O332  1  0.64719922  0.36045632  0.13496740  1
  O  O333  1  0.63050938  0.39919705  0.64210046  1
  O  O334  1  0.61823744  0.88894185  0.10720380  1
  O  O335  1  0.66538945  0.87054911  0.61712532  1
  O  O336  1  0.11444568  0.23062867  0.26522554  1
  O  O337  1  0.10839158  0.26265478  0.75949872  1
  O  O338  1  0.11917203  0.76515550  0.21972253  1
  O  O339  1  0.12628625  0.72755719  0.73017915  1
  O  O340  1  0.62684024  0.25786638  0.27926243  1
  O  O341  1  0.63607686  0.27195909  0.74091871  1
  O  O342  1  0.60835573  0.75834501  0.22203417  1
  O  O343  1  0.61798386  0.75466890  0.77414063  1
  O  O344  1  0.37635276  0.25966411  0.28968959  1
  O  O345  1  0.34770225  0.24407770  0.72280467  1
  O  O346  1  0.42765945  0.77355450  0.24229065  1
  O  O347  1  0.39175735  0.74900151  0.73817522  1
  O  O348  1  0.89920185  0.26189885  0.26844366  1
  O  O349  1  0.87806318  0.25959952  0.74893863  1
  O  O350  1  0.88557009  0.73907600  0.23745101  1
  O  O351  1  0.86593618  0.72730298  0.78719461  1
  O  O352  1  0.38760557  0.51592504  0.48789590  1
  O  O353  1  0.36911602  0.48027660  0.97711676  1
  O  O354  1  0.38846594  0.99900865  0.52027541  1
  O  O355  1  0.38362555  1.03439902  1.00038378  1
  O  O356  1  0.87651448  0.48745628  0.48528109  1
  O  O357  1  0.87626673  0.48742412  1.00434927  1
  O  O358  1  0.88396325  1.01486401  0.52017906  1
  O  O359  1  0.88669108  0.98802454  0.99146072  1
  O  O360  1  0.12422303  0.00776593  0.00011748  1
  O  O361  1  0.12661160  -0.02541097  0.51453833  1
  O  O362  1  0.14890556  0.49467582  0.03200572  1
  O  O363  1  0.12567986  0.48796697  0.47519002  1
  O  O364  1  0.59036475  0.00821200  -0.01924614  1
  O  O365  1  0.61511210  0.01985193  0.51919814  1
  O  O366  1  0.58756910  0.43964613  0.02393603  1
  O  O367  1  0.65156897  0.50331869  0.52471840  1
  O  O368  1  0.39289454  0.37525499  0.09838816  1
  O  O369  1  0.36914949  0.36616673  0.63756454  1
  O  O370  1  0.38209037  0.83639243  0.10965483  1
  O  O371  1  0.37161930  0.87366341  0.62705524  1
  O  O372  1  0.87948367  0.35884529  0.10295527  1
  O  O373  1  0.87851055  0.37321939  0.61462447  1
  O  O374  1  0.88620426  0.86248160  0.10736374  1
  O  O375  1  0.84438522  0.87731782  0.63675675  1
  O  O376  1  0.14651142  0.08256083  0.37287818  1
  O  O377  1  0.12520146  0.13686668  0.88377807  1
  O  O378  1  0.10484171  0.55314427  0.43671319  1
  O  O379  1  0.14376869  0.61250767  0.86207998  1
  O  O380  1  0.62832822  0.14540548  0.40184363  1
  O  O381  1  0.59406248  0.15288081  0.88571079  1
  O  O382  1  0.62342124  0.58136064  0.38650719  1
  O  O383  1  0.58373946  0.65582081  0.89301853  1
