# generated using pymatgen
data_VZnO4
_symmetry_space_group_name_H-M   'P 1'
_cell_length_a   16.91693666
_cell_length_b   16.91687567
_cell_length_c   16.93360697
_cell_angle_alpha   89.93293556
_cell_angle_beta   89.47479614
_cell_angle_gamma   89.96812509
_symmetry_Int_Tables_number   1
_chemical_formula_structural   VZnO4
_chemical_formula_sum   'V64 Zn64 O256'
_cell_volume   4845.88103107
_cell_formula_units_Z   64
loop_
 _symmetry_equiv_pos_site_id
 _symmetry_equiv_pos_as_xyz
  1  'x, y, z'
loop_
 _atom_site_type_symbol
 _atom_site_label
 _atom_site_symmetry_multiplicity
 _atom_site_fract_x
 _atom_site_fract_y
 _atom_site_fract_z
 _atom_site_occupancy
  V  V0  1  0.49325829  -0.00642701  -0.01772380  1
  V  V1  1  0.35421249  0.61859071  0.25682108  1
  V  V2  1  0.60687840  0.75156567  0.39803410  1
  V  V3  1  0.39085871  0.25059235  0.13512320  1
  V  V4  1  0.49377093  0.91122205  0.38972252  1
  V  V5  1  0.14313067  0.36345570  0.72643390  1
  V  V6  1  0.75983637  0.62757942  0.86201459  1
  V  V7  1  0.02752404  0.49533908  0.50461167  1
  V  V8  1  0.47363268  0.87531064  0.86293163  1
  V  V9  1  0.35383119  0.90425586  0.49762767  1
  V  V10  1  0.62116644  0.13597174  -0.01916054  1
  V  V11  1  0.12869212  0.12532089  0.00076024  1
  V  V12  1  0.13649774  0.00838458  0.16022859  1
  V  V13  1  0.76058073  0.13081643  0.87214141  1
  V  V14  1  0.00739959  0.74601035  0.27104960  1
  V  V15  1  0.74976491  0.37822765  0.11265214  1
  V  V16  1  -0.01644507  0.00492257  -0.00691262  1
  V  V17  1  0.61893603  0.35826039  0.26067928  1
  V  V18  1  0.63097012  0.38234528  0.74292744  1
  V  V19  1  0.88350818  0.13345473  0.72767653  1
  V  V20  1  0.25674801  0.38436031  0.13298931  1
  V  V21  1  0.50587578  0.11273904  0.12239871  1
  V  V22  1  0.28454940  0.22675636  0.53687362  1
  V  V23  1  0.38259726  0.52463806  0.82977560  1
  V  V24  1  0.38654862  0.39244256  0.00290039  1
  V  V25  1  0.12507140  0.71898634  0.86571805  1
  V  V26  1  0.13333423  0.23374020  0.36950419  1
  V  V27  1  0.87201524  0.47415483  0.87047727  1
  V  V28  1  0.76738962  0.25683108  0.49578817  1
  V  V29  1  0.87376809  0.49495432  0.38787933  1
  V  V30  1  0.87586460  -0.00062195  0.36941548  1
  V  V31  1  0.74504232  0.50339066  0.24496785  1
  V  V32  1  0.91027550  0.77603803  0.11542424  1
  V  V33  1  -0.01494516  0.25235314  0.25048524  1
  V  V34  1  0.25815417  0.25600162  0.00634124  1
  V  V35  1  -0.00629759  0.13066971  0.12830625  1
  V  V36  1  0.76014231  0.63500575  0.38565515  1
  V  V37  1  0.48526855  0.25415159  0.74405873  1
  V  V38  1  0.74235434  0.76749680  0.01756964  1
  V  V39  1  0.50862841  0.37696764  0.87810451  1
  V  V40  1  0.10615571  0.13019715  0.51980552  1
  V  V41  1  0.11665744  0.50533695  0.11891378  1
  V  V42  1  0.62396962  0.13927560  0.48158075  1
  V  V43  1  -0.00353142  0.37302869  0.37782709  1
  V  V44  1  0.87201600  0.75358925  0.62057216  1
  V  V45  1  0.76527405  0.38035850  0.62208873  1
  V  V46  1  0.50722925  0.62761813  0.13527006  1
  V  V47  1  0.36149698  0.75357268  0.11501355  1
  V  V48  1  0.15937725  -0.06490999  0.70224255  1
  V  V49  1  -0.02029363  0.49343626  0.00363196  1
  V  V50  1  0.75502180  -0.00818734  0.74563919  1
  V  V51  1  0.61695836  0.61648968  -0.00429491  1
  V  V52  1  0.00732461  0.62742796  0.62430812  1
  V  V53  1  0.87229811  0.25809623  0.10141464  1
  V  V54  1  0.88489128  0.61369147  0.22849320  1
  V  V55  1  0.62901922  0.76604898  0.86604329  1
  V  V56  1  0.37287263  0.09780539  0.25445473  1
  V  V57  1  0.13536458  0.37624316  0.25398575  1
  V  V58  1  0.61832289  0.01975820  0.62854997  1
  V  V59  1  0.50018212  0.74679116  0.73371271  1
  V  V60  1  0.34902184  0.75943939  0.60885911  1
  V  V61  1  0.26445493  0.11947544  0.87678555  1
  V  V62  1  0.62075780  0.51255454  0.60737486  1
  V  V63  1  0.12472853  0.27529605  0.88638332  1
  Zn  Zn64  1  0.19353918  0.18819689  0.19202886  1
  Zn  Zn65  1  0.18749849  0.17869425  0.69743613  1
  Zn  Zn66  1  0.18810053  0.68781924  0.18421865  1
  Zn  Zn67  1  0.13222012  0.74521179  0.64167753  1
  Zn  Zn68  1  0.66577136  0.21695127  0.15997161  1
  Zn  Zn69  1  0.69201427  0.19732912  0.69158124  1
  Zn  Zn70  1  0.66469197  0.85307562  0.20089925  1
  Zn  Zn71  1  0.68952011  0.69284230  0.67989125  1
  Zn  Zn72  1  0.31812890  0.30322073  0.32063872  1
  Zn  Zn73  1  0.30780492  0.32745929  0.81925226  1
  Zn  Zn74  1  0.46986671  0.75385260  0.28132579  1
  Zn  Zn75  1  0.30732109  0.80546427  0.78583947  1
  Zn  Zn76  1  0.80482726  0.31871178  0.30877331  1
  Zn  Zn77  1  0.80510327  0.30355534  0.80930911  1
  Zn  Zn78  1  0.76039063  0.83275841  0.34453730  1
  Zn  Zn79  1  0.80914043  0.79696715  0.79456502  1
  Zn  Zn80  1  0.20491885  0.40538642  0.53865435  1
  Zn  Zn81  1  0.21161674  0.46620729  0.94454218  1
  Zn  Zn82  1  0.13373118  0.89637764  0.51860366  1
  Zn  Zn83  1  0.17407528  0.94607012  0.90915610  1
  Zn  Zn84  1  0.68798824  0.43092097  0.43896716  1
  Zn  Zn85  1  0.69192475  0.44392342  0.93010283  1
  Zn  Zn86  1  0.67074055  0.92842274  0.48556687  1
  Zn  Zn87  1  0.68561697  0.94986830  0.93441637  1
  Zn  Zn88  1  0.31358079  0.05628942  0.06646189  1
  Zn  Zn89  1  0.24866166  0.03014176  0.54021052  1
  Zn  Zn90  1  0.32660263  0.59849379  0.04164697  1
  Zn  Zn91  1  0.44511010  0.59216906  0.64999899  1
  Zn  Zn92  1  0.80423445  0.07364301  0.06364779  1
  Zn  Zn93  1  0.80051559  0.07152633  0.56481485  1
  Zn  Zn94  1  0.79506738  0.56556221  0.05120278  1
  Zn  Zn95  1  0.81137083  0.56433289  0.57695773  1
  Zn  Zn96  1  0.44456113  0.44892390  0.19206193  1
  Zn  Zn97  1  0.45322303  0.41630636  0.66867542  1
  Zn  Zn98  1  0.46382447  0.91598393  0.18529671  1
  Zn  Zn99  1  0.45383888  0.92591653  0.66348532  1
  Zn  Zn100  1  0.93668895  0.43182854  0.18710998  1
  Zn  Zn101  1  0.95625876  0.43439128  0.69337101  1
  Zn  Zn102  1  0.97502452  0.92743759  0.18918862  1
  Zn  Zn103  1  0.93496541  0.93433004  0.68327770  1
  Zn  Zn104  1  0.09876796  0.01901040  0.37352393  1
  Zn  Zn105  1  0.03913152  0.03607231  0.79188599  1
  Zn  Zn106  1  0.06310918  0.55930250  0.31153761  1
  Zn  Zn107  1  0.04751114  0.53628431  0.80463495  1
  Zn  Zn108  1  0.56940717  0.08662744  0.30866361  1
  Zn  Zn109  1  0.55854872  0.06497416  0.80053585  1
  Zn  Zn110  1  0.58028064  0.58589036  0.30850946  1
  Zn  Zn111  1  0.56547559  0.56527062  0.81210276  1
  Zn  Zn112  1  0.41746626  0.09993846  0.46674237  1
  Zn  Zn113  1  0.44111442  0.19744819  0.93735398  1
  Zn  Zn114  1  0.39985257  0.69222496  0.45358871  1
  Zn  Zn115  1  0.43702629  0.69101647  0.93169826  1
  Zn  Zn116  1  0.93577025  0.18595195  0.43839480  1
  Zn  Zn117  1  0.94712194  0.18787844  0.92528129  1
  Zn  Zn118  1  0.93755711  0.67365693  0.44669488  1
  Zn  Zn119  1  0.93190259  0.67480224  0.96181677  1
  Zn  Zn120  1  0.06355873  0.32166022  0.06292446  1
  Zn  Zn121  1  0.05676290  0.30552466  0.55373818  1
  Zn  Zn122  1  0.08894744  0.84631684  0.05168733  1
  Zn  Zn123  1  -0.05536681  0.85830839  0.49585730  1
  Zn  Zn124  1  0.56798214  0.31926742  0.05970499  1
  Zn  Zn125  1  0.57046385  0.29565566  0.57497729  1
  Zn  Zn126  1  0.55263518  0.80894009  0.05536001  1
  Zn  Zn127  1  0.56074465  0.83065073  0.55235189  1
  O  O128  1  0.11757183  0.12454634  0.12452069  1
  O  O129  1  0.11019226  0.14575720  0.61939196  1
  O  O130  1  0.12947541  0.60196513  0.12918868  1
  O  O131  1  0.11125899  0.63476996  0.61435992  1
  O  O132  1  0.60967869  0.13244137  0.11101089  1
  O  O133  1  0.62996459  0.12571624  0.62639457  1
  O  O134  1  0.60980331  0.63898587  0.10116462  1
  O  O135  1  0.63326229  0.61103877  0.62566415  1
  O  O136  1  0.38821653  0.37072424  0.38389863  1
  O  O137  1  0.38768835  0.37317099  0.89740152  1
  O  O138  1  0.37678662  0.90778044  0.39726677  1
  O  O139  1  0.37584108  0.86038970  0.86565360  1
  O  O140  1  0.88788407  0.38643533  0.36205177  1
  O  O141  1  0.85468761  0.37649571  0.88163834  1
  O  O142  1  0.88648020  0.89628545  0.38518717  1
  O  O143  1  0.89784419  0.85310461  0.87447982  1
  O  O144  1  0.23553500  -0.09907671  0.31910882  1
  O  O145  1  0.25932366  0.02195574  0.90346984  1
  O  O146  1  0.20873929  0.54643428  0.38233753  1
  O  O147  1  0.29297636  0.48553225  0.85880941  1
  O  O148  1  0.77501178  -0.00481587  0.34843562  1
  O  O149  1  0.73939957  0.01707306  0.85727689  1
  O  O150  1  0.76400047  0.49652600  0.36503698  1
  O  O151  1  0.76688345  0.51677975  0.87906947  1
  O  O152  1  0.23736334  0.48321240  0.12653342  1
  O  O153  1  0.20210155  0.54784688  0.70565027  1
  O  O154  1  0.23190320  1.00470018  0.12828885  1
  O  O155  1  0.20488529  1.00638923  0.64763626  1
  O  O156  1  0.75561174  0.48858728  0.13537570  1
  O  O157  1  0.73758340  0.48932060  0.62270731  1
  O  O158  1  0.73706816  1.01028301  0.14117794  1
  O  O159  1  0.74446768  1.00581833  0.63898371  1
  O  O160  1  0.00783213  0.36345967  0.25363832  1
  O  O161  1  -0.00866907  0.31105150  0.70265140  1
  O  O162  1  -0.00038851  0.84733081  0.26403370  1
  O  O163  1  -0.05297433  0.88791168  0.83145648  1
  O  O164  1  0.52350935  0.38164735  0.23713938  1
  O  O165  1  0.50623211  0.37496336  0.76650254  1
  O  O166  1  0.48526857  0.86689879  0.29326200  1
  O  O167  1  0.49397557  0.86718942  0.75785705  1
  O  O168  1  0.49450641  0.11953820  0.22838253  1
  O  O169  1  0.50327172  0.15481368  0.75121197  1
  O  O170  1  0.51531602  0.64752604  0.23976022  1
  O  O171  1  0.50487396  0.64272180  0.74295833  1
  O  O172  1  1.00276101  0.14711131  0.23311639  1
  O  O173  1  0.98138881  0.12476959  0.75603192  1
  O  O174  1  0.98711542  0.61778920  0.25062683  1
  O  O175  1  0.99804418  0.59499521  0.72123042  1
  O  O176  1  0.37259250  0.25967391  0.01440457  1
  O  O177  1  0.37837901  0.20221265  0.51039856  1
  O  O178  1  0.35820812  0.71130554  0.01024345  1
  O  O179  1  0.34624107  0.78378581  0.50219630  1
  O  O180  1  0.88128496  0.25495814  0.00428121  1
  O  O181  1  0.86959586  0.25156396  0.50155001  1
  O  O182  1  0.85808200  0.74506494  0.02543950  1
  O  O183  1  0.89455408  0.75808472  0.50600123  1
  O  O184  1  0.11186262  0.23949642  0.47865364  1
  O  O185  1  0.13920609  0.25387507  1.00494479  1
  O  O186  1  0.14650160  0.77102521  0.47975014  1
  O  O187  1  0.15698716  0.70570961  0.96202171  1
  O  O188  1  0.63700506  0.24732430  0.50219470  1
  O  O189  1  0.62045682  0.23585628  0.99795775  1
  O  O190  1  0.63697327  0.75845769  0.49366781  1
  O  O191  1  0.62847495  0.74963134  0.98197647  1
  O  O192  1  0.49255624  0.24643833  0.11779349  1
  O  O193  1  0.48082443  0.29571013  0.64265861  1
  O  O194  1  0.48171229  0.72751844  0.09837763  1
  O  O195  1  0.52239963  0.76346163  0.63790491  1
  O  O196  1  0.98780596  0.25479211  0.13150903  1
  O  O197  1  0.98245887  0.26915718  0.63993602  1
  O  O198  1  1.00819036  0.76870781  0.09090445  1
  O  O199  1  1.00056274  0.73180615  0.62417342  1
  O  O200  1  -0.00320131  0.25363192  0.36151995  1
  O  O201  1  0.02511921  0.26306509  0.89121165  1
  O  O202  1  0.00347512  0.72647540  0.36906296  1
  O  O203  1  0.02232093  0.71044000  0.88886433  1
  O  O204  1  0.45314479  0.33152174  0.41505645  1
  O  O205  1  0.50280212  0.27150090  0.86934493  1
  O  O206  1  0.50441977  0.73232277  0.39552846  1
  O  O207  1  0.50600588  0.76310768  0.86446834  1
  O  O208  1  0.22742173  0.14170204  0.50630767  1
  O  O209  1  0.24275565  0.13915957  1.01010060  1
  O  O210  1  0.26079586  0.55618218  0.43405377  1
  O  O211  1  0.23865303  0.57120816  0.98320985  1
  O  O212  1  0.74706770  0.15130289  0.50573777  1
  O  O213  1  0.73031400  0.11405235  0.98543152  1
  O  O214  1  0.76347587  0.61709584  0.48318754  1
  O  O215  1  0.73722502  0.64564094  0.99217617  1
  O  O216  1  0.26952379  0.37411506  0.01217770  1
  O  O217  1  0.26266085  0.32013434  0.49700939  1
  O  O218  1  0.18038432  0.86788902  -0.01189752  1
  O  O219  1  0.24940492  0.91062180  0.49962978  1
  O  O220  1  0.74260281  0.38312837  0.01469137  1
  O  O221  1  0.75249504  0.37203444  0.51399615  1
  O  O222  1  0.74422958  0.86374763  -0.01351370  1
  O  O223  1  0.75888203  0.87362069  0.44948625  1
  O  O224  1  0.11727541  0.47890995  0.24319439  1
  O  O225  1  0.07329908  0.43604703  0.75291669  1
  O  O226  1  0.12996872  1.01364295  0.26089601  1
  O  O227  1  0.13375323  0.97388285  0.80776401  1
  O  O228  1  0.64453650  0.50840819  0.25329461  1
  O  O229  1  0.61732317  0.48880391  0.74182427  1
  O  O230  1  0.64322967  1.01116389  0.23665452  1
  O  O231  1  0.63679158  1.00721370  0.73751054  1
  O  O232  1  0.38545169  0.00122617  0.22938095  1
  O  O233  1  0.36861065  0.02293934  0.72844960  1
  O  O234  1  0.38414482  0.51941735  0.25581351  1
  O  O235  1  0.39366608  0.51191324  0.72563071  1
  O  O236  1  0.89398941  -0.00694217  0.26676776  1
  O  O237  1  0.86373539  0.01168053  0.74178709  1
  O  O238  1  0.87264350  0.50201408  0.25315589  1
  O  O239  1  0.88780459  0.48412848  0.77181810  1
  O  O240  1  0.11295714  0.36096196  0.36027682  1
  O  O241  1  0.14549546  0.37337029  0.89279021  1
  O  O242  1  0.16545519  0.76533170  0.40308339  1
  O  O243  1  0.10701098  0.82123174  0.87817424  1
  O  O244  1  0.62589606  0.38417738  0.35806209  1
  O  O245  1  0.61473720  0.38990603  0.86708879  1
  O  O246  1  0.59271018  0.87506984  0.41039640  1
  O  O247  1  0.62451861  0.86550477  0.86997965  1
  O  O248  1  0.38818150  0.13783064  0.12389690  1
  O  O249  1  0.36704864  0.08620374  0.69277042  1
  O  O250  1  0.38519545  0.62262381  0.13742640  1
  O  O251  1  0.39927971  0.66660431  0.57645932  1
  O  O252  1  0.88473911  0.14544110  0.12018621  1
  O  O253  1  0.87995433  0.12388485  0.62738631  1
  O  O254  1  0.87186867  0.60604550  0.13091765  1
  O  O255  1  0.88874471  0.63942238  0.60875660  1
  O  O256  1  0.26376133  0.26134598  0.12249262  1
  O  O257  1  0.27182011  0.23063619  0.63772701  1
  O  O258  1  0.25876805  0.75079101  0.12351001  1
  O  O259  1  0.25491661  0.74114580  0.63277960  1
  O  O260  1  0.76616303  0.25800662  0.12280117  1
  O  O261  1  0.74965084  0.27314809  0.62108450  1
  O  O262  1  0.72312584  0.77351822  0.11382484  1
  O  O263  1  0.77021043  0.74855151  0.62197699  1
  O  O264  1  0.23280287  0.24028450  0.36299678  1
  O  O265  1  0.24844018  0.25151212  0.89444078  1
  O  O266  1  0.23119878  0.73379805  0.38475548  1
  O  O267  1  0.22715213  0.73088151  0.83966252  1
  O  O268  1  0.75597284  0.26809319  0.39507778  1
  O  O269  1  0.73904446  0.22947766  0.86870870  1
  O  O270  1  0.79249931  0.72761029  0.37196805  1
  O  O271  1  0.73846946  0.74759014  0.87194917  1
  O  O272  1  0.01433558  0.13947244  0.01544028  1
  O  O273  1  0.00664789  0.12680888  0.50185344  1
  O  O274  1  -0.00466875  0.59752588  0.01280912  1
  O  O275  1  0.00862687  0.59886180  0.50060750  1
  O  O276  1  0.50536548  0.12154807  0.00006827  1
  O  O277  1  0.52433202  0.13216344  0.49187900  1
  O  O278  1  0.51679327  0.62184326  -0.02139921  1
  O  O279  1  0.46844727  0.52978646  0.43704880  1
  O  O280  1  0.48081053  0.36460049  0.47654631  1
  O  O281  1  0.49847615  0.37905335  0.99231618  1
  O  O282  1  0.47292732  0.88703435  0.49799354  1
  O  O283  1  0.49934253  0.88494883  0.97646462  1
  O  O284  1  1.00323873  0.38127079  0.48563048  1
  O  O285  1  0.99307446  0.38987728  1.01134175  1
  O  O286  1  1.04061648  0.89751079  0.45742863  1
  O  O287  1  1.00540274  0.90755557  0.99620654  1
  O  O288  1  0.50642719  0.50562416  0.37869870  1
  O  O289  1  0.48160866  0.49052553  0.86440460  1
  O  O290  1  0.51108440  1.00800232  0.37442024  1
  O  O291  1  0.49322930  0.98737195  0.86952458  1
  O  O292  1  0.99498773  0.49073991  0.38470623  1
  O  O293  1  0.98043102  0.49655150  0.89152616  1
  O  O294  1  0.98150964  1.00659498  0.38011891  1
  O  O295  1  0.99313368  1.03335126  0.89702877  1
  O  O296  1  -0.00136020  0.02640489  0.12529002  1
  O  O297  1  0.04283870  -0.03862120  0.70164095  1
  O  O298  1  0.00937691  0.49256475  0.12347170  1
  O  O299  1  -0.00065682  0.49177623  0.60328600  1
  O  O300  1  0.50017937  0.01198081  0.10772781  1
  O  O301  1  0.51541184  0.01386009  0.63593535  1
  O  O302  1  0.50356718  0.52652963  0.12763487  1
  O  O303  1  0.51258137  0.50289700  0.61678139  1
  O  O304  1  0.24156772  0.36860302  0.25124959  1
  O  O305  1  0.23807429  0.38661219  0.74646946  1
  O  O306  1  0.23885407  0.85856879  0.26092471  1
  O  O307  1  0.23554292  0.88117388  0.74500856  1
  O  O308  1  0.74067740  0.38765345  0.24310482  1
  O  O309  1  0.73600872  0.37347126  0.74298391  1
  O  O310  1  0.76460522  0.87810200  0.24482266  1
  O  O311  1  0.75904155  0.89259358  0.75793840  1
  O  O312  1  0.27506612  0.12434581  0.23829222  1
  O  O313  1  0.23737648  0.12344782  0.78022978  1
  O  O314  1  0.25506516  0.61717003  0.24694772  1
  O  O315  1  0.25901464  0.59095554  0.71724171  1
  O  O316  1  0.70237780  0.05010013  0.20148290  1
  O  O317  1  0.76180217  0.12184517  0.75685307  1
  O  O318  1  0.77068006  0.60891315  0.25986955  1
  O  O319  1  0.75175883  0.63396380  0.76319999  1
  O  O320  1  0.38668276  0.11006882  0.35327721  1
  O  O321  1  0.36372161  0.13861906  0.88079371  1
  O  O322  1  0.37389493  0.64321149  0.35640534  1
  O  O323  1  0.38283697  0.62127894  0.85529774  1
  O  O324  1  0.87621531  0.10534172  0.36671133  1
  O  O325  1  0.86133401  0.12961398  0.88191088  1
  O  O326  1  0.87644298  0.60283364  0.36810037  1
  O  O327  1  0.85921628  0.64197657  0.88078748  1
  O  O328  1  0.13676612  0.36980635  0.14103529  1
  O  O329  1  0.13664404  0.35460525  0.62281171  1
  O  O330  1  0.09666321  0.91450245  0.14523200  1
  O  O331  1  0.13046387  0.85944975  0.62892298  1
  O  O332  1  0.64486906  0.35733800  0.13614225  1
  O  O333  1  0.62724034  0.38984198  0.63271685  1
  O  O334  1  0.56950751  0.86877271  0.14888627  1
  O  O335  1  0.62826092  0.91245895  0.59408297  1
  O  O336  1  0.11625749  0.25640377  0.25426025  1
  O  O337  1  0.13492666  0.26595716  0.77250498  1
  O  O338  1  0.10345820  0.72934890  0.24388390  1
  O  O339  1  0.10934198  0.73307135  0.76136213  1
  O  O340  1  0.62995959  0.25622082  0.25957755  1
  O  O341  1  0.61056248  0.27476949  0.73932983  1
  O  O342  1  0.65041677  0.78588375  0.30872903  1
  O  O343  1  0.61811487  0.74807814  0.76090884  1
  O  O344  1  0.38056541  0.25192128  0.23594408  1
  O  O345  1  0.38674211  0.26661396  0.76336811  1
  O  O346  1  0.37419898  0.73117689  0.22692542  1
  O  O347  1  0.38932174  0.75125982  0.72111265  1
  O  O348  1  0.88388715  0.25584383  0.24799299  1
  O  O349  1  0.86703022  0.23311156  0.74780558  1
  O  O350  1  0.90000151  0.73092260  0.21713486  1
  O  O351  1  0.88831039  0.76606719  0.72302781  1
  O  O352  1  0.30533368  0.46600176  0.58244892  1
  O  O353  1  0.38089115  0.48964609  1.01138335  1
  O  O354  1  0.36490695  1.01024766  0.52232195  1
  O  O355  1  0.39467190  1.00863475  1.00082019  1
  O  O356  1  0.87275257  0.49459983  0.48632011  1
  O  O357  1  0.87335125  0.49813216  0.99488714  1
  O  O358  1  0.85729677  1.01043355  0.47305961  1
  O  O359  1  0.88453087  1.01245433  1.01434490  1
  O  O360  1  0.11535014  0.02450122  0.00269947  1
  O  O361  1  0.13223884  0.02752945  0.48715732  1
  O  O362  1  0.11591583  0.48550655  0.01691656  1
  O  O363  1  0.12708264  0.48148612  0.50467906  1
  O  O364  1  0.60329556  0.01322959  -0.01151833  1
  O  O365  1  0.64794196  0.03499629  0.51365681  1
  O  O366  1  0.63772596  0.51829638  -0.00139006  1
  O  O367  1  0.62825588  0.50059147  0.50723849  1
  O  O368  1  0.37844193  0.37014242  0.12263853  1
  O  O369  1  0.36315282  0.41712823  0.58012268  1
  O  O370  1  0.38829502  0.85086298  0.11891501  1
  O  O371  1  0.37051901  0.86846332  0.61547223  1
  O  O372  1  0.86270860  0.36554254  0.12750683  1
  O  O373  1  0.86245445  0.39117104  0.63430749  1
  O  O374  1  0.89182824  0.87221008  0.12928750  1
  O  O375  1  0.89923186  0.86733771  0.60261119  1
  O  O376  1  0.11295596  0.13632666  0.36694877  1
  O  O377  1  0.13703534  0.14686960  0.89948018  1
  O  O378  1  0.14478479  0.59849015  0.38495817  1
  O  O379  1  0.12223689  0.61490516  0.84861181  1
  O  O380  1  0.64017573  0.13126762  0.38130828  1
  O  O381  1  0.61793129  0.12884760  0.87923318  1
  O  O382  1  0.64843249  0.64536688  0.37753770  1
  O  O383  1  0.63751457  0.63128957  0.87806744  1
