# generated using pymatgen
data_VZnO4
_symmetry_space_group_name_H-M   'P 1'
_cell_length_a   17.01257152
_cell_length_b   16.97469339
_cell_length_c   16.83877430
_cell_angle_alpha   90.17155801
_cell_angle_beta   90.20310976
_cell_angle_gamma   90.39743197
_symmetry_Int_Tables_number   1
_chemical_formula_structural   VZnO4
_chemical_formula_sum   'V64 Zn64 O256'
_cell_volume   4862.58518012
_cell_formula_units_Z   64
loop_
 _symmetry_equiv_pos_site_id
 _symmetry_equiv_pos_as_xyz
  1  'x, y, z'
loop_
 _atom_site_type_symbol
 _atom_site_label
 _atom_site_symmetry_multiplicity
 _atom_site_fract_x
 _atom_site_fract_y
 _atom_site_fract_z
 _atom_site_occupancy
  V  V0  1  -0.00830088  0.24425799  0.24313069  1
  V  V1  1  0.74748229  0.76536336  0.00087877  1
  V  V2  1  0.13183211  0.89273447  0.73909355  1
  V  V3  1  0.25366813  0.15815499  0.88349927  1
  V  V4  1  0.47324705  0.60087378  0.12620085  1
  V  V5  1  -0.00883807  0.61404503  0.11064085  1
  V  V6  1  0.75067565  0.50422613  0.73561797  1
  V  V7  1  0.87328563  0.49999601  0.36567224  1
  V  V8  1  0.74360044  0.37123668  0.61130784  1
  V  V9  1  0.36375076  0.71733236  0.61390096  1
  V  V10  1  0.36576339  0.12429278  0.74566501  1
  V  V11  1  0.87878437  0.01878678  0.36836213  1
  V  V12  1  0.87024414  0.41118511  -0.02495112  1
  V  V13  1  0.47573840  0.73991256  0.76044832  1
  V  V14  1  0.12563475  0.61378034  -0.00326815  1
  V  V15  1  -0.01062084  0.11853997  0.11975752  1
  V  V16  1  0.09675351  0.26131526  0.87558720  1
  V  V17  1  0.86211540  0.00330408  0.87687027  1
  V  V18  1  0.75407431  0.62259888  0.36689298  1
  V  V19  1  0.12826033  0.24157633  0.37723011  1
  V  V20  1  0.15156105  0.36904614  0.74716607  1
  V  V21  1  0.49186885  0.12341412  0.11532170  1
  V  V22  1  0.87167685  0.36382117  0.49935038  1
  V  V23  1  0.75122337  0.61742058  0.87582185  1
  V  V24  1  0.13340115  0.88197993  0.23574572  1
  V  V25  1  0.87715224  0.76355230  0.11522924  1
  V  V26  1  0.88830319  0.75461738  0.62075189  1
  V  V27  1  0.90017939  0.11498817  0.73979612  1
  V  V28  1  0.64386062  0.50333997  0.15398934  1
  V  V29  1  0.00582486  0.62247937  0.61990526  1
  V  V30  1  0.61717775  0.51206209  0.61191894  1
  V  V31  1  0.75145108  -0.02294187  0.25175508  1
  V  V32  1  0.11969306  0.74043442  0.36518399  1
  V  V33  1  0.88416884  0.62422364  0.74919664  1
  V  V34  1  0.25007390  0.02303107  0.25735838  1
  V  V35  1  0.62431759  0.76224662  0.35496696  1
  V  V36  1  0.43197869  0.46625204  0.86603277  1
  V  V37  1  0.24024159  0.76131251  -0.00030675  1
  V  V38  1  0.13580476  0.49369142  0.13971985  1
  V  V39  1  0.24557205  0.61301197  0.85919223  1
  V  V40  1  0.35665621  -0.00917420  0.89416410  1
  V  V41  1  0.76496685  0.75860298  0.49034682  1
  V  V42  1  0.51884304  0.16041941  0.63541228  1
  V  V43  1  0.63606107  0.75479365  0.85405685  1
  V  V44  1  -0.00062227  0.88996141  0.87888992  1
  V  V45  1  0.11130881  0.74799090  0.85965160  1
  V  V46  1  0.49130089  0.39953401  0.37650506  1
  V  V47  1  -0.00497909  0.87181320  0.36367215  1
  V  V48  1  0.61825804  0.63162744  0.49484856  1
  V  V49  1  0.12089935  0.12281266  0.00408971  1
  V  V50  1  0.12776889  0.12520256  0.51659618  1
  V  V51  1  0.87700949  0.62384074  0.24039033  1
  V  V52  1  0.13217293  0.49054810  0.62618061  1
  V  V53  1  0.36586360  0.75476458  0.11303445  1
  V  V54  1  0.00129822  0.00120063  0.50562239  1
  V  V55  1  0.74953167  0.20847086  0.03220346  1
  V  V56  1  0.23696934  0.76249123  0.48912121  1
  V  V57  1  0.39668717  0.13339427  0.33123092  1
  V  V58  1  0.51004534  0.87916608  0.88281237  1
  V  V59  1  0.36723451  0.53814386  0.40133652  1
  V  V60  1  0.00156416  0.50277870  0.49781279  1
  V  V61  1  0.75468278  0.87933805  0.63289117  1
  V  V62  1  0.00581431  0.37421231  0.36658987  1
  V  V63  1  0.60808995  -0.00714456  0.61825089  1
  Zn  Zn64  1  0.17457638  0.20235190  0.19286243  1
  Zn  Zn65  1  0.18964373  0.18481259  0.69326567  1
  Zn  Zn66  1  0.18238439  0.68568755  0.18298446  1
  Zn  Zn67  1  0.19435575  0.69072763  0.67523740  1
  Zn  Zn68  1  0.69501198  0.11348459  0.18753753  1
  Zn  Zn69  1  0.68240812  0.18441175  0.54219465  1
  Zn  Zn70  1  0.68585815  0.68048151  0.17656584  1
  Zn  Zn71  1  0.69817166  0.69008522  0.67753155  1
  Zn  Zn72  1  0.33730077  0.28027165  0.38225935  1
  Zn  Zn73  1  0.37272056  0.33962160  0.74167192  1
  Zn  Zn74  1  0.29777676  0.80787621  0.29979611  1
  Zn  Zn75  1  0.30313430  0.81182697  0.81945208  1
  Zn  Zn76  1  0.82004742  0.30906414  0.30788950  1
  Zn  Zn77  1  0.80570119  0.32618910  0.80768784  1
  Zn  Zn78  1  0.81347886  0.80856379  0.29757073  1
  Zn  Zn79  1  0.82514223  0.80941725  0.80987019  1
  Zn  Zn80  1  0.17820152  0.46054552  0.41345988  1
  Zn  Zn81  1  0.18747878  0.43009770  0.93516071  1
  Zn  Zn82  1  0.18034228  0.93883269  0.43212869  1
  Zn  Zn83  1  0.17315609  0.93684127  0.93863719  1
  Zn  Zn84  1  0.68766287  0.43851871  0.42841441  1
  Zn  Zn85  1  0.66434395  0.38396202  0.97553182  1
  Zn  Zn86  1  0.69424335  0.94475488  0.43837151  1
  Zn  Zn87  1  0.69550769  0.93402067  0.92708165  1
  Zn  Zn88  1  0.30265587  0.08886582  0.07050493  1
  Zn  Zn89  1  0.34117966  0.11687644  0.53344580  1
  Zn  Zn90  1  0.31597425  0.50622790  0.04744719  1
  Zn  Zn91  1  0.27995305  0.57657768  0.53436104  1
  Zn  Zn92  1  0.81874183  0.04689858  0.06103102  1
  Zn  Zn93  1  0.82456695  0.06223700  0.55797504  1
  Zn  Zn94  1  0.80527948  0.54349064  0.05328418  1
  Zn  Zn95  1  0.81670036  0.56617975  0.55295268  1
  Zn  Zn96  1  0.41973092  0.42977756  0.21328953  1
  Zn  Zn97  1  0.40326187  0.51192135  0.66456334  1
  Zn  Zn98  1  0.38899399  0.96194390  0.11419940  1
  Zn  Zn99  1  0.43526684  0.93762352  0.71076653  1
  Zn  Zn100  1  0.94330160  0.43587389  0.18069790  1
  Zn  Zn101  1  0.93040315  0.43906882  0.68168020  1
  Zn  Zn102  1  0.94237982  0.94150028  0.18736063  1
  Zn  Zn103  1  0.94844257  0.93253415  0.69713591  1
  Zn  Zn104  1  0.06628570  0.06191223  0.30608247  1
  Zn  Zn105  1  0.06994892  0.06757439  0.80961484  1
  Zn  Zn106  1  0.05255500  0.56376003  0.30137315  1
  Zn  Zn107  1  0.06271991  0.54894782  0.81284279  1
  Zn  Zn108  1  0.53830168  0.02967485  0.26850703  1
  Zn  Zn109  1  0.55610970  0.03993078  0.78674670  1
  Zn  Zn110  1  0.55065661  0.57583774  0.30700292  1
  Zn  Zn111  1  0.56903814  0.56440119  0.80676176  1
  Zn  Zn112  1  0.51779082  0.17645741  0.44575925  1
  Zn  Zn113  1  0.44271562  0.15974789  0.95391171  1
  Zn  Zn114  1  0.44350014  0.72706953  0.43670489  1
  Zn  Zn115  1  0.41064238  0.61933057  0.96966254  1
  Zn  Zn116  1  0.94460882  0.18521333  0.44044023  1
  Zn  Zn117  1  0.92468565  0.18674097  0.94045345  1
  Zn  Zn118  1  0.94393000  0.68695389  0.43269045  1
  Zn  Zn119  1  0.93485557  0.68879294  0.93696566  1
  Zn  Zn120  1  0.06508533  0.31573897  0.06462461  1
  Zn  Zn121  1  0.06162068  0.31548816  0.55988474  1
  Zn  Zn122  1  0.05635362  0.80597944  0.05728523  1
  Zn  Zn123  1  0.06471048  0.82190068  0.55305330  1
  Zn  Zn124  1  0.64369999  0.28894319  0.13105039  1
  Zn  Zn125  1  0.55594217  0.32512970  0.55311388  1
  Zn  Zn126  1  0.53371097  0.74309261  0.01778893  1
  Zn  Zn127  1  0.58114263  0.83011402  0.53745867  1
  O  O128  1  0.12306978  0.14070252  0.10705159  1
  O  O129  1  0.11908682  0.13593179  0.61711331  1
  O  O130  1  0.10964962  0.62358867  0.11502232  1
  O  O131  1  0.10768297  0.60561934  0.63866671  1
  O  O132  1  0.57911269  0.14299218  0.19068030  1
  O  O133  1  0.61021940  0.11546846  0.61606765  1
  O  O134  1  0.61547594  0.60043650  0.12913450  1
  O  O135  1  0.63658657  0.62577825  0.60460073  1
  O  O136  1  0.36387678  0.40966943  0.37212137  1
  O  O137  1  0.40806901  0.36901350  0.84796165  1
  O  O138  1  0.39111399  0.85358459  0.35456795  1
  O  O139  1  0.37925796  0.89053360  0.88088587  1
  O  O140  1  0.88173196  0.38336564  0.37969820  1
  O  O141  1  0.87465488  0.37604065  0.87818509  1
  O  O142  1  0.89378156  0.86431612  0.36154566  1
  O  O143  1  0.89190469  0.88750564  0.86008147  1
  O  O144  1  0.24597600  -0.00690032  0.35636972  1
  O  O145  1  0.25769749  -0.00219265  0.88730629  1
  O  O146  1  0.25579717  0.53646896  0.41996591  1
  O  O147  1  0.22623013  0.51402151  0.86749187  1
  O  O148  1  0.77052125  -0.00876074  0.36550308  1
  O  O149  1  0.76263586  -0.00477597  0.86373671  1
  O  O150  1  0.76467685  0.51043071  0.37804002  1
  O  O151  1  0.74545443  0.51587203  0.84680379  1
  O  O152  1  0.23347915  0.51430223  0.12905101  1
  O  O153  1  0.22811648  0.50468854  0.61376793  1
  O  O154  1  0.28811847  1.01013181  0.15234917  1
  O  O155  1  0.31810282  0.96135303  0.59179628  1
  O  O156  1  0.74334981  0.50361988  0.14037591  1
  O  O157  1  0.74858283  0.50320144  0.62217723  1
  O  O158  1  0.76109899  1.02262549  0.15505837  1
  O  O159  1  0.77487812  0.97515025  0.61535398  1
  O  O160  1  -0.00777861  0.36568110  0.25866196  1
  O  O161  1  -0.01013729  0.34190631  0.71364348  1
  O  O162  1  0.01283522  0.88267862  0.25755794  1
  O  O163  1  0.01901004  0.87437756  0.76421567  1
  O  O164  1  0.49136279  0.36924882  0.27915557  1
  O  O165  1  0.53381520  0.25318645  0.82185209  1
  O  O166  1  0.43942435  0.89145040  0.30106332  1
  O  O167  1  0.48968532  0.85585436  0.77240941  1
  O  O168  1  0.50086759  0.11564923  0.34725319  1
  O  O169  1  0.48716509  0.11615891  0.72852380  1
  O  O170  1  0.48941004  0.62740132  0.22434881  1
  O  O171  1  0.51195519  0.64605594  0.75250641  1
  O  O172  1  1.00589859  0.13542785  0.23536457  1
  O  O173  1  0.99832317  0.13495930  0.75389848  1
  O  O174  1  0.98478790  0.62767274  0.23112899  1
  O  O175  1  0.98775602  0.61384009  0.74158425  1
  O  O176  1  0.40736923  0.28422377  -0.00200978  1
  O  O177  1  0.30764389  0.32564373  0.52523201  1
  O  O178  1  0.34910618  0.74779256  0.00373504  1
  O  O179  1  0.34812512  0.74427198  0.50951407  1
  O  O180  1  0.83622884  0.24097027  -0.01051588  1
  O  O181  1  0.87757621  0.26567579  0.48969706  1
  O  O182  1  0.86146165  0.74542778  0.00494939  1
  O  O183  1  0.87187289  0.74206691  0.50638119  1
  O  O184  1  0.10577015  0.23733375  0.49092565  1
  O  O185  1  0.11734783  0.26112393  0.97903364  1
  O  O186  1  0.12481542  0.75633313  0.47685339  1
  O  O187  1  0.12600273  0.73810785  0.99271334  1
  O  O188  1  0.59935564  0.23868927  0.49059764  1
  O  O189  1  0.66702652  0.27337941  1.01402532  1
  O  O190  1  0.64985694  0.74254490  0.48866188  1
  O  O191  1  0.64575233  0.74652952  0.98408108  1
  O  O192  1  0.54760560  0.21687731  0.15811981  1
  O  O193  1  0.53111786  0.25864981  0.64800595  1
  O  O194  1  0.46586987  0.73595710  0.11868341  1
  O  O195  1  0.45465132  0.75398101  0.65192694  1
  O  O196  1  1.00843569  0.24805510  0.14026529  1
  O  O197  1  0.98890203  0.28818945  0.65640648  1
  O  O198  1  0.97896490  0.73439010  0.11201794  1
  O  O199  1  0.99252753  0.74008980  0.60870160  1
  O  O200  1  0.00300023  0.25880078  0.36761672  1
  O  O201  1  -0.00061033  0.25403565  0.87380053  1
  O  O202  1  0.00909769  0.76085801  0.37293482  1
  O  O203  1  0.00874088  0.75123497  0.87416945  1
  O  O204  1  0.45184580  0.29692369  0.42266352  1
  O  O205  1  0.53090118  0.23810247  0.89397935  1
  O  O206  1  0.52642526  0.74432618  0.35562252  1
  O  O207  1  0.53044869  0.74985088  0.86673248  1
  O  O208  1  0.22586927  0.12370255  0.50577599  1
  O  O209  1  0.23435229  0.13775712  0.99278561  1
  O  O210  1  0.22448795  0.67903561  0.55850483  1
  O  O211  1  0.22705563  0.62829350  0.99009233  1
  O  O212  1  0.76927842  0.13630672  0.49875040  1
  O  O213  1  0.73550099  0.11257795  1.00631704  1
  O  O214  1  0.75592597  0.63600566  0.48270882  1
  O  O215  1  0.75705254  0.61749807  0.97668298  1
  O  O216  1  0.26554435  0.41017431  0.01027459  1
  O  O217  1  0.25407251  0.30055905  0.57216873  1
  O  O218  1  0.23314332  0.86027618  -0.00204061  1
  O  O219  1  0.23390473  0.86105523  0.50579145  1
  O  O220  1  0.77007501  0.41547958  -0.00205618  1
  O  O221  1  0.76316266  0.38283642  0.50015288  1
  O  O222  1  0.75243449  0.86426059  -0.00021815  1
  O  O223  1  0.76101046  0.85950890  0.50048602  1
  O  O224  1  0.12436639  0.50226187  0.24200663  1
  O  O225  1  0.11754885  0.47848562  0.73557928  1
  O  O226  1  0.13475740  0.99075298  0.24415687  1
  O  O227  1  0.12769349  0.99384137  0.74643766  1
  O  O228  1  0.62487681  0.50208413  0.25448132  1
  O  O229  1  0.64313939  0.51680512  0.72388351  1
  O  O230  1  0.65415739  1.02271331  0.26128635  1
  O  O231  1  0.63766114  1.00418221  0.71771768  1
  O  O232  1  0.36129552  0.05107429  0.28215910  1
  O  O233  1  0.38662129  0.01655006  0.78594936  1
  O  O234  1  0.34354481  0.46126331  0.30520757  1
  O  O235  1  0.40330632  0.51655321  0.78243784  1
  O  O236  1  0.86639914  -0.00750446  0.26035056  1
  O  O237  1  0.88888252  0.00909542  0.75852966  1
  O  O238  1  0.88269365  0.50409078  0.25757766  1
  O  O239  1  0.86478497  0.51461213  0.73797535  1
  O  O240  1  0.11019430  0.37425230  0.38663125  1
  O  O241  1  0.12376508  0.36826290  0.85858642  1
  O  O242  1  0.11668485  0.86804973  0.35733252  1
  O  O243  1  0.11628835  0.86192541  0.86794965  1
  O  O244  1  0.58617959  0.39636268  0.40661241  1
  O  O245  1  0.64927824  0.35913373  0.85887486  1
  O  O246  1  0.63789858  0.86019968  0.38072955  1
  O  O247  1  0.62238776  0.86512657  0.87251745  1
  O  O248  1  0.39632189  0.15386233  0.10391038  1
  O  O249  1  0.34174048  0.10144090  0.65178742  1
  O  O250  1  0.37100847  0.61253074  0.09628109  1
  O  O251  1  0.36381449  0.61486892  0.62585020  1
  O  O252  1  0.89166980  0.12898493  0.10975280  1
  O  O253  1  0.88785199  0.11314665  0.63967616  1
  O  O254  1  0.88209009  0.61209541  0.12237315  1
  O  O255  1  0.88640510  0.63124989  0.62739922  1
  O  O256  1  0.25404979  0.26732072  0.13393323  1
  O  O257  1  0.27457153  0.23673062  0.61844746  1
  O  O258  1  0.24550624  0.74237584  0.10508248  1
  O  O259  1  0.29423387  0.76100571  0.66957659  1
  O  O260  1  0.73839610  0.20686257  0.13842463  1
  O  O261  1  0.72961274  0.27497068  0.61654489  1
  O  O262  1  0.75838185  0.73946113  0.10616737  1
  O  O263  1  0.76643770  0.75532830  0.60838385  1
  O  O264  1  0.22546556  0.26476602  0.37876262  1
  O  O265  1  0.25730181  0.25344280  0.88228712  1
  O  O266  1  0.23784960  0.74915111  0.38274662  1
  O  O267  1  0.22840673  0.74093713  0.88403576  1
  O  O268  1  0.71770110  0.33414687  0.35464112  1
  O  O269  1  0.69226689  0.29900876  0.83869819  1
  O  O270  1  0.75988521  0.74348636  0.37947103  1
  O  O271  1  0.75223424  0.74657939  0.87908842  1
  O  O272  1  0.01082064  0.13976957  0.00867502  1
  O  O273  1  0.00450398  0.10904000  0.49871037  1
  O  O274  1  0.00518840  0.62597390  0.00548382  1
  O  O275  1  -0.00296596  0.61279922  0.50537973  1
  O  O276  1  0.52457869  0.11880112  0.01940119  1
  O  O277  1  0.46048222  0.14499341  0.54998441  1
  O  O278  1  0.50958851  0.63000529  0.02105179  1
  O  O279  1  0.52238549  0.64289154  0.49283717  1
  O  O280  1  0.45884688  0.35563345  0.48618763  1
  O  O281  1  0.46074081  0.32563522  1.02675731  1
  O  O282  1  0.48432508  0.81708531  0.49538610  1
  O  O283  1  0.50047068  0.85011906  0.97955818  1
  O  O284  1  0.98576946  0.38223493  0.49259196  1
  O  O285  1  0.95963827  0.36248908  1.02692208  1
  O  O286  1  1.01265014  0.89099598  0.47475997  1
  O  O287  1  1.00608331  0.87054808  0.97886846  1
  O  O288  1  0.47771795  0.50756045  0.37035596  1
  O  O289  1  0.53501607  0.47905036  0.87033478  1
  O  O290  1  0.49105665  0.93849435  0.33595029  1
  O  O291  1  0.51502704  0.98165526  0.87920009  1
  O  O292  1  0.99482313  0.49382888  0.37795467  1
  O  O293  1  1.01517294  0.47613642  0.88144585  1
  O  O294  1  0.98964198  0.99339932  0.36724418  1
  O  O295  1  1.00921030  0.99117921  0.87686346  1
  O  O296  1  -0.00016610  0.01950863  0.12717856  1
  O  O297  1  -0.00744776  -0.01681598  0.60271031  1
  O  O298  1  0.00976684  0.51289119  0.12440191  1
  O  O299  1  -0.00099490  0.50403845  0.61449363  1
  O  O300  1  0.48252169  0.02517360  0.15757706  1
  O  O301  1  0.50931152  -0.02335166  0.62553722  1
  O  O302  1  0.46661215  0.49861925  0.13525299  1
  O  O303  1  0.52095747  0.51139711  0.62245244  1
  O  O304  1  0.28226566  0.32912531  0.17607189  1
  O  O305  1  0.24770335  0.37160821  0.74576474  1
  O  O306  1  0.23755725  0.88322742  0.24136348  1
  O  O307  1  0.22932404  0.87420788  0.76369170  1
  O  O308  1  0.71349701  0.33626771  0.22123745  1
  O  O309  1  0.75904193  0.39539335  0.72458901  1
  O  O310  1  0.74544874  0.87968884  0.23850398  1
  O  O311  1  0.76096473  0.86571494  0.73183227  1
  O  O312  1  0.22288763  0.11869383  0.25323585  1
  O  O313  1  0.25375850  0.13012193  0.77610998  1
  O  O314  1  0.28624833  0.65635069  0.23563635  1
  O  O315  1  0.23720112  0.62701158  0.75956222  1
  O  O316  1  0.73448571  0.17350388  0.31031699  1
  O  O317  1  0.79256579  0.16844624  0.75153807  1
  O  O318  1  0.76279508  0.62728716  0.25860389  1
  O  O319  1  0.76551075  0.62045478  0.74285060  1
  O  O320  1  0.35976573  0.15523808  0.42516412  1
  O  O321  1  0.36071177  0.12512786  0.88644175  1
  O  O322  1  0.38460613  0.63603936  0.38600919  1
  O  O323  1  0.34174328  0.62754847  0.88319341  1
  O  O324  1  0.88239899  0.11720711  0.36622619  1
  O  O325  1  0.88313536  0.10783801  0.86575326  1
  O  O326  1  0.87603279  0.61948337  0.36193836  1
  O  O327  1  0.86642120  0.63559009  0.85515744  1
  O  O328  1  0.12221955  0.39561166  0.11942252  1
  O  O329  1  0.12702619  0.37894176  0.63287471  1
  O  O330  1  0.11124931  0.86366762  0.13874273  1
  O  O331  1  0.12169075  0.86394474  0.64090465  1
  O  O332  1  0.59561716  0.40103556  0.12687746  1
  O  O333  1  0.63689899  0.40133867  0.59910075  1
  O  O334  1  0.60939180  0.92941124  0.07920779  1
  O  O335  1  0.64607315  0.87940299  0.61621012  1
  O  O336  1  0.10751682  0.25503825  0.26901113  1
  O  O337  1  0.13006029  0.26264921  0.75940578  1
  O  O338  1  0.13474698  0.76003183  0.25891073  1
  O  O339  1  0.12290080  0.74377810  0.75966027  1
  O  O340  1  0.66809326  0.33474501  0.28859754  1
  O  O341  1  0.67675610  0.14911025  0.85179819  1
  O  O342  1  0.64835556  0.75102346  0.25703199  1
  O  O343  1  0.64184084  0.75534419  0.75351217  1
  O  O344  1  0.38021437  0.22126318  0.28455090  1
  O  O345  1  0.37905592  0.22405379  0.74888779  1
  O  O346  1  0.33605076  0.71955206  0.22615841  1
  O  O347  1  0.38537484  0.73585170  0.79758887  1
  O  O348  1  0.89028201  0.24647897  0.25235442  1
  O  O349  1  0.84788522  0.22703805  0.75735200  1
  O  O350  1  0.86491514  0.73568067  0.22290844  1
  O  O351  1  0.87583331  0.73524236  0.73051571  1
  O  O352  1  0.38475511  0.52350080  0.49934967  1
  O  O353  1  0.39418947  0.49970291  0.96035478  1
  O  O354  1  0.34686004  0.99018471  0.52525759  1
  O  O355  1  0.37506326  1.00836984  0.99865711  1
  O  O356  1  0.88534861  0.49644675  0.48569407  1
  O  O357  1  0.89141414  0.50937785  0.98118952  1
  O  O358  1  0.89024185  1.00018482  0.47762791  1
  O  O359  1  0.87300513  0.99603107  0.97839746  1
  O  O360  1  0.12311140  0.02449451  -0.00746835  1
  O  O361  1  0.11226046  0.01367636  0.49230886  1
  O  O362  1  0.12114012  0.51285497  0.00587829  1
  O  O363  1  0.10833828  0.48668571  0.51229551  1
  O  O364  1  0.62829015  -0.02153071  0.02730960  1
  O  O365  1  0.63688813  -0.00011189  0.51674847  1
  O  O366  1  0.60195325  0.44743374  0.05424729  1
  O  O367  1  0.63377152  0.52351789  0.49990545  1
  O  O368  1  0.34432400  0.36226430  0.14185707  1
  O  O369  1  0.39172797  0.40106462  0.65120579  1
  O  O370  1  0.36883154  0.85234268  0.13342212  1
  O  O371  1  0.35923488  0.90273172  0.62427178  1
  O  O372  1  0.90000450  0.37404975  0.08768676  1
  O  O373  1  0.86140461  0.37949880  0.60602941  1
  O  O374  1  0.88390546  0.86147708  0.12474966  1
  O  O375  1  0.87934486  0.85614730  0.62842293  1
  O  O376  1  0.11758312  0.13895696  0.37966180  1
  O  O377  1  0.13221138  0.14838496  0.88076299  1
  O  O378  1  0.11067891  0.64103422  0.36303806  1
  O  O379  1  0.11764977  0.63179044  0.88056341  1
  O  O380  1  0.70037868  0.15220180  0.37216750  1
  O  O381  1  0.62323109  0.10456746  0.87553456  1
  O  O382  1  0.63801083  0.63433816  0.37762718  1
  O  O383  1  0.64810878  0.64005316  0.85968823  1
