# generated using pymatgen
data_VZnO4
_symmetry_space_group_name_H-M   'P 1'
_cell_length_a   17.05342442
_cell_length_b   17.04726985
_cell_length_c   17.10537519
_cell_angle_alpha   89.22945140
_cell_angle_beta   89.89482818
_cell_angle_gamma   89.04845171
_symmetry_Int_Tables_number   1
_chemical_formula_structural   VZnO4
_chemical_formula_sum   'V64 Zn64 O256'
_cell_volume   4971.63579018
_cell_formula_units_Z   64
loop_
 _symmetry_equiv_pos_site_id
 _symmetry_equiv_pos_as_xyz
  1  'x, y, z'
loop_
 _atom_site_type_symbol
 _atom_site_label
 _atom_site_symmetry_multiplicity
 _atom_site_fract_x
 _atom_site_fract_y
 _atom_site_fract_z
 _atom_site_occupancy
  V  V0  1  0.11167534  0.85844364  0.74909779  1
  V  V1  1  0.80738260  0.80974825  0.54582680  1
  V  V2  1  0.86316167  0.25519342  0.12873551  1
  V  V3  1  -0.00145325  0.13453530  0.62934674  1
  V  V4  1  0.37787377  0.28508940  0.14333981  1
  V  V5  1  0.37266920  0.89287710  0.00495818  1
  V  V6  1  0.63807671  0.50038924  0.13473789  1
  V  V7  1  0.62796504  0.61131751  0.00113819  1
  V  V8  1  0.85879116  0.60425951  0.24276126  1
  V  V9  1  0.10161209  0.74217098  0.89366029  1
  V  V10  1  0.49375906  0.62349688  0.64064576  1
  V  V11  1  -0.02593112  -0.00239625  0.48820213  1
  V  V12  1  -0.00842387  0.74135864  0.70877570  1
  V  V13  1  0.11600061  -0.02134387  0.61693291  1
  V  V14  1  0.00669941  0.60879874  0.12670437  1
  V  V15  1  0.63745531  0.74853442  0.38316343  1
  V  V16  1  0.88060244  0.90544915  -0.01545511  1
  V  V17  1  0.87918959  0.12170195  0.25792039  1
  V  V18  1  0.23161167  0.63274777  0.35933680  1
  V  V19  1  0.74466267  0.48955068  0.74058794  1
  V  V20  1  0.49168707  0.52561293  0.48824373  1
  V  V21  1  0.61618400  0.34230502  0.23534887  1
  V  V22  1  0.49190303  0.50580146  0.00669080  1
  V  V23  1  0.37494840  0.63428724  0.24901460  1
  V  V24  1  0.11885413  0.62216041  0.51695883  1
  V  V25  1  0.12376655  0.12006148  0.49599133  1
  V  V26  1  0.34385123  0.75623382  0.11843636  1
  V  V27  1  0.25872642  0.25919634  0.02518686  1
  V  V28  1  0.76133925  0.60518954  0.87494788  1
  V  V29  1  0.14559160  0.38084278  0.24540995  1
  V  V30  1  0.50471081  0.87126011  0.38869666  1
  V  V31  1  -0.01371087  0.75983237  0.25243402  1
  V  V32  1  0.24937219  0.64813341  0.87148095  1
  V  V33  1  0.86321169  0.25601124  0.61063430  1
  V  V34  1  0.37316380  0.10924876  0.22820012  1
  V  V35  1  0.87027821  0.13194754  0.75187354  1
  V  V36  1  0.72246244  0.13395992  0.92158705  1
  V  V37  1  0.63674118  0.89367327  0.76108854  1
  V  V38  1  -0.01834044  0.38146519  0.37871925  1
  V  V39  1  0.10799252  0.13832679  0.05139054  1
  V  V40  1  0.51973636  0.08364472  0.12693874  1
  V  V41  1  0.75772408  0.75451481  -0.01545008  1
  V  V42  1  0.74032168  -0.01229081  0.26529321  1
  V  V43  1  0.13980844  0.26045488  0.39029078  1
  V  V44  1  0.52069749  0.76127864  0.23035837  1
  V  V45  1  0.61254327  0.74547602  0.86716620  1
  V  V46  1  0.63366765  0.34919606  0.75500984  1
  V  V47  1  0.48775415  0.91072407  0.87250577  1
  V  V48  1  0.23889775  -0.01275522  0.24498144  1
  V  V49  1  0.23874008  -0.00117820  0.75331596  1
  V  V50  1  0.87443563  0.36875816  -0.01310362  1
  V  V51  1  0.50394415  0.14316219  0.62681851  1
  V  V52  1  0.00653771  0.24757809  0.24930209  1
  V  V53  1  0.38016267  0.51334704  0.85626423  1
  V  V54  1  0.74565543  0.61512149  0.38287075  1
  V  V55  1  0.24536091  0.75413565  0.50565891  1
  V  V56  1  0.61321613  0.16134605  0.48644379  1
  V  V57  1  0.85963805  0.74756625  0.12065609  1
  V  V58  1  0.01110109  0.49056736  -0.01284156  1
  V  V59  1  0.50263868  0.36203865  0.87880787  1
  V  V60  1  -0.00818538  0.50299041  0.50452164  1
  V  V61  1  0.12115345  0.37050372  0.74795912  1
  V  V62  1  0.88299263  0.61189843  0.73592771  1
  V  V63  1  0.26473341  0.11087334  0.38738473  1
  Zn  Zn64  1  0.19480488  0.19057576  0.20676495  1
  Zn  Zn65  1  0.18046828  0.17349502  0.68762293  1
  Zn  Zn66  1  0.17539411  0.70040607  0.19229689  1
  Zn  Zn67  1  0.19227867  0.67967461  0.68921453  1
  Zn  Zn68  1  0.67041066  0.19711196  0.10755044  1
  Zn  Zn69  1  0.69426583  0.17911082  0.67359632  1
  Zn  Zn70  1  0.68806649  0.68612822  0.18049834  1
  Zn  Zn71  1  0.69256298  0.68109347  0.68718886  1
  Zn  Zn72  1  0.31738915  0.29315913  0.31221722  1
  Zn  Zn73  1  0.29027794  0.36486868  0.86021465  1
  Zn  Zn74  1  0.31759178  0.80741980  0.32091202  1
  Zn  Zn75  1  0.26865450  0.86016365  0.87099241  1
  Zn  Zn76  1  0.80531421  0.44106165  0.31841350  1
  Zn  Zn77  1  0.81647008  0.29809585  0.81322401  1
  Zn  Zn78  1  0.83391425  0.80342379  0.34424452  1
  Zn  Zn79  1  0.80637477  0.80579585  0.71227504  1
  Zn  Zn80  1  0.17103748  0.47461458  0.39727528  1
  Zn  Zn81  1  0.22146185  0.45167889  0.99051536  1
  Zn  Zn82  1  0.18345315  0.93222807  0.42489068  1
  Zn  Zn83  1  0.13986234  1.01068283  0.91439310  1
  Zn  Zn84  1  0.62824036  0.45933640  0.38597228  1
  Zn  Zn85  1  0.68999727  0.31547370  0.94694147  1
  Zn  Zn86  1  0.71628968  0.91074789  0.42618743  1
  Zn  Zn87  1  0.80555409  0.96865567  0.81481097  1
  Zn  Zn88  1  0.28297554  0.06158097  0.04936467  1
  Zn  Zn89  1  0.31574988  0.14026796  0.57927302  1
  Zn  Zn90  1  0.30229091  0.57975155  0.06318051  1
  Zn  Zn91  1  0.33693175  0.60789699  0.53240073  1
  Zn  Zn92  1  0.81337971  0.06597257  0.08898415  1
  Zn  Zn93  1  0.80138603  0.08580488  0.42815351  1
  Zn  Zn94  1  0.81788179  0.54598643  0.05869440  1
  Zn  Zn95  1  0.81043209  0.55518494  0.55941713  1
  Zn  Zn96  1  0.45514158  0.45096922  0.20416706  1
  Zn  Zn97  1  0.47822866  0.45752390  0.69804696  1
  Zn  Zn98  1  0.42944078  0.92807334  0.19395026  1
  Zn  Zn99  1  0.44405360  1.00297134  0.71422491  1
  Zn  Zn100  1  0.94670781  0.42698189  0.18923702  1
  Zn  Zn101  1  0.92942640  0.43698306  0.68068922  1
  Zn  Zn102  1  0.87835020  0.92480712  0.20201900  1
  Zn  Zn103  1  0.93257590  0.93581734  0.66071566  1
  Zn  Zn104  1  0.03764176  0.03334509  0.28897665  1
  Zn  Zn105  1  -0.00281911  0.01710490  0.79696916  1
  Zn  Zn106  1  0.05072626  0.56148347  0.30343838  1
  Zn  Zn107  1  0.06616961  0.56674505  0.81429615  1
  Zn  Zn108  1  0.56184086  0.05590818  0.31403102  1
  Zn  Zn109  1  0.57393963  0.07109701  0.81781275  1
  Zn  Zn110  1  0.55311965  0.58800617  0.30415881  1
  Zn  Zn111  1  0.56997908  0.55971352  0.82103520  1
  Zn  Zn112  1  0.45961114  0.17578934  0.41758737  1
  Zn  Zn113  1  0.54326955  0.18960728  0.96578143  1
  Zn  Zn114  1  0.43599907  0.71512921  0.42837926  1
  Zn  Zn115  1  0.43135053  0.68399601  0.94254970  1
  Zn  Zn116  1  0.94722670  0.19623617  0.43468914  1
  Zn  Zn117  1  0.93081350  0.16601522  0.95432295  1
  Zn  Zn118  1  0.92559600  0.67587124  0.43524831  1
  Zn  Zn119  1  0.93425306  0.66461517  0.93995019  1
  Zn  Zn120  1  0.06980358  0.32404764  0.06724487  1
  Zn  Zn121  1  0.05992753  0.31655330  0.55854763  1
  Zn  Zn122  1  0.03416678  0.79666085  0.05771549  1
  Zn  Zn123  1  0.05886306  0.82182711  0.48589981  1
  Zn  Zn124  1  0.55029237  0.33119163  0.06990255  1
  Zn  Zn125  1  0.55861530  0.31596678  0.57856864  1
  Zn  Zn126  1  0.55837969  0.80827748  0.03589784  1
  Zn  Zn127  1  0.60598306  0.82229052  0.56283641  1
  O  O128  1  0.12237610  0.12560746  0.14897478  1
  O  O129  1  0.11438977  0.11976093  0.61106492  1
  O  O130  1  0.10251586  0.63085789  0.13637400  1
  O  O131  1  0.12554972  0.61539317  0.61453984  1
  O  O132  1  0.61796832  0.09981872  0.13476789  1
  O  O133  1  0.61527199  0.13803604  0.60251021  1
  O  O134  1  0.63306267  0.61738392  0.10587334  1
  O  O135  1  0.60506794  0.65499558  0.61478821  1
  O  O136  1  0.39092365  0.32483914  0.45386642  1
  O  O137  1  0.40078712  0.39216463  0.86635486  1
  O  O138  1  0.40590894  0.83886516  0.38849029  1
  O  O139  1  0.38599506  0.88769295  0.87973563  1
  O  O140  1  0.88391306  0.37311863  0.37003960  1
  O  O141  1  0.88337751  0.35070614  0.88957112  1
  O  O142  1  0.81977431  0.85469805  0.44729428  1
  O  O143  1  0.87748136  0.91167605  0.88546958  1
  O  O144  1  0.25120085  0.01026516  0.37787017  1
  O  O145  1  0.22288565  -0.03336086  0.85466245  1
  O  O146  1  0.26324153  0.53593695  0.37686026  1
  O  O147  1  0.28384110  0.48418556  0.88663843  1
  O  O148  1  0.74458679  0.00513116  0.37175360  1
  O  O149  1  0.75961776  0.05122049  0.88283724  1
  O  O150  1  0.73077335  0.50851824  0.36968972  1
  O  O151  1  0.75420167  0.50802544  0.86532285  1
  O  O152  1  0.25810809  0.48289388  0.08883357  1
  O  O153  1  0.26207915  0.46783226  0.58237689  1
  O  O154  1  0.24580257  1.00065834  0.14635540  1
  O  O155  1  0.21369537  0.99516532  0.64427776  1
  O  O156  1  0.73640362  0.49827718  0.12446361  1
  O  O157  1  0.75324079  0.49823650  0.64171752  1
  O  O158  1  0.78220381  0.98796331  0.16590314  1
  O  O159  1  0.75476587  1.01112262  0.62537732  1
  O  O160  1  0.01421453  0.36771637  0.26902343  1
  O  O161  1  0.01582351  0.37797968  0.73809204  1
  O  O162  1  -0.03108097  0.85668597  0.23017572  1
  O  O163  1  -0.00556723  0.84811761  0.72195716  1
  O  O164  1  0.52442138  0.37748093  0.26015295  1
  O  O165  1  0.52153272  0.37945821  0.76971177  1
  O  O166  1  0.49627335  0.85812014  0.26039409  1
  O  O167  1  0.50106350  0.90963373  0.76794558  1
  O  O168  1  0.48255108  0.10617352  0.23176756  1
  O  O169  1  0.51856451  0.08914482  0.72056705  1
  O  O170  1  0.48688981  0.65646764  0.24219429  1
  O  O171  1  0.50842546  0.61079099  0.73857968  1
  O  O172  1  1.01335284  0.14885208  0.27189549  1
  O  O173  1  1.00534842  0.12065193  0.72941475  1
  O  O174  1  0.97777320  0.62703054  0.24145775  1
  O  O175  1  0.98914597  0.62296929  0.74592908  1
  O  O176  1  0.35567495  0.29921718  0.03885376  1
  O  O177  1  0.40785791  0.27940563  0.51264836  1
  O  O178  1  0.38098961  0.74919141  0.01919737  1
  O  O179  1  0.34775188  0.72315033  0.50074501  1
  O  O180  1  0.89064786  0.25329493  0.02243426  1
  O  O181  1  0.88131711  0.24378050  0.51157091  1
  O  O182  1  0.86220159  0.72697436  0.00611219  1
  O  O183  1  0.86366288  0.73062389  0.51474023  1
  O  O184  1  0.12295261  0.23770789  0.49426204  1
  O  O185  1  0.13991268  0.23782551  1.03063613  1
  O  O186  1  0.12319169  0.72949250  0.49491141  1
  O  O187  1  0.11395474  0.75354115  0.99084795  1
  O  O188  1  0.60895248  0.26125923  0.49118315  1
  O  O189  1  0.62094718  0.25673452  1.01923790  1
  O  O190  1  0.63600171  0.73829984  0.47971080  1
  O  O191  1  0.63845065  0.74092795  0.98707655  1
  O  O192  1  0.47560790  0.26640935  0.12677759  1
  O  O193  1  0.49331132  0.24097732  0.64071644  1
  O  O194  1  0.51778447  0.76801749  0.13069531  1
  O  O195  1  0.54989049  0.72023550  0.61950500  1
  O  O196  1  1.01828479  0.25811431  0.15122947  1
  O  O197  1  1.00130964  0.23645979  0.61557226  1
  O  O198  1  0.97691172  0.72951433  0.12834902  1
  O  O199  1  0.99299096  0.73214857  0.61531810  1
  O  O200  1  0.01825865  0.26915234  0.37686365  1
  O  O201  1  0.03535658  0.20817485  0.87548715  1
  O  O202  1  -0.05136758  0.75533406  0.35130865  1
  O  O203  1  0.00334497  0.73148402  0.88029900  1
  O  O204  1  0.41402846  0.28889445  0.38037341  1
  O  O205  1  0.49122200  0.26494324  0.89275165  1
  O  O206  1  0.52669053  0.74889738  0.36247390  1
  O  O207  1  0.51539321  0.72781262  0.87541157  1
  O  O208  1  0.24260787  0.11755856  0.49444257  1
  O  O209  1  0.28219921  0.17132101  0.98801277  1
  O  O210  1  0.22681069  0.62784522  0.48861593  1
  O  O211  1  0.24661910  0.61872563  0.96968667  1
  O  O212  1  0.70786986  0.12977636  0.47447643  1
  O  O213  1  0.73952566  0.12770610  1.02283387  1
  O  O214  1  0.75102598  0.61390826  0.48098589  1
  O  O215  1  0.74584722  0.61500977  0.98658062  1
  O  O216  1  0.23189096  0.33906021  -0.04417999  1
  O  O217  1  0.26381216  0.40856188  0.54211918  1
  O  O218  1  0.27785788  0.86867466  -0.01288191  1
  O  O219  1  0.24088488  0.85303076  0.48935765  1
  O  O220  1  0.77480118  0.36812561  -0.00077707  1
  O  O221  1  0.75292393  0.39363003  0.52293661  1
  O  O222  1  0.77287299  0.85272895  -0.01602694  1
  O  O223  1  0.70732239  0.86839479  0.53183426  1
  O  O224  1  0.12907836  0.47658582  0.28050688  1
  O  O225  1  0.11803802  0.47426753  0.75857618  1
  O  O226  1  0.13945254  0.99763144  0.26460269  1
  O  O227  1  0.09041258  0.96716835  0.73101778  1
  O  O228  1  0.61632708  0.51887501  0.23016131  1
  O  O229  1  0.64441097  0.49985371  0.75556945  1
  O  O230  1  0.64158341  0.99275891  0.25599224  1
  O  O231  1  0.64222222  0.99194137  0.76987463  1
  O  O232  1  0.36349752  0.00680127  0.25173211  1
  O  O233  1  0.33703494  -0.00791436  0.74439916  1
  O  O234  1  0.39208687  0.53661794  0.24116669  1
  O  O235  1  0.38602048  0.50434190  0.75882365  1
  O  O236  1  0.92608513  0.02790513  0.24619519  1
  O  O237  1  0.89346566  0.01078146  0.74606044  1
  O  O238  1  0.87104326  0.50012995  0.24458907  1
  O  O239  1  0.86802314  0.50466447  0.75027738  1
  O  O240  1  0.14767847  0.36005371  0.39469149  1
  O  O241  1  0.10277596  0.34516622  0.84424399  1
  O  O242  1  0.10006870  0.87015382  0.39247327  1
  O  O243  1  0.10429882  0.84706407  0.85087701  1
  O  O244  1  0.66271761  0.35474985  0.33848479  1
  O  O245  1  0.61714308  0.36328461  0.87004488  1
  O  O246  1  0.62980589  0.85411649  0.36991334  1
  O  O247  1  0.60037694  0.85673563  0.86519530  1
  O  O248  1  0.36205243  0.11125108  0.13136770  1
  O  O249  1  0.40708171  0.09842735  0.62428256  1
  O  O250  1  0.35766420  0.64790306  0.13228594  1
  O  O251  1  0.39488864  0.63783517  0.62815145  1
  O  O252  1  0.87898971  0.14393084  0.14523767  1
  O  O253  1  0.89125430  0.13681105  0.63264343  1
  O  O254  1  0.87540494  0.61713774  0.13198342  1
  O  O255  1  0.86908317  0.61401285  0.63900277  1
  O  O256  1  0.26012034  0.25068856  0.13216295  1
  O  O257  1  0.26074327  0.21992410  0.62989391  1
  O  O258  1  0.24453088  0.76180049  0.12352227  1
  O  O259  1  0.23599206  0.74198700  0.60605117  1
  O  O260  1  0.76530513  0.25581711  0.13448024  1
  O  O261  1  0.76346519  0.24734929  0.61605070  1
  O  O262  1  0.75401450  0.73709273  0.10174806  1
  O  O263  1  0.75112532  0.75334603  0.62313837  1
  O  O264  1  0.24107895  0.23059182  0.37720605  1
  O  O265  1  0.31242900  0.23950188  0.83000156  1
  O  O266  1  0.24678721  0.73772583  0.38356415  1
  O  O267  1  0.23532061  0.75038350  0.86908283  1
  O  O268  1  0.75111977  0.34453432  0.47179470  1
  O  O269  1  0.75480353  0.22823534  0.88840686  1
  O  O270  1  0.74467613  0.72938329  0.36130836  1
  O  O271  1  0.74516820  0.73190338  0.88532600  1
  O  O272  1  0.01260122  0.12973549  0.02455808  1
  O  O273  1  0.01358777  0.11965992  0.50174021  1
  O  O274  1  -0.00913226  0.60147182  0.01933773  1
  O  O275  1  0.00912180  0.61474527  0.48724098  1
  O  O276  1  0.49081181  0.12407636  0.03844268  1
  O  O277  1  0.50582596  0.13215210  0.51806087  1
  O  O278  1  0.51965134  0.61588012  -0.00605683  1
  O  O279  1  0.49801624  0.62637037  0.49657062  1
  O  O280  1  0.52940435  0.40876389  0.50646299  1
  O  O281  1  0.50967068  0.39876352  0.98427768  1
  O  O282  1  0.52507342  0.85952960  0.48712207  1
  O  O283  1  0.48831774  0.87319280  0.97881628  1
  O  O284  1  1.00630698  0.38765695  0.48498778  1
  O  O285  1  0.99626301  0.38267795  1.00528024  1
  O  O286  1  0.97839234  0.89711830  0.50883637  1
  O  O287  1  0.97480702  0.87244144  1.00136921  1
  O  O288  1  0.52430290  0.51283045  0.38522084  1
  O  O289  1  0.49018951  0.50842878  0.88573871  1
  O  O290  1  0.50823182  0.96971270  0.36952718  1
  O  O291  1  0.49961867  1.00782990  0.88550899  1
  O  O292  1  0.99899890  0.48358068  0.37450870  1
  O  O293  1  0.99992998  0.51200629  0.89002340  1
  O  O294  1  1.00471755  1.00479550  0.39390486  1
  O  O295  1  1.03445015  1.02484412  0.89699296  1
  O  O296  1  0.08071798  -0.05035910  0.11959855  1
  O  O297  1  0.00339808  0.01326462  0.60638218  1
  O  O298  1  0.00546847  0.50707976  0.13572418  1
  O  O299  1  -0.00441481  0.49229865  0.60312379  1
  O  O300  1  0.50394335  -0.01495548  0.12579271  1
  O  O301  1  0.44208897  -0.05665907  0.58486451  1
  O  O302  1  0.51327670  0.49437005  0.10861688  1
  O  O303  1  0.50583926  0.52148517  0.60796648  1
  O  O304  1  0.24285124  0.36604689  0.26627093  1
  O  O305  1  0.22404426  0.37722477  0.75954791  1
  O  O306  1  0.26032360  0.89011089  0.26689335  1
  O  O307  1  0.21125826  0.87007394  0.74022331  1
  O  O308  1  0.71928808  0.37133783  0.27571895  1
  O  O309  1  0.74301677  0.38093197  0.76419449  1
  O  O310  1  0.78977349  0.89216445  0.27947035  1
  O  O311  1  0.74390250  0.87944167  0.77065712  1
  O  O312  1  0.26021798  0.11308097  0.26833116  1
  O  O313  1  0.21083140  0.09509255  0.76388271  1
  O  O314  1  0.25688203  0.64335340  0.25421206  1
  O  O315  1  0.24105755  0.61983337  0.77226453  1
  O  O316  1  0.78159034  0.09730867  0.26023439  1
  O  O317  1  0.77140943  0.11961511  0.74011717  1
  O  O318  1  0.75842330  0.61621067  0.24052413  1
  O  O319  1  0.75898190  0.61206975  0.75710500  1
  O  O320  1  0.36455619  0.12436124  0.38433904  1
  O  O321  1  0.35652091  0.21528374  0.77742686  1
  O  O322  1  0.37312870  0.65032105  0.34980417  1
  O  O323  1  0.36465166  0.62180939  0.87166423  1
  O  O324  1  0.88065463  0.13990763  0.36338049  1
  O  O325  1  0.89445591  0.13778898  0.85151084  1
  O  O326  1  0.85496529  0.61847766  0.35357406  1
  O  O327  1  0.86271194  0.62062419  0.86406217  1
  O  O328  1  0.13110763  0.37962827  0.14793373  1
  O  O329  1  0.12180010  0.37186354  0.64116229  1
  O  O330  1  0.11377126  0.88463052  0.11566103  1
  O  O331  1  0.11104723  0.88139568  0.60716827  1
  O  O332  1  0.62603144  0.39012451  0.13689581  1
  O  O333  1  0.61814404  0.37033626  0.65706751  1
  O  O334  1  0.64139308  0.90188127  0.08935932  1
  O  O335  1  0.61432125  0.87057969  0.66795171  1
  O  O336  1  0.12530905  0.26384114  0.27212929  1
  O  O337  1  0.13000809  0.26702049  0.73288349  1
  O  O338  1  0.08537848  0.74976813  0.24770498  1
  O  O339  1  0.10244989  0.74745615  0.73357730  1
  O  O340  1  0.61594206  0.24781092  0.21256047  1
  O  O341  1  0.64375744  0.25041583  0.75468112  1
  O  O342  1  0.62223200  0.75014183  0.24458477  1
  O  O343  1  0.63816881  0.74329709  0.77036451  1
  O  O344  1  0.36826865  0.22194815  0.23833025  1
  O  O345  1  0.35460428  0.33338955  0.67246059  1
  O  O346  1  0.37660598  0.75611327  0.22460524  1
  O  O347  1  0.38536175  0.77633952  0.71841929  1
  O  O348  1  0.89724374  0.24295783  0.24346365  1
  O  O349  1  0.87320284  0.23800719  0.73351654  1
  O  O350  1  0.86378928  0.73239214  0.22592446  1
  O  O351  1  0.88679013  0.72884651  0.74260414  1
  O  O352  1  0.39276129  0.51337948  0.49022586  1
  O  O353  1  0.39445772  0.52013493  1.00433076  1
  O  O354  1  0.38220382  0.93179825  0.54714299  1
  O  O355  1  0.36589515  0.99168322  1.01033575  1
  O  O356  1  0.89172363  0.51215224  0.49105428  1
  O  O357  1  0.88778194  0.47615551  1.00320589  1
  O  O358  1  0.87786173  1.02523304  0.49230794  1
  O  O359  1  0.87247771  0.99869495  1.01852451  1
  O  O360  1  0.17066420  0.06569091  0.00739231  1
  O  O361  1  0.12541349  0.00901279  0.50795583  1
  O  O362  1  0.11036562  0.48471766  -0.00414402  1
  O  O363  1  0.11374447  0.51583876  0.48763778  1
  O  O364  1  0.65926003  -0.04373389  0.04492840  1
  O  O365  1  0.69639330  -0.00802320  0.58995892  1
  O  O366  1  0.62499833  0.50987471  0.00658064  1
  O  O367  1  0.59772028  0.45523162  0.50232717  1
  O  O368  1  0.37362648  0.37630335  0.17900280  1
  O  O369  1  0.39315926  0.38492139  0.63948579  1
  O  O370  1  0.37701072  0.86511834  0.11170911  1
  O  O371  1  0.37727176  0.81676463  0.65966854  1
  O  O372  1  0.88468570  0.35633374  0.13092927  1
  O  O373  1  0.88170175  0.35428312  0.62698044  1
  O  O374  1  0.86558683  0.84708820  0.10869377  1
  O  O375  1  0.85525723  0.86731176  0.61777344  1
  O  O376  1  0.13519200  0.13130147  0.39320674  1
  O  O377  1  0.10161231  0.17912278  0.88434451  1
  O  O378  1  0.13102877  0.62610328  0.35387188  1
  O  O379  1  0.13079036  0.64098315  0.87055950  1
  O  O380  1  0.56845302  0.14271907  0.38793651  1
  O  O381  1  0.61984777  0.13101642  0.89962358  1
  O  O382  1  0.64111710  0.63441315  0.36012161  1
  O  O383  1  0.63916057  0.62713013  0.88457176  1
