# generated using pymatgen
data_VZnO4
_symmetry_space_group_name_H-M   'P 1'
_cell_length_a   17.01373938
_cell_length_b   16.92486934
_cell_length_c   16.96331767
_cell_angle_alpha   90.27555061
_cell_angle_beta   90.05514005
_cell_angle_gamma   89.72067357
_symmetry_Int_Tables_number   1
_chemical_formula_structural   VZnO4
_chemical_formula_sum   'V64 Zn64 O256'
_cell_volume   4884.56080895
_cell_formula_units_Z   64
loop_
 _symmetry_equiv_pos_site_id
 _symmetry_equiv_pos_as_xyz
  1  'x, y, z'
loop_
 _atom_site_type_symbol
 _atom_site_label
 _atom_site_symmetry_multiplicity
 _atom_site_fract_x
 _atom_site_fract_y
 _atom_site_fract_z
 _atom_site_occupancy
  V  V0  1  0.62895033  0.38880021  0.24021548  1
  V  V1  1  0.90631166  0.13762419  0.71300640  1
  V  V2  1  0.48605422  0.24299892  0.74650101  1
  V  V3  1  0.48420392  0.01057405  0.02649870  1
  V  V4  1  0.50887693  0.49879107  0.00195419  1
  V  V5  1  0.37871314  0.63982202  0.74527880  1
  V  V6  1  0.36551524  0.50602960  0.88361691  1
  V  V7  1  0.63741947  0.24366069  0.37048297  1
  V  V8  1  0.72686658  0.60881249  0.89035283  1
  V  V9  1  0.00238948  -0.01262062  0.45536083  1
  V  V10  1  0.74263883  0.25325478  0.52245114  1
  V  V11  1  0.37116928  0.23844027  0.13338063  1
  V  V12  1  0.49907591  0.87097558  0.87963038  1
  V  V13  1  0.36214654  0.61404826  0.24285248  1
  V  V14  1  0.00857293  0.26672754  0.27127099  1
  V  V15  1  0.24944847  0.63047632  0.38087471  1
  V  V16  1  0.37348556  0.49919942  0.39187843  1
  V  V17  1  0.26324909  0.00772512  0.25876162  1
  V  V18  1  0.85580807  0.50500444  0.35999899  1
  V  V19  1  0.89167051  0.25012333  0.13525730  1
  V  V20  1  0.51043758  0.62287673  0.11588247  1
  V  V21  1  0.11133993  0.00020241  0.63679062  1
  V  V22  1  -0.00580769  0.49769764  0.48232622  1
  V  V23  1  0.61852382  0.52175408  0.62028720  1
  V  V24  1  0.11765623  0.49293562  0.62629619  1
  V  V25  1  0.62883789  0.37650537  0.74246454  1
  V  V26  1  0.12201669  0.75703814  0.36460420  1
  V  V27  1  0.13898527  0.62341318  -0.00244852  1
  V  V28  1  0.48681257  0.37527279  0.87527141  1
  V  V29  1  0.74806425  0.10729798  0.87992019  1
  V  V30  1  0.25489837  0.50105314  0.74741928  1
  V  V31  1  0.61790748  0.62248079  0.46918598  1
  V  V32  1  0.26021320  0.86606080  0.62735560  1
  V  V33  1  0.11938380  0.63160421  0.50514794  1
  V  V34  1  0.85030199  0.36656942  0.00802358  1
  V  V35  1  0.75350481  0.74023631  0.45924703  1
  V  V36  1  0.84110085  0.00187421  0.35659127  1
  V  V37  1  0.12562749  0.49658645  0.13913412  1
  V  V38  1  -0.01164953  0.62154598  0.12564148  1
  V  V39  1  0.25947818  0.01624974  0.74588607  1
  V  V40  1  0.88945024  0.47444924  0.86811069  1
  V  V41  1  0.15183620  0.25072841  0.38250991  1
  V  V42  1  0.61757078  0.88323318  0.22499015  1
  V  V43  1  0.50104047  0.38367594  0.38367675  1
  V  V44  1  0.24335910  0.87736943  0.12333143  1
  V  V45  1  0.25412468  0.25377509  -0.00807359  1
  V  V46  1  0.37737249  0.23964674  0.60870008  1
  V  V47  1  -0.01326153  0.75010547  0.74710521  1
  V  V48  1  0.13787125  0.11669856  0.49510836  1
  V  V49  1  0.60814541  0.13560479  0.01790654  1
  V  V50  1  0.37420844  0.01629772  0.87440766  1
  V  V51  1  0.49396012  0.24321162  0.25128057  1
  V  V52  1  0.38117824  0.00845040  0.38548677  1
  V  V53  1  0.86562985  0.36402688  0.50147316  1
  V  V54  1  0.62825717  0.10644951  0.51799849  1
  V  V55  1  0.50064354  0.87831493  0.38003881  1
  V  V56  1  0.35883605  0.74980657  0.11335751  1
  V  V57  1  0.26920688  0.37772744  0.61095424  1
  V  V58  1  0.49664632  0.74720856  0.25264480  1
  V  V59  1  0.12071995  0.01435699  0.13359049  1
  V  V60  1  0.25926454  0.38221965  0.14926142  1
  V  V61  1  0.12797543  0.12821966  -0.01203007  1
  V  V62  1  -0.01644669  0.75369690  0.24700148  1
  V  V63  1  0.62688631  0.25221010  0.88097332  1
  Zn  Zn64  1  0.19247700  0.18890388  0.20120585  1
  Zn  Zn65  1  0.19131453  0.18636991  0.66458392  1
  Zn  Zn66  1  0.18464858  0.68295129  0.18851908  1
  Zn  Zn67  1  0.18506823  0.68224925  0.69464284  1
  Zn  Zn68  1  0.67889823  0.25544714  0.16184397  1
  Zn  Zn69  1  0.68589625  0.18127281  0.69728942  1
  Zn  Zn70  1  0.68460973  0.73687217  0.16891726  1
  Zn  Zn71  1  0.75774958  0.49672571  0.74246850  1
  Zn  Zn72  1  0.31878588  0.31622720  0.31949140  1
  Zn  Zn73  1  0.30374802  0.31642765  0.80250725  1
  Zn  Zn74  1  0.31394733  0.81562639  0.30889368  1
  Zn  Zn75  1  0.32007189  0.83709935  0.80633204  1
  Zn  Zn76  1  0.81873197  0.32723709  0.30948385  1
  Zn  Zn77  1  0.81387732  0.30073188  0.81164697  1
  Zn  Zn78  1  0.80335723  0.82193011  0.29655871  1
  Zn  Zn79  1  0.77814070  0.71676365  0.76448096  1
  Zn  Zn80  1  0.19278996  0.44545198  0.43485687  1
  Zn  Zn81  1  0.19712297  0.43625452  0.96430491  1
  Zn  Zn82  1  0.20036466  0.93293035  0.44616834  1
  Zn  Zn83  1  0.20643789  0.95671452  0.94920302  1
  Zn  Zn84  1  0.68453680  0.43780179  0.43656578  1
  Zn  Zn85  1  0.68982426  0.43407398  0.93651633  1
  Zn  Zn86  1  0.68519062  0.92842391  0.42170707  1
  Zn  Zn87  1  0.66156238  0.95521769  0.95246401  1
  Zn  Zn88  1  0.30595480  0.06712698  0.06733622  1
  Zn  Zn89  1  0.31929290  0.05316531  0.56200988  1
  Zn  Zn90  1  0.30549112  0.55831396  0.06065656  1
  Zn  Zn91  1  0.31054966  0.57451480  0.56696312  1
  Zn  Zn92  1  0.78554627  0.13021798  0.07956511  1
  Zn  Zn93  1  0.86500014  0.10719863  0.50945766  1
  Zn  Zn94  1  0.84957806  0.57010378  0.01842340  1
  Zn  Zn95  1  0.78816837  0.54873114  0.54390864  1
  Zn  Zn96  1  0.44246192  0.43404959  0.19025973  1
  Zn  Zn97  1  0.44207736  0.44358845  0.68711659  1
  Zn  Zn98  1  0.42476750  0.93078822  0.19262809  1
  Zn  Zn99  1  0.43484931  0.91997874  0.71065587  1
  Zn  Zn100  1  0.94293310  0.43320840  0.18727745  1
  Zn  Zn101  1  0.93776601  0.42400461  0.68111912  1
  Zn  Zn102  1  0.96979339  0.95970968  0.24448546  1
  Zn  Zn103  1  0.95815126  0.96673878  0.75673675  1
  Zn  Zn104  1  0.08454810  0.07601637  0.30112791  1
  Zn  Zn105  1  0.06969651  0.08321289  0.81154842  1
  Zn  Zn106  1  0.06117586  0.56932687  0.30931250  1
  Zn  Zn107  1  0.09459406  0.49851154  0.84112179  1
  Zn  Zn108  1  0.56792174  0.05843486  0.30724374  1
  Zn  Zn109  1  0.55165714  0.07036002  0.82427339  1
  Zn  Zn110  1  0.55312881  0.55860099  0.29959048  1
  Zn  Zn111  1  0.55876586  0.56541811  0.80475875  1
  Zn  Zn112  1  0.45056561  0.18442847  0.43820093  1
  Zn  Zn113  1  0.42819916  0.19272841  0.94229038  1
  Zn  Zn114  1  0.44676935  0.67671622  0.42820824  1
  Zn  Zn115  1  0.42999958  0.68717171  0.93266395  1
  Zn  Zn116  1  0.96187302  0.15262520  0.38186623  1
  Zn  Zn117  1  0.92102085  0.15877702  0.97897255  1
  Zn  Zn118  1  0.93468994  0.68466418  0.42802652  1
  Zn  Zn119  1  0.98897330  0.63080996  0.91062893  1
  Zn  Zn120  1  0.08622536  0.29501504  0.09159922  1
  Zn  Zn121  1  0.08457921  0.33343465  0.51805009  1
  Zn  Zn122  1  0.07661509  0.79842191  0.07701377  1
  Zn  Zn123  1  0.07045426  0.82592662  0.56277882  1
  Zn  Zn124  1  0.54427168  0.31813255  0.06308175  1
  Zn  Zn125  1  0.55775993  0.30839878  0.56176068  1
  Zn  Zn126  1  0.53065757  0.80890096  0.04437054  1
  Zn  Zn127  1  0.61104066  0.82815377  0.53370306  1
  O  O128  1  0.13238784  0.11804532  0.13051325  1
  O  O129  1  0.12417367  0.11035700  0.60735985  1
  O  O130  1  0.13203531  0.61231781  0.11771392  1
  O  O131  1  0.13422087  0.61110612  0.60963630  1
  O  O132  1  0.62152441  0.16255405  0.11284333  1
  O  O133  1  0.63328760  0.11876575  0.61839271  1
  O  O134  1  0.60589875  0.63663731  0.11992088  1
  O  O135  1  0.61473965  0.61799839  0.63252102  1
  O  O136  1  0.38479490  0.39128967  0.37564397  1
  O  O137  1  0.38430794  0.38750868  0.86414196  1
  O  O138  1  0.39370251  0.87856318  0.36812727  1
  O  O139  1  0.38385893  0.89569190  0.88128813  1
  O  O140  1  0.86993734  0.39075759  0.39377217  1
  O  O141  1  0.86034518  0.36801961  0.89213610  1
  O  O142  1  0.85982850  0.89845179  0.35536803  1
  O  O143  1  0.85174467  0.88854283  0.89674419  1
  O  O144  1  0.26718182  -0.01235523  0.36695612  1
  O  O145  1  0.26451072  0.00243165  0.86365397  1
  O  O146  1  0.26621679  0.51053641  0.37630255  1
  O  O147  1  0.26080387  0.48686520  0.86330846  1
  O  O148  1  0.73988009  0.00236165  0.35616315  1
  O  O149  1  0.73824001  0.00702049  0.88967465  1
  O  O150  1  0.75660901  0.50315761  0.37602580  1
  O  O151  1  0.75705405  0.49748646  0.87066315  1
  O  O152  1  0.24725102  0.48692729  0.12829669  1
  O  O153  1  0.25170563  0.49477089  0.63214065  1
  O  O154  1  0.25365797  0.99310141  0.13814643  1
  O  O155  1  0.25632107  0.99554104  0.63768869  1
  O  O156  1  0.74650792  0.57234930  0.19355158  1
  O  O157  1  0.73021631  0.50297642  0.63055861  1
  O  O158  1  0.74718670  1.06859806  0.18555868  1
  O  O159  1  0.78805395  0.92333883  0.67877217  1
  O  O160  1  0.01209756  0.36629584  0.25326302  1
  O  O161  1  0.01352354  0.34468886  0.73127381  1
  O  O162  1  0.00207015  0.85199786  0.23717412  1
  O  O163  1  -0.00849299  0.85807071  0.76270350  1
  O  O164  1  0.50764482  0.36936767  0.25893398  1
  O  O165  1  0.50619237  0.37286222  0.76388509  1
  O  O166  1  0.49930060  0.85725381  0.24383179  1
  O  O167  1  0.49459435  0.85163402  0.78002599  1
  O  O168  1  0.50814600  0.14527827  0.25548240  1
  O  O169  1  0.50063760  0.14547224  0.75361974  1
  O  O170  1  0.48483261  0.62828782  0.23308405  1
  O  O171  1  0.47872357  0.62751279  0.75677620  1
  O  O172  1  1.00349285  0.14926324  0.27140581  1
  O  O173  1  1.00398543  0.14523555  0.74345598  1
  O  O174  1  1.00453138  0.63529116  0.23634870  1
  O  O175  1  0.96697001  0.65454702  0.71661196  1
  O  O176  1  0.36456565  0.24820384  0.02229171  1
  O  O177  1  0.38996157  0.25200591  0.51083141  1
  O  O178  1  0.35935541  0.73124497  0.01632967  1
  O  O179  1  0.38388958  0.74777179  0.51268100  1
  O  O180  1  0.89601506  0.26979588  0.01151029  1
  O  O181  1  0.85415410  0.25976490  0.49876234  1
  O  O182  1  0.83906834  0.83331988  -0.05822897  1
  O  O183  1  0.85301629  0.74297841  0.48148619  1
  O  O184  1  0.12280491  0.22809216  0.49550380  1
  O  O185  1  0.14298678  0.24190033  1.01007390  1
  O  O186  1  0.11089999  0.73443861  0.49816046  1
  O  O187  1  0.12624077  0.72548510  1.00614246  1
  O  O188  1  0.63567668  0.26265321  0.48559867  1
  O  O189  1  0.59946082  0.24932827  0.98556280  1
  O  O190  1  0.63250640  0.72610934  0.48775110  1
  O  O191  1  0.67073634  0.76670531  1.00313142  1
  O  O192  1  0.48097725  0.25850755  0.13958027  1
  O  O193  1  0.48713448  0.25781399  0.63772522  1
  O  O194  1  0.47873900  0.73194297  0.12288133  1
  O  O195  1  0.42736510  0.76474196  0.56924921  1
  O  O196  1  1.00078948  0.25286413  0.14641512  1
  O  O197  1  1.05285611  0.29150306  0.68639165  1
  O  O198  1  1.00203433  0.73545941  0.13581941  1
  O  O199  1  0.99894288  0.78085214  0.64444716  1
  O  O200  1  0.00153364  0.26347960  0.37446197  1
  O  O201  1  0.05572463  0.28051406  0.86401393  1
  O  O202  1  0.01324965  0.74158795  0.36076178  1
  O  O203  1  -0.00897517  0.73335604  0.84948251  1
  O  O204  1  0.50202970  0.26494270  0.36602918  1
  O  O205  1  0.49023929  0.26399576  0.86828174  1
  O  O206  1  0.48869966  0.75598046  0.35696838  1
  O  O207  1  0.49849670  0.77593707  0.93292332  1
  O  O208  1  0.23711642  0.11009303  0.49978295  1
  O  O209  1  0.24641775  0.14493067  1.00854807  1
  O  O210  1  0.23434010  0.61960310  0.49078731  1
  O  O211  1  0.23902117  0.61563605  0.98866790  1
  O  O212  1  0.73556139  0.14948403  0.50101416  1
  O  O213  1  0.71548137  0.12615202  0.99312408  1
  O  O214  1  0.73765624  0.63369165  0.48701276  1
  O  O215  1  0.74487630  0.59673705  0.99175180  1
  O  O216  1  0.25015809  0.35632851  0.02415631  1
  O  O217  1  0.26253152  0.39025143  0.51258788  1
  O  O218  1  0.25957918  0.88700965  0.02365523  1
  O  O219  1  0.25695577  0.87614976  0.52525103  1
  O  O220  1  0.75033971  0.37007052  0.01179257  1
  O  O221  1  0.75455384  0.36664996  0.49771550  1
  O  O222  1  0.74366417  0.91862915  0.04895603  1
  O  O223  1  0.72055237  0.84315816  0.48982175  1
  O  O224  1  0.13365622  0.51253666  0.23882028  1
  O  O225  1  0.13890993  0.50333325  0.73361611  1
  O  O226  1  0.14630872  1.00041871  0.23994413  1
  O  O227  1  0.13986366  1.01334153  0.73793519  1
  O  O228  1  0.61380636  0.48802257  0.23592507  1
  O  O229  1  0.62144573  0.48583011  0.74342965  1
  O  O230  1  0.61449777  0.98344204  0.22961075  1
  O  O231  1  0.58886650  0.99923019  0.72226158  1
  O  O232  1  0.36912296  0.00204617  0.26073684  1
  O  O233  1  0.36955043  0.00619480  0.75930418  1
  O  O234  1  0.37960535  0.51368476  0.25292674  1
  O  O235  1  0.36710018  0.50872952  0.75546156  1
  O  O236  1  0.87607148  0.02018589  0.26182174  1
  O  O237  1  0.87797969  0.04387461  0.74848252  1
  O  O238  1  0.87123827  0.47788606  0.26316690  1
  O  O239  1  0.87080742  0.46829049  0.76275148  1
  O  O240  1  0.13313460  0.35263177  0.40809037  1
  O  O241  1  0.13603328  0.39062548  0.87525177  1
  O  O242  1  0.13839785  0.85209911  0.38669869  1
  O  O243  1  0.14046919  0.86199030  0.89609165  1
  O  O244  1  0.61248944  0.37723630  0.36490576  1
  O  O245  1  0.60925322  0.36643135  0.87323530  1
  O  O246  1  0.60407532  0.87689337  0.34353195  1
  O  O247  1  0.59980197  0.88781549  0.89069120  1
  O  O248  1  0.36698000  0.14057307  0.13700602  1
  O  O249  1  0.37018074  0.14085487  0.61776879  1
  O  O250  1  0.36237386  0.62774275  0.13512086  1
  O  O251  1  0.36517493  0.63448214  0.64435550  1
  O  O252  1  0.89567702  0.14644926  0.09767491  1
  O  O253  1  0.89342194  0.13382271  0.61151115  1
  O  O254  1  0.88942403  0.61214109  0.11710656  1
  O  O255  1  0.83312118  0.64961426  0.61812684  1
  O  O256  1  0.26108398  0.26118656  0.14096295  1
  O  O257  1  0.26693431  0.26656518  0.62393112  1
  O  O258  1  0.25236847  0.76201545  0.13475622  1
  O  O259  1  0.23421338  0.76914670  0.64492853  1
  O  O260  1  0.78393634  0.23714901  0.13619065  1
  O  O261  1  0.73578379  0.25435184  0.62034403  1
  O  O262  1  0.72353601  0.75071163  0.05304174  1
  O  O263  1  0.78286687  0.70079469  0.63788418  1
  O  O264  1  0.25046803  0.24893966  0.37876575  1
  O  O265  1  0.26301578  0.26223426  0.89319864  1
  O  O266  1  0.24440946  0.73716543  0.37069530  1
  O  O267  1  0.18327004  0.80532085  0.87432707  1
  O  O268  1  0.73533790  0.25737970  0.36464638  1
  O  O269  1  0.72562554  0.25117219  0.88161091  1
  O  O270  1  0.74780830  0.74245470  0.36034304  1
  O  O271  1  0.76491388  0.70628582  0.87760446  1
  O  O272  1  0.02848932  0.13539853  -0.00734322  1
  O  O273  1  0.01269372  0.09598748  0.47729142  1
  O  O274  1  0.01130890  0.62536977  0.02366775  1
  O  O275  1  0.01130240  0.61243221  0.49582777  1
  O  O276  1  0.49980022  0.12595123  0.00309238  1
  O  O277  1  0.53216240  0.13369818  0.49848439  1
  O  O278  1  0.49115900  0.61116996  0.00800264  1
  O  O279  1  0.51799026  0.62241556  0.49201197  1
  O  O280  1  0.50726822  0.37418006  0.48180041  1
  O  O281  1  0.49154671  0.38701270  0.98704854  1
  O  O282  1  0.51861326  0.86893804  0.47793963  1
  O  O283  1  0.49156257  0.91058016  1.00341194  1
  O  O284  1  0.98724696  0.39139364  0.50349626  1
  O  O285  1  1.06928809  0.33878248  0.90625461  1
  O  O286  1  1.01410125  0.89457505  0.49515479  1
  O  O287  1  1.00093756  0.87555354  1.00551215  1
  O  O288  1  0.48702594  0.49230847  0.36996980  1
  O  O289  1  0.48844648  0.49316803  0.88386966  1
  O  O290  1  0.49265249  0.98819725  0.36488479  1
  O  O291  1  0.48642394  0.99561301  0.87586565  1
  O  O292  1  1.00454737  0.49760520  0.38281701  1
  O  O293  1  0.98796511  0.46484948  0.85795702  1
  O  O294  1  1.02026340  0.98652736  0.35336554  1
  O  O295  1  1.01279564  0.99365163  0.84991085  1
  O  O296  1  0.02379919  -0.00057008  0.14557415  1
  O  O297  1  0.01398012  -0.00978364  0.64863268  1
  O  O298  1  0.01583719  0.50911010  0.13635056  1
  O  O299  1  0.01642328  0.49355526  0.62653129  1
  O  O300  1  0.47148445  0.01018476  0.12429641  1
  O  O301  1  0.53431803  -0.01225574  0.67246437  1
  O  O302  1  0.49111743  0.50880444  0.11132039  1
  O  O303  1  0.52084267  0.48955245  0.62404572  1
  O  O304  1  0.25205445  0.37858295  0.24860578  1
  O  O305  1  0.25436488  0.39124076  0.73300985  1
  O  O306  1  0.26129763  0.88727024  0.23585012  1
  O  O307  1  0.24832095  0.89841222  0.74372650  1
  O  O308  1  0.72765659  0.37361963  0.25333945  1
  O  O309  1  0.72867254  0.36826802  0.76039014  1
  O  O310  1  0.71654839  0.84076064  0.22265891  1
  O  O311  1  0.69797436  0.80375819  0.74526944  1
  O  O312  1  0.25381441  0.10808322  0.25574287  1
  O  O313  1  0.24897610  0.11748389  0.73905859  1
  O  O314  1  0.26004955  0.62477863  0.26003812  1
  O  O315  1  0.25315289  0.60775477  0.75096809  1
  O  O316  1  0.73191691  0.11626126  0.23944018  1
  O  O317  1  0.73021318  0.12180107  0.78061891  1
  O  O318  1  0.75510482  0.64066671  0.21911210  1
  O  O319  1  0.75602143  0.60762479  0.77674435  1
  O  O320  1  0.38753501  0.10862988  0.38084225  1
  O  O321  1  0.38173945  0.11692806  0.87070129  1
  O  O322  1  0.37058118  0.61728465  0.36519485  1
  O  O323  1  0.37396688  0.60852263  0.87047926  1
  O  O324  1  0.85876148  0.11022385  0.39542256  1
  O  O325  1  0.84486983  0.12840472  0.90215619  1
  O  O326  1  0.88408729  0.60235317  0.36586894  1
  O  O327  1  0.88866709  0.57949778  0.89960102  1
  O  O328  1  0.13804791  0.38757301  0.13133059  1
  O  O329  1  0.14098034  0.39136440  0.60774148  1
  O  O330  1  0.13851645  0.88611604  0.12077606  1
  O  O331  1  0.13920070  0.89786321  0.62210891  1
  O  O332  1  0.62075903  0.35565990  0.13852950  1
  O  O333  1  0.61874004  0.36210509  0.64391915  1
  O  O334  1  0.59785878  0.85540303  0.12707575  1
  O  O335  1  0.61968379  0.85075031  0.64883117  1
  O  O336  1  0.12487893  0.25065905  0.27540075  1
  O  O337  1  0.11920872  0.26717622  0.72040482  1
  O  O338  1  0.12650501  0.74864126  0.26285094  1
  O  O339  1  0.09044599  0.73181336  0.74571407  1
  O  O340  1  0.61216234  0.26091050  0.26230751  1
  O  O341  1  0.60856530  0.25797660  0.76549136  1
  O  O342  1  0.59573738  0.73672457  0.24204087  1
  O  O343  1  0.65813628  0.78767050  0.67967984  1
  O  O344  1  0.38668432  0.25357997  0.25012538  1
  O  O345  1  0.38378003  0.25586804  0.74376558  1
  O  O346  1  0.37934177  0.73458951  0.24094751  1
  O  O347  1  0.35632106  0.73394947  0.77795743  1
  O  O348  1  0.89277574  0.26231024  0.24554565  1
  O  O349  1  0.85684324  0.22168279  0.74752606  1
  O  O350  1  0.88485558  0.75019667  0.25315571  1
  O  O351  1  0.88258879  0.76414569  0.74851709  1
  O  O352  1  0.37771617  0.51509781  0.48894410  1
  O  O353  1  0.37379164  0.49955968  0.98559055  1
  O  O354  1  0.37726279  0.99347718  0.48477123  1
  O  O355  1  0.37955271  1.02058442  0.99024427  1
  O  O356  1  0.88590972  0.50508531  0.49184271  1
  O  O357  1  0.88948112  0.46274504  0.99574446  1
  O  O358  1  0.89762607  0.99197121  0.46518433  1
  O  O359  1  0.79674773  0.96569000  1.06920049  1
  O  O360  1  0.13957684  0.01928752  0.01848357  1
  O  O361  1  0.12083394  0.00397059  0.49918415  1
  O  O362  1  0.12969908  0.50650756  0.02230598  1
  O  O363  1  0.11216091  0.50552048  0.50434161  1
  O  O364  1  0.59875172  0.02502244  0.01950018  1
  O  O365  1  0.63917201  0.00847500  0.49628712  1
  O  O366  1  0.60579276  0.49172877  -0.00185524  1
  O  O367  1  0.63504597  0.51612982  0.50906936  1
  O  O368  1  0.36293016  0.37149752  0.13524676  1
  O  O369  1  0.37146714  0.37513614  0.62498907  1
  O  O370  1  0.37218504  0.85219135  0.12472882  1
  O  O371  1  0.36370577  0.87101875  0.64185405  1
  O  O372  1  0.88160798  0.36367991  0.11691447  1
  O  O373  1  0.86991799  0.38577606  0.60023901  1
  O  O374  1  0.94215623  0.90504452  0.03847052  1
  O  O375  1  0.80602260  0.88374130  0.62064991  1
  O  O376  1  0.13501967  0.13683327  0.38529624  1
  O  O377  1  0.14290707  0.12184812  0.88948653  1
  O  O378  1  0.13278409  0.63173880  0.38430963  1
  O  O379  1  0.10066683  0.59951657  0.89659170  1
  O  O380  1  0.62424076  0.14274354  0.37260043  1
  O  O381  1  0.61859216  0.13983328  0.88635207  1
  O  O382  1  0.62088598  0.61318449  0.36960834  1
  O  O383  1  0.62621352  0.61197965  0.88113174  1
