# generated using pymatgen
data_VZnO4
_symmetry_space_group_name_H-M   'P 1'
_cell_length_a   16.92684575
_cell_length_b   16.88821258
_cell_length_c   16.89828972
_cell_angle_alpha   89.91415487
_cell_angle_beta   89.67292792
_cell_angle_gamma   89.97436781
_symmetry_Int_Tables_number   1
_chemical_formula_structural   VZnO4
_chemical_formula_sum   'V64 Zn64 O256'
_cell_volume   4830.53096138
_cell_formula_units_Z   64
loop_
 _symmetry_equiv_pos_site_id
 _symmetry_equiv_pos_as_xyz
  1  'x, y, z'
loop_
 _atom_site_type_symbol
 _atom_site_label
 _atom_site_symmetry_multiplicity
 _atom_site_fract_x
 _atom_site_fract_y
 _atom_site_fract_z
 _atom_site_occupancy
  V  V0  1  0.63915986  0.01340169  0.60895506  1
  V  V1  1  0.38710851  0.36624763  0.49247290  1
  V  V2  1  0.23623030  0.88091363  0.63165286  1
  V  V3  1  0.61203786  0.00990499  0.12279402  1
  V  V4  1  0.25170119  0.27733730  -0.00449684  1
  V  V5  1  0.87593978  -0.00278804  0.87589082  1
  V  V6  1  0.75412998  0.87034180  0.62415614  1
  V  V7  1  0.76404648  0.50746623  0.74919273  1
  V  V8  1  0.87159141  0.26001247  0.60188140  1
  V  V9  1  0.63698521  0.36434396  0.25490910  1
  V  V10  1  0.61192111  0.74834285  0.88509113  1
  V  V11  1  0.74130794  0.37802383  0.61184571  1
  V  V12  1  0.11337695  0.37652508  0.25722147  1
  V  V13  1  0.25936170  0.49685747  0.75039921  1
  V  V14  1  0.13421696  0.14943937  0.49952382  1
  V  V15  1  0.50351369  0.00841869  -0.00793513  1
  V  V16  1  0.00222759  0.22367708  0.25134486  1
  V  V17  1  0.74465688  0.00750131  0.75958030  1
  V  V18  1  0.26170252  0.61975008  0.88706300  1
  V  V19  1  0.74466196  0.52106280  0.26143007  1
  V  V20  1  0.73582147  0.86651575  0.12320306  1
  V  V21  1  0.38213552  0.50406888  0.36768748  1
  V  V22  1  0.61694994  0.87219999  0.75276860  1
  V  V23  1  0.74524760  0.65959842  0.38782806  1
  V  V24  1  0.74935100  0.00018736  0.26091057  1
  V  V25  1  0.60500310  0.86663133  0.25284358  1
  V  V26  1  0.01152599  0.13308712  0.63262112  1
  V  V27  1  0.75257751  0.63897421  0.88617524  1
  V  V28  1  0.25313489  0.15030389  0.35211768  1
  V  V29  1  0.23908098  0.86919470  0.11660025  1
  V  V30  1  0.25183651  0.37084088  0.62073604  1
  V  V31  1  0.62498953  0.38509528  0.76179625  1
  V  V32  1  0.76006704  0.41462155  0.11178763  1
  V  V33  1  0.24761554  -0.02468096  0.25669759  1
  V  V34  1  0.37901575  0.63441435  0.73797222  1
  V  V35  1  0.50765457  0.64213740  0.61992437  1
  V  V36  1  0.86745860  0.13495878  0.74703130  1
  V  V37  1  0.02232385  -0.00320884  0.51459039  1
  V  V38  1  0.88172133  0.88284991  0.49692826  1
  V  V39  1  0.49482419  0.73211639  0.26423828  1
  V  V40  1  0.12759140  0.73196904  0.87310995  1
  V  V41  1  0.88405191  0.20607357  0.11975229  1
  V  V42  1  0.38175231  0.74008416  0.13062342  1
  V  V43  1  0.36495896  0.00427962  0.87913902  1
  V  V44  1  0.51194708  0.50510973  0.50665890  1
  V  V45  1  0.12393429  0.74699033  0.37024310  1
  V  V46  1  0.89362724  0.62962534  0.25777234  1
  V  V47  1  0.01490327  0.88261874  0.36544342  1
  V  V48  1  0.38944462  0.86395465  0.00032032  1
  V  V49  1  0.49301475  0.37551125  0.88052166  1
  V  V50  1  0.40496425  0.23305712  0.09558100  1
  V  V51  1  0.22394438  0.00536271  0.76786048  1
  V  V52  1  0.00707915  -0.00517161  0.00502042  1
  V  V53  1  0.89555133  0.76170887  0.13757063  1
  V  V54  1  0.86866172  0.86263621  -0.00407330  1
  V  V55  1  0.24637970  0.61181320  0.36945817  1
  V  V56  1  0.39101983  0.24732570  0.65027235  1
  V  V57  1  0.24966788  0.72776008  0.51376966  1
  V  V58  1  0.89863686  0.75008228  0.63302222  1
  V  V59  1  0.52032998  0.51359318  -0.01113618  1
  V  V60  1  0.75393337  0.22419271  -0.00371062  1
  V  V61  1  0.37822757  -0.00814374  0.38840939  1
  V  V62  1  0.10865298  0.49334443  0.10606063  1
  V  V63  1  0.11786520  0.37612431  0.75607451  1
  Zn  Zn64  1  0.21320461  0.24130252  0.18591359  1
  Zn  Zn65  1  0.20027267  0.19514807  0.70810210  1
  Zn  Zn66  1  0.19834704  0.68947465  0.19286401  1
  Zn  Zn67  1  0.17573378  0.68004366  0.70325195  1
  Zn  Zn68  1  0.69536554  0.18377792  0.18357561  1
  Zn  Zn69  1  0.57257026  0.19132476  0.71522179  1
  Zn  Zn70  1  0.69052893  0.69329294  0.19529693  1
  Zn  Zn71  1  0.68133856  0.69039886  0.68856628  1
  Zn  Zn72  1  0.31260720  0.32686515  0.29847727  1
  Zn  Zn73  1  0.31629220  0.31148432  0.82207348  1
  Zn  Zn74  1  0.31860968  0.80682751  0.32493157  1
  Zn  Zn75  1  0.30412572  0.81548857  0.80990003  1
  Zn  Zn76  1  0.84694362  0.33708060  0.25627395  1
  Zn  Zn77  1  0.75225957  0.28006845  0.79404996  1
  Zn  Zn78  1  0.81693467  0.82747456  0.30910671  1
  Zn  Zn79  1  0.80817658  0.81088375  0.80832558  1
  Zn  Zn80  1  0.21502421  0.40070410  0.41679972  1
  Zn  Zn81  1  0.19130919  0.43488023  0.93749239  1
  Zn  Zn82  1  0.20012636  0.93266873  0.44206271  1
  Zn  Zn83  1  0.19017080  0.91817297  0.93174104  1
  Zn  Zn84  1  0.75015410  0.40159633  0.40162109  1
  Zn  Zn85  1  0.69553569  0.45585004  0.93543904  1
  Zn  Zn86  1  0.68188808  0.89909063  0.43870979  1
  Zn  Zn87  1  0.68307900  0.93155871  0.93836070  1
  Zn  Zn88  1  0.33201192  0.05019495  0.08700647  1
  Zn  Zn89  1  0.30518248  0.05909680  0.58760350  1
  Zn  Zn90  1  0.31471853  0.55323775  0.07313029  1
  Zn  Zn91  1  0.32086384  0.55543497  0.55977898  1
  Zn  Zn92  1  0.79844167  0.05090467  0.06012651  1
  Zn  Zn93  1  0.82459342  0.06080757  0.56156907  1
  Zn  Zn94  1  0.82218559  0.59188874  0.06530597  1
  Zn  Zn95  1  0.78288412  0.58562156  0.58295444  1
  Zn  Zn96  1  0.45112171  0.43012665  0.18823708  1
  Zn  Zn97  1  0.44083360  0.44198381  0.68829897  1
  Zn  Zn98  1  0.42711606  0.94014437  0.18923368  1
  Zn  Zn99  1  0.41405464  0.90703070  0.69102098  1
  Zn  Zn100  1  0.94533294  0.44775933  0.18251609  1
  Zn  Zn101  1  0.93353566  0.44599647  0.67816691  1
  Zn  Zn102  1  0.93361682  0.95332491  0.18617505  1
  Zn  Zn103  1  0.94380956  0.93830274  0.69266759  1
  Zn  Zn104  1  0.07652463  0.06182247  0.32252647  1
  Zn  Zn105  1  0.04371052  0.07560849  0.82737761  1
  Zn  Zn106  1  0.07074023  0.55704719  0.31852992  1
  Zn  Zn107  1  0.08624367  0.52821505  0.83866735  1
  Zn  Zn108  1  0.58889246  0.01409353  0.35075478  1
  Zn  Zn109  1  0.51644317  0.02284107  0.77920368  1
  Zn  Zn110  1  0.57150040  0.56789429  0.32960908  1
  Zn  Zn111  1  0.56826041  0.56507352  0.80206818  1
  Zn  Zn112  1  0.39072102  0.14832988  0.48316257  1
  Zn  Zn113  1  0.46853619  0.17323636  0.89195178  1
  Zn  Zn114  1  0.42825888  0.68864199  0.44519694  1
  Zn  Zn115  1  0.43309307  0.68842526  0.92761655  1
  Zn  Zn116  1  0.93420438  0.31532942  0.41707369  1
  Zn  Zn117  1  0.90636403  0.21316096  0.90682992  1
  Zn  Zn118  1  0.93169585  0.69944352  0.44077111  1
  Zn  Zn119  1  0.93855930  0.67315709  0.79946557  1
  Zn  Zn120  1  0.06415970  0.29783272  0.06993628  1
  Zn  Zn121  1  0.06125089  0.31740357  0.57533296  1
  Zn  Zn122  1  0.06168339  0.81114357  0.03118343  1
  Zn  Zn123  1  0.07614925  0.80556956  0.56314954  1
  Zn  Zn124  1  0.58189749  0.32453779  0.05544666  1
  Zn  Zn125  1  0.55693813  0.32008741  0.56991719  1
  Zn  Zn126  1  0.56202687  0.68319556  0.06484906  1
  Zn  Zn127  1  0.55431473  0.82856736  0.56462699  1
  O  O128  1  0.15718154  0.10490788  0.06979613  1
  O  O129  1  0.11185614  0.14468726  0.63606091  1
  O  O130  1  0.16365649  0.59640915  0.12681840  1
  O  O131  1  0.06580513  0.62395219  0.68529080  1
  O  O132  1  0.62365933  0.10741655  0.12683128  1
  O  O133  1  0.61545202  0.10719571  0.63454137  1
  O  O134  1  0.63649759  0.62899185  0.12450024  1
  O  O135  1  0.60770992  0.63189124  0.62361360  1
  O  O136  1  0.36370345  0.38643991  0.38549645  1
  O  O137  1  0.39428362  0.38260163  0.87010254  1
  O  O138  1  0.36332059  0.89093009  0.39082281  1
  O  O139  1  0.36134451  0.87446574  0.89745086  1
  O  O140  1  0.84930495  0.36313368  0.36410088  1
  O  O141  1  0.95213853  0.36611190  0.93891421  1
  O  O142  1  0.89649458  0.87159173  0.39241087  1
  O  O143  1  0.85613262  0.88307462  0.88737941  1
  O  O144  1  0.25476948  0.00326667  0.36757102  1
  O  O145  1  0.25409888  0.00065327  0.87913307  1
  O  O146  1  0.25655745  0.50538193  0.38334016  1
  O  O147  1  0.25208362  0.50796128  0.86072870  1
  O  O148  1  0.71498071  -0.01100123  0.36099614  1
  O  O149  1  0.75136407  -0.00272237  0.86360811  1
  O  O150  1  0.75823259  0.51642555  0.36171864  1
  O  O151  1  0.74363554  0.52666813  0.85574843  1
  O  O152  1  0.21771048  0.52900050  0.13616353  1
  O  O153  1  0.26797312  0.47969004  0.63347103  1
  O  O154  1  0.26063854  0.97957605  0.14371506  1
  O  O155  1  0.24376190  0.98679183  0.65013911  1
  O  O156  1  0.76326640  0.51708589  0.13287140  1
  O  O157  1  0.76739530  0.48402866  0.63003342  1
  O  O158  1  0.73391016  0.98694248  0.13335085  1
  O  O159  1  0.74848703  0.99978729  0.63184276  1
  O  O160  1  0.00415421  0.36785331  0.24639868  1
  O  O161  1  0.02419715  0.39129985  0.72212833  1
  O  O162  1  0.00052881  0.89491912  0.26903444  1
  O  O163  1  0.01019025  0.88679727  0.76394080  1
  O  O164  1  0.53978525  0.38849774  0.23898647  1
  O  O165  1  0.51636426  0.38937273  0.76211921  1
  O  O166  1  0.50473714  0.86658611  0.23435465  1
  O  O167  1  0.51870900  0.89864998  0.74702245  1
  O  O168  1  0.49880829  0.14218655  0.26243065  1
  O  O169  1  0.46315053  0.02506786  0.66061805  1
  O  O170  1  0.50399628  0.63322454  0.25759772  1
  O  O171  1  0.48866067  0.61956927  0.73329589  1
  O  O172  1  1.01174370  0.12295389  0.25304774  1
  O  O173  1  0.98264742  0.12150294  0.73832411  1
  O  O174  1  0.99262291  0.62540948  0.26779211  1
  O  O175  1  1.02215475  0.60211036  0.74654744  1
  O  O176  1  0.38579510  0.24481330  -0.00351704  1
  O  O177  1  0.39372953  0.26627964  0.48676223  1
  O  O178  1  0.38364016  0.75548078  0.01301091  1
  O  O179  1  0.34846079  0.74954567  0.49982135  1
  O  O180  1  0.87381993  0.23280916  0.01605135  1
  O  O181  1  0.87976837  0.25307789  0.50348751  1
  O  O182  1  0.87130164  0.76453581  0.01246655  1
  O  O183  1  0.88809054  0.77509009  0.51853150  1
  O  O184  1  0.12546704  0.24815575  0.50437417  1
  O  O185  1  0.15031803  0.26463555  1.00567115  1
  O  O186  1  0.14156458  0.75191555  0.48579246  1
  O  O187  1  0.03751860  0.70183568  0.95689579  1
  O  O188  1  0.57108035  0.22170208  0.48354186  1
  O  O189  1  0.66298318  0.26616554  0.99829799  1
  O  O190  1  0.63057730  0.81205789  0.48869543  1
  O  O191  1  0.61621857  0.75019970  0.98440268  1
  O  O192  1  0.50465231  0.25517831  0.10169081  1
  O  O193  1  0.49788496  0.25127413  0.64126003  1
  O  O194  1  0.48680167  0.73826833  0.13639161  1
  O  O195  1  0.49613455  0.74245545  0.61315458  1
  O  O196  1  0.98818961  0.23282988  0.12317176  1
  O  O197  1  0.98671686  0.23915182  0.62157496  1
  O  O198  1  0.99275872  0.76868149  0.11858407  1
  O  O199  1  0.99828790  0.74950879  0.62703154  1
  O  O200  1  -0.00518350  0.24459361  0.35020528  1
  O  O201  1  -0.02090971  0.30736059  0.89146158  1
  O  O202  1  0.01620208  0.76562103  0.38624430  1
  O  O203  1  0.01190630  0.72815417  0.88240061  1
  O  O204  1  0.53619318  0.17323671  0.31921781  1
  O  O205  1  0.51253384  0.27731138  0.88293836  1
  O  O206  1  0.48400556  0.74683974  0.36363724  1
  O  O207  1  0.51276348  0.74526581  0.86626643  1
  O  O208  1  0.22773461  0.12594589  0.52735702  1
  O  O209  1  0.21031573  0.09535294  1.02054599  1
  O  O210  1  0.25004198  0.62308678  0.49529365  1
  O  O211  1  0.26600630  0.60993729  0.98527049  1
  O  O212  1  0.75140086  0.12821912  0.50014994  1
  O  O213  1  0.74120305  0.12383268  0.99165887  1
  O  O214  1  0.76655113  0.63444670  0.48473873  1
  O  O215  1  0.75125339  0.63053887  0.98580169  1
  O  O216  1  0.26663022  0.37881350  -0.00213424  1
  O  O217  1  0.26800906  0.37360629  0.51417225  1
  O  O218  1  0.26397825  0.88275097  0.01682840  1
  O  O219  1  0.24604967  0.87163961  0.52796395  1
  O  O220  1  0.76841923  0.41115885  0.01058460  1
  O  O221  1  0.74502341  0.38318187  0.51354743  1
  O  O222  1  0.75661956  0.88333639  0.01507972  1
  O  O223  1  0.77374771  0.89107801  0.51357532  1
  O  O224  1  0.11624351  0.48186221  0.24732953  1
  O  O225  1  0.15151068  0.49343794  0.73888240  1
  O  O226  1  0.15074790  1.00554983  0.25620835  1
  O  O227  1  0.12504229  1.01785818  0.77851382  1
  O  O228  1  0.64365768  0.52023295  0.25178892  1
  O  O229  1  0.63847801  0.49143120  0.74174627  1
  O  O230  1  0.61889151  0.98417644  0.23090420  1
  O  O231  1  0.63926438  0.99465765  0.74745809  1
  O  O232  1  0.35905295  -0.00360802  0.26564066  1
  O  O233  1  0.37544338  -0.01674390  0.77895685  1
  O  O234  1  0.38525972  0.48625372  0.26865862  1
  O  O235  1  0.36765579  0.50961199  0.74766179  1
  O  O236  1  0.84894165  -0.02145790  0.25952115  1
  O  O237  1  0.86136729  -0.00042343  0.75706282  1
  O  O238  1  0.87236930  0.52779304  0.24532407  1
  O  O239  1  0.86522927  0.49813109  0.75255494  1
  O  O240  1  0.12732138  0.36729445  0.35899716  1
  O  O241  1  0.11167810  0.40835011  0.85664923  1
  O  O242  1  0.12222663  0.86555608  0.37732804  1
  O  O243  1  0.13123562  0.81925346  0.93403558  1
  O  O244  1  0.64838120  0.37725043  0.35570852  1
  O  O245  1  0.63248689  0.38839322  0.86452857  1
  O  O246  1  0.60174829  0.88874423  0.35204064  1
  O  O247  1  0.63196384  0.86390721  0.86023541  1
  O  O248  1  0.39701845  0.13231096  0.12052444  1
  O  O249  1  0.37427107  0.15459930  0.60432383  1
  O  O250  1  0.35856033  0.64300550  0.12912254  1
  O  O251  1  0.37959971  0.62603305  0.63288184  1
  O  O252  1  0.87855577  0.10608705  0.12384345  1
  O  O253  1  0.87920326  0.13797028  0.63181287  1
  O  O254  1  0.87988145  0.65341771  0.14195675  1
  O  O255  1  0.87000981  0.65449524  0.62217173  1
  O  O256  1  0.27731437  0.23363331  0.09324406  1
  O  O257  1  0.26992696  0.26661871  0.64110190  1
  O  O258  1  0.26314816  0.76415995  0.13558277  1
  O  O259  1  0.22961830  0.72600410  0.61446490  1
  O  O260  1  0.77217455  0.23386668  0.11278209  1
  O  O261  1  0.76722126  0.26946074  0.62381967  1
  O  O262  1  0.76099570  0.76647248  0.13367437  1
  O  O263  1  0.75014644  0.77028436  0.62867537  1
  O  O264  1  0.25904361  0.24894254  0.37137539  1
  O  O265  1  0.26284182  0.24675764  0.89654559  1
  O  O266  1  0.24384160  0.73426402  0.38314693  1
  O  O267  1  0.24341037  0.72800380  0.87223999  1
  O  O268  1  0.74513326  0.20074561  0.39000512  1
  O  O269  1  0.78887880  0.25381393  0.89787769  1
  O  O270  1  0.75319546  0.76182474  0.37882487  1
  O  O271  1  0.73367771  0.74493360  0.86445457  1
  O  O272  1  0.00293686  0.10653631  -0.01102139  1
  O  O273  1  0.02579795  0.11338817  0.51522648  1
  O  O274  1  -0.03580499  0.54548337  -0.03542710  1
  O  O275  1  -0.00739523  0.61137577  0.49947907  1
  O  O276  1  0.50615384  0.10667298  -0.01344899  1
  O  O277  1  0.53245037  0.15881561  0.49325637  1
  O  O278  1  0.49638039  0.61784658  -0.00639983  1
  O  O279  1  0.48960553  0.61772188  0.51207215  1
  O  O280  1  0.49370911  0.38724514  0.50048265  1
  O  O281  1  0.51606781  0.39524083  0.98597582  1
  O  O282  1  0.47701408  0.91662658  0.58110706  1
  O  O283  1  0.48713205  0.87857337  1.00119558  1
  O  O284  1  1.00265086  0.37975681  0.49228023  1
  O  O285  1  0.99224493  0.37903413  1.00286799  1
  O  O286  1  1.00154626  0.88670435  0.51080999  1
  O  O287  1  0.97420670  0.88489384  0.99674159  1
  O  O288  1  0.48724785  0.51284134  0.38763188  1
  O  O289  1  0.50899613  0.50203160  0.88342367  1
  O  O290  1  0.47731232  1.00796758  0.37509627  1
  O  O291  1  0.48638310  0.98628445  0.89013690  1
  O  O292  1  1.00583871  0.47806476  0.39892122  1
  O  O293  1  0.97482518  0.53830315  0.88523709  1
  O  O294  1  1.01802443  0.98858013  0.39668022  1
  O  O295  1  0.97744795  0.98895677  0.87502186  1
  O  O296  1  0.00006120  -0.00257254  0.10529655  1
  O  O297  1  -0.00161922  0.01683502  0.62141647  1
  O  O298  1  0.01146689  0.51949812  0.12273154  1
  O  O299  1  -0.01146326  0.52067884  0.59579599  1
  O  O300  1  0.50609292  -0.00472561  0.11371050  1
  O  O301  1  0.50810239  -0.00550751  0.59907477  1
  O  O302  1  0.46894715  0.50104069  0.09721921  1
  O  O303  1  0.49780763  0.50728000  0.61179647  1
  O  O304  1  0.22090190  0.35057237  0.23375766  1
  O  O305  1  0.25392469  0.38359624  0.74800496  1
  O  O306  1  0.24696703  0.87263167  0.25138270  1
  O  O307  1  0.23039603  0.89607679  0.77037045  1
  O  O308  1  0.74691436  0.40878764  0.24062870  1
  O  O309  1  0.74526769  0.39051851  0.74315630  1
  O  O310  1  0.73195758  0.87820441  0.24149788  1
  O  O311  1  0.74555840  0.88730471  0.73856192  1
  O  O312  1  0.24552640  0.14423218  0.25227103  1
  O  O313  1  0.25394606  0.10289647  0.74540758  1
  O  O314  1  0.25101139  0.62045081  0.27076664  1
  O  O315  1  0.26072798  0.61172598  0.74539719  1
  O  O316  1  0.74154616  0.09927803  0.24697728  1
  O  O317  1  0.76026008  0.11164407  0.74469872  1
  O  O318  1  0.76228045  0.63414349  0.26353634  1
  O  O319  1  0.75068232  0.60751601  0.71942954  1
  O  O320  1  0.35125047  0.12251504  0.37683375  1
  O  O321  1  0.37450558  0.10309625  0.88494844  1
  O  O322  1  0.36124291  0.61036217  0.38127576  1
  O  O323  1  0.36553036  0.62273315  0.86034890  1
  O  O324  1  0.78020402  0.14491153  0.42421417  1
  O  O325  1  0.87566913  0.10919117  0.85598559  1
  O  O326  1  0.86781367  0.64863409  0.36091134  1
  O  O327  1  0.85036999  0.64333993  0.86205942  1
  O  O328  1  0.11158332  0.38943804  0.12637317  1
  O  O329  1  0.14846591  0.37121010  0.62860497  1
  O  O330  1  0.14033827  0.85995092  0.10834859  1
  O  O331  1  0.13868269  0.85396374  0.64602132  1
  O  O332  1  0.66114012  0.37758970  0.12834686  1
  O  O333  1  0.63745882  0.37313272  0.62937727  1
  O  O334  1  0.63395425  0.87045321  0.12759607  1
  O  O335  1  0.63990286  0.89321971  0.63426911  1
  O  O336  1  0.10304450  0.25629790  0.22544195  1
  O  O337  1  0.13457567  0.27544167  0.75882123  1
  O  O338  1  0.13037608  0.74378955  0.26970939  1
  O  O339  1  0.11995701  0.75201216  0.77566824  1
  O  O340  1  0.64674834  0.26420761  0.24470838  1
  O  O341  1  0.64319940  0.27630876  0.75274229  1
  O  O342  1  0.60812634  0.75879494  0.25069006  1
  O  O343  1  0.62016189  0.77185316  0.73900658  1
  O  O344  1  0.38450901  0.28481954  0.21369174  1
  O  O345  1  0.38021433  0.24321126  0.74893526  1
  O  O346  1  0.38603302  0.75659203  0.24258702  1
  O  O347  1  0.37057300  0.73209217  0.75746305  1
  O  O348  1  0.88822056  0.23289634  0.22912907  1
  O  O349  1  0.86179963  0.23468460  0.75431511  1
  O  O350  1  0.88688847  0.76171847  0.24207902  1
  O  O351  1  0.88688549  0.76081435  0.74133586  1
  O  O352  1  0.38375820  0.48625510  0.49082196  1
  O  O353  1  0.40391876  0.48672012  1.04271014  1
  O  O354  1  0.36759434  1.02638164  0.49144766  1
  O  O355  1  0.38534311  0.98983278  1.00037457  1
  O  O356  1  0.94841717  0.55753026  0.53901614  1
  O  O357  1  0.89314512  0.52407227  0.98764118  1
  O  O358  1  0.89725201  0.99026099  0.50631305  1
  O  O359  1  0.87261379  0.99744761  0.98485434  1
  O  O360  1  0.10183311  -0.01931799  -0.02273197  1
  O  O361  1  0.12257736  -0.00739391  0.51327310  1
  O  O362  1  0.11887996  0.49495100  0.00517761  1
  O  O363  1  0.04506369  0.44776570  0.45748395  1
  O  O364  1  0.61257183  -0.01169469  0.00980583  1
  O  O365  1  0.63501546  0.00189708  0.51061741  1
  O  O366  1  0.61854123  0.51341083  0.00361732  1
  O  O367  1  0.60700563  0.50314465  0.49176780  1
  O  O368  1  0.38046657  0.34138200  0.14999829  1
  O  O369  1  0.38131752  0.35991178  0.61679163  1
  O  O370  1  0.37169639  0.86395622  0.11593075  1
  O  O371  1  0.32753183  0.84201669  0.66636190  1
  O  O372  1  0.85772349  0.37867241  0.14193823  1
  O  O373  1  0.88057973  0.36204808  0.62032119  1
  O  O374  1  0.86632778  0.87404152  0.11792802  1
  O  O375  1  0.86847846  0.87321093  0.62615056  1
  O  O376  1  0.14719698  0.12792969  0.39348150  1
  O  O377  1  0.02222661  0.14565068  0.91934056  1
  O  O378  1  0.13453474  0.63040905  0.38132847  1
  O  O379  1  0.14567781  0.62157468  0.87444528  1
  O  O380  1  0.59973902  0.13306505  0.34836232  1
  O  O381  1  0.52499864  0.13172656  0.79753873  1
  O  O382  1  0.64682001  0.63995810  0.37686481  1
  O  O383  1  0.63529193  0.64278252  0.85722498  1
