# generated using pymatgen
data_VZnO4
_symmetry_space_group_name_H-M   'P 1'
_cell_length_a   17.02921923
_cell_length_b   16.96279139
_cell_length_c   16.93769225
_cell_angle_alpha   89.88307775
_cell_angle_beta   90.18218184
_cell_angle_gamma   89.55831892
_symmetry_Int_Tables_number   1
_chemical_formula_structural   VZnO4
_chemical_formula_sum   'V64 Zn64 O256'
_cell_volume   4892.49363928
_cell_formula_units_Z   64
loop_
 _symmetry_equiv_pos_site_id
 _symmetry_equiv_pos_as_xyz
  1  'x, y, z'
loop_
 _atom_site_type_symbol
 _atom_site_label
 _atom_site_symmetry_multiplicity
 _atom_site_fract_x
 _atom_site_fract_y
 _atom_site_fract_z
 _atom_site_occupancy
  V  V0  1  0.24280233  0.23893872  -0.00341490  1
  V  V1  1  0.74703052  0.87998419  0.15564382  1
  V  V2  1  0.24889731  0.77499609  0.50388509  1
  V  V3  1  0.88473109  0.75007286  0.63287007  1
  V  V4  1  0.73732012  0.75899026  -0.02969114  1
  V  V5  1  0.87315887  0.62332819  0.23952833  1
  V  V6  1  0.12912455  0.35909537  0.24602540  1
  V  V7  1  0.36620838  0.00045722  0.37687274  1
  V  V8  1  0.39861270  0.13415384  0.25258620  1
  V  V9  1  0.90274067  0.87744525  0.49574664  1
  V  V10  1  0.62907034  0.02631555  0.62988627  1
  V  V11  1  0.49646542  0.85951852  0.38590965  1
  V  V12  1  0.03098469  0.61540458  0.12775571  1
  V  V13  1  0.62806240  0.10395400  -0.00158745  1
  V  V14  1  0.73349307  0.50132856  0.24724794  1
  V  V15  1  0.00844743  0.74997303  0.25701154  1
  V  V16  1  0.39529180  0.00850279  0.89326080  1
  V  V17  1  0.72287175  0.02753714  0.26600274  1
  V  V18  1  0.74212047  0.86850301  0.60225711  1
  V  V19  1  0.63027031  0.85427135  0.74194108  1
  V  V20  1  0.49824340  0.37376639  0.37474140  1
  V  V21  1  0.75726089  0.11724225  0.85790007  1
  V  V22  1  0.00281075  0.36550139  0.37481114  1
  V  V23  1  0.51434525  0.50413071  0.50272083  1
  V  V24  1  0.36308096  0.50341833  0.38689441  1
  V  V25  1  0.22749476  0.52357826  0.75322011  1
  V  V26  1  0.51212826  0.25620710  0.75513992  1
  V  V27  1  0.36942737  0.25717253  0.63026515  1
  V  V28  1  0.38917432  0.24982693  0.12278356  1
  V  V29  1  0.46289537  0.39029288  0.87131364  1
  V  V30  1  0.00722261  0.49388929  0.51178105  1
  V  V31  1  0.11092331  0.76627035  0.87584656  1
  V  V32  1  -0.01213788  0.50201105  -0.00749641  1
  V  V33  1  0.36728600  0.89310999  0.53324639  1
  V  V34  1  0.88625740  0.00845282  0.37493168  1
  V  V35  1  0.12427598  0.10201074  0.00441235  1
  V  V36  1  0.13357753  0.63631815  0.48657673  1
  V  V37  1  0.24920219  0.13875351  0.36332939  1
  V  V38  1  0.25844495  0.75347768  -0.00098782  1
  V  V39  1  -0.00179340  0.10305029  0.13284864  1
  V  V40  1  0.76315472  0.49323528  0.74003449  1
  V  V41  1  0.87451573  -0.01328547  0.91262640  1
  V  V42  1  0.74371907  0.63414904  0.38936522  1
  V  V43  1  0.59463380  -0.01618808  0.12118869  1
  V  V44  1  0.86373044  0.35819409  0.49664473  1
  V  V45  1  0.25066381  0.37167068  0.11737031  1
  V  V46  1  0.12410779  0.11700369  0.49707896  1
  V  V47  1  0.51207808  0.85668088  0.89253645  1
  V  V48  1  0.87369820  0.50061617  0.37227221  1
  V  V49  1  0.39194461  0.62877690  0.25993917  1
  V  V50  1  0.23654479  0.50658181  0.25214244  1
  V  V51  1  0.61436059  0.36968385  0.24064749  1
  V  V52  1  0.87654512  0.36467615  0.00973750  1
  V  V53  1  0.13041355  0.33168976  0.75754960  1
  V  V54  1  0.47031327  0.62396283  0.62538083  1
  V  V55  1  0.36918537  0.12319104  0.75529199  1
  V  V56  1  -0.00455237  0.11597743  0.64179780  1
  V  V57  1  0.38797966  0.74529804  0.13287198  1
  V  V58  1  -0.02209415  0.25519729  0.22976065  1
  V  V59  1  0.86771860  0.23515325  0.63659103  1
  V  V60  1  0.24657404  0.25895404  0.50821930  1
  V  V61  1  0.50428113  0.02280737  0.50951985  1
  V  V62  1  0.24866141  0.87880214  0.14149740  1
  V  V63  1  0.13868526  0.61062698  -0.01204085  1
  Zn  Zn64  1  0.18862704  0.18038592  0.17944289  1
  Zn  Zn65  1  0.19294819  0.15001698  0.68470600  1
  Zn  Zn66  1  0.19113585  0.70123976  0.19381698  1
  Zn  Zn67  1  0.21090485  0.73114959  0.70299581  1
  Zn  Zn68  1  0.60181729  0.16350933  0.20531711  1
  Zn  Zn69  1  0.66231803  0.23701554  0.63649185  1
  Zn  Zn70  1  0.61697490  0.60755754  0.00892512  1
  Zn  Zn71  1  0.74927206  0.71047662  0.76570932  1
  Zn  Zn72  1  0.31938168  0.31430262  0.31311455  1
  Zn  Zn73  1  0.30055614  0.30912482  0.80756126  1
  Zn  Zn74  1  0.30583013  0.81048743  0.32612272  1
  Zn  Zn75  1  0.30559726  0.85679382  0.83594724  1
  Zn  Zn76  1  0.81101933  0.32565474  0.29778287  1
  Zn  Zn77  1  0.80408073  0.29872250  0.81971584  1
  Zn  Zn78  1  0.82780614  0.80744388  0.32260939  1
  Zn  Zn79  1  0.83035670  0.86490132  0.78865034  1
  Zn  Zn80  1  0.18481148  0.42957538  0.43289904  1
  Zn  Zn81  1  0.19280176  0.42886740  0.91682286  1
  Zn  Zn82  1  0.18562585  0.96367278  0.58903089  1
  Zn  Zn83  1  0.20580632  0.93826556  0.94617759  1
  Zn  Zn84  1  0.68358699  0.43319727  0.43566390  1
  Zn  Zn85  1  0.70344626  0.45351155  0.93092862  1
  Zn  Zn86  1  0.66979721  0.93329247  0.43864534  1
  Zn  Zn87  1  0.68462675  0.93632477  0.92725984  1
  Zn  Zn88  1  0.31906386  0.06288301  0.07032312  1
  Zn  Zn89  1  0.31448354  0.08269435  0.56537726  1
  Zn  Zn90  1  0.29159703  0.57870181  0.09244924  1
  Zn  Zn91  1  0.28132260  0.57630713  0.56930692  1
  Zn  Zn92  1  0.80143408  0.06212218  0.08241198  1
  Zn  Zn93  1  0.81772974  0.05191933  0.56645098  1
  Zn  Zn94  1  0.79970815  0.56015387  0.05684360  1
  Zn  Zn95  1  0.83579599  0.56356462  0.56060061  1
  Zn  Zn96  1  0.42464988  0.44094136  0.19528911  1
  Zn  Zn97  1  0.42975360  0.43503761  0.68453141  1
  Zn  Zn98  1  0.41814442  0.92541726  0.20100399  1
  Zn  Zn99  1  0.45833835  0.95440824  0.70561106  1
  Zn  Zn100  1  0.93794291  0.44051552  0.17935762  1
  Zn  Zn101  1  0.95845665  0.40531692  0.67962644  1
  Zn  Zn102  1  0.94964874  0.90176266  0.13352231  1
  Zn  Zn103  1  0.92349570  0.95767534  0.67350768  1
  Zn  Zn104  1  0.04531439  0.09147670  0.33247142  1
  Zn  Zn105  1  0.04035889  0.06432994  0.83520476  1
  Zn  Zn106  1  0.06005146  0.55724199  0.31772074  1
  Zn  Zn107  1  0.07124819  0.55953253  0.81871511  1
  Zn  Zn108  1  0.53713325  0.00927918  0.30118435  1
  Zn  Zn109  1  0.56361911  0.06897455  0.81288991  1
  Zn  Zn110  1  0.56309373  0.56825879  0.33014566  1
  Zn  Zn111  1  0.55796442  0.51970385  0.79133360  1
  Zn  Zn112  1  0.43210048  0.19504986  0.43979868  1
  Zn  Zn113  1  0.44855519  0.19698693  0.93615869  1
  Zn  Zn114  1  0.41821403  0.68649620  0.45639444  1
  Zn  Zn115  1  0.44908215  0.69443172  0.95216730  1
  Zn  Zn116  1  0.93731464  0.19015565  0.43159491  1
  Zn  Zn117  1  0.90917360  0.15642098  0.98738392  1
  Zn  Zn118  1  0.97010556  0.70293704  0.45970917  1
  Zn  Zn119  1  0.93692844  0.81714891  0.95646860  1
  Zn  Zn120  1  0.06423482  0.31820802  0.05431625  1
  Zn  Zn121  1  0.06624584  0.28958844  0.58016313  1
  Zn  Zn122  1  0.07938795  0.79908171  0.07257572  1
  Zn  Zn123  1  0.07306033  0.80458650  0.58810112  1
  Zn  Zn124  1  0.54621200  0.34725489  0.05811839  1
  Zn  Zn125  1  0.52876449  0.32426276  0.56483902  1
  Zn  Zn126  1  0.57756792  0.79565177  0.07076118  1
  Zn  Zn127  1  0.52793643  0.82673301  0.59925843  1
  O  O128  1  0.11106708  0.12234808  0.12410923  1
  O  O129  1  0.10000767  0.13324972  0.60161683  1
  O  O130  1  0.13255642  0.61720256  0.12104434  1
  O  O131  1  0.16276248  0.58202998  0.56680185  1
  O  O132  1  0.60098777  0.09384846  0.11389057  1
  O  O133  1  0.63415074  0.12411927  0.62592209  1
  O  O134  1  0.70189177  0.53977034  0.00207409  1
  O  O135  1  0.62206460  0.61606783  0.61190513  1
  O  O136  1  0.38463311  0.39621970  0.36255044  1
  O  O137  1  0.36480915  0.37339634  0.87806094  1
  O  O138  1  0.36822048  0.89571354  0.38882380  1
  O  O139  1  0.41375912  0.88386027  0.86947656  1
  O  O140  1  0.88158528  0.37926828  0.37428245  1
  O  O141  1  0.89495014  0.35934627  0.87366094  1
  O  O142  1  0.88077040  0.88199704  0.39043596  1
  O  O143  1  0.86204711  0.87815134  0.89938048  1
  O  O144  1  0.26882962  0.02402938  0.38136164  1
  O  O145  1  0.29135040  -0.03563496  0.87607071  1
  O  O146  1  0.25602557  0.48604122  0.35941116  1
  O  O147  1  0.24917262  0.50370440  0.85139886  1
  O  O148  1  0.68760602  0.01259080  0.36054088  1
  O  O149  1  0.76571006  0.00085341  0.88387339  1
  O  O150  1  0.76443170  0.49830437  0.37100677  1
  O  O151  1  0.77554617  0.50541051  0.84293422  1
  O  O152  1  0.26130592  0.48067148  0.14254938  1
  O  O153  1  0.27163550  0.48551409  0.65094118  1
  O  O154  1  0.27071455  0.97651708  0.12369617  1
  O  O155  1  0.23344846  1.05130635  0.63697565  1
  O  O156  1  0.74990417  0.50484999  0.15093008  1
  O  O157  1  0.76708438  0.49512976  0.63330111  1
  O  O158  1  0.74118969  0.99049471  0.15194038  1
  O  O159  1  0.73016393  0.99525506  0.61013947  1
  O  O160  1  0.00982630  0.36849899  0.24626335  1
  O  O161  1  -0.00712581  0.34844623  0.78421211  1
  O  O162  1  -0.01409568  0.84447237  0.23011508  1
  O  O163  1  0.07797590  0.92730490  0.72536673  1
  O  O164  1  0.50532551  0.39421096  0.26246666  1
  O  O165  1  0.48909817  0.36969244  0.75665196  1
  O  O166  1  0.48972812  0.88958181  0.28569704  1
  O  O167  1  0.52452186  0.86272555  0.71849859  1
  O  O168  1  0.50093561  0.12329417  0.25953356  1
  O  O169  1  0.49426060  0.15033334  0.76490225  1
  O  O170  1  0.48990924  0.62420712  0.26065493  1
  O  O171  1  0.50393710  0.59112774  0.71622263  1
  O  O172  1  1.00054764  0.14760099  0.23967930  1
  O  O173  1  1.00815125  0.11870349  0.74063086  1
  O  O174  1  0.99316585  0.61437831  0.24038072  1
  O  O175  1  0.97752871  0.63213874  0.77032304  1
  O  O176  1  0.36583390  0.23416267  0.02047020  1
  O  O177  1  0.36327144  0.23442989  0.52065465  1
  O  O178  1  0.36722725  0.72644888  0.02254436  1
  O  O179  1  0.35521361  0.77856106  0.51366115  1
  O  O180  1  0.89357624  0.26633381  0.00348701  1
  O  O181  1  0.86420262  0.25817035  0.47950594  1
  O  O182  1  0.84005452  0.74328604  0.01499955  1
  O  O183  1  0.89142845  0.76993212  0.51310591  1
  O  O184  1  0.14061044  0.24624962  0.50481494  1
  O  O185  1  0.14097647  0.24925698  1.00627602  1
  O  O186  1  0.08342334  0.72780464  0.49895769  1
  O  O187  1  0.14459537  0.73810780  0.99553184  1
  O  O188  1  0.68895860  0.25405608  0.39559253  1
  O  O189  1  0.66444142  0.29076101  1.02248317  1
  O  O190  1  0.65284773  0.66833651  0.57324025  1
  O  O191  1  0.64413656  0.71888527  1.01012871  1
  O  O192  1  0.48688255  0.26333301  0.11634753  1
  O  O193  1  0.48140494  0.25514993  0.64020719  1
  O  O194  1  0.48756693  0.74442533  0.12386698  1
  O  O195  1  0.50027481  0.71985179  0.61532485  1
  O  O196  1  1.00346787  0.25829456  0.13233139  1
  O  O197  1  0.97719712  0.22018239  0.60155193  1
  O  O198  1  1.00807580  0.71757296  0.13495191  1
  O  O199  1  0.98101232  0.77634963  0.64802773  1
  O  O200  1  -0.01086727  0.26368395  0.35005757  1
  O  O201  1  -0.03296320  0.32699126  0.85486373  1
  O  O202  1  -0.01237515  0.74120547  0.35548048  1
  O  O203  1  0.01171316  0.76463076  0.88842516  1
  O  O204  1  0.48938306  0.27478300  0.38304201  1
  O  O205  1  0.49409782  0.27395264  0.86119808  1
  O  O206  1  0.46645857  0.76391508  0.38939845  1
  O  O207  1  0.50516683  0.75520604  0.87871921  1
  O  O208  1  0.23934733  0.13693835  0.48581738  1
  O  O209  1  0.23699040  0.13242886  1.01936199  1
  O  O210  1  0.24547197  0.67032965  0.48834029  1
  O  O211  1  0.24362032  0.62850721  1.00516625  1
  O  O212  1  0.74060878  0.12357129  0.47154739  1
  O  O213  1  0.72448471  0.12878707  1.02217408  1
  O  O214  1  0.76639003  0.60997993  0.48554642  1
  O  O215  1  0.80767562  0.67039445  0.99034346  1
  O  O216  1  0.24646152  0.36876805  0.01518545  1
  O  O217  1  0.25063944  0.35752967  0.49313802  1
  O  O218  1  0.25727592  0.85496857  0.01930025  1
  O  O219  1  0.26170769  0.89561620  0.52758944  1
  O  O220  1  0.78471418  0.38333056  -0.03351187  1
  O  O221  1  0.76750072  0.38140723  0.49095950  1
  O  O222  1  0.72703129  0.85509176  0.00155310  1
  O  O223  1  0.74467205  0.87764041  0.50082019  1
  O  O224  1  0.13503442  0.48695571  0.25279045  1
  O  O225  1  0.12706820  0.50039616  0.74375069  1
  O  O226  1  0.12935559  0.97900435  0.26983063  1
  O  O227  1  0.11685034  0.97988293  0.76422497  1
  O  O228  1  0.63243214  0.50928193  0.25755256  1
  O  O229  1  0.65963573  0.49496355  0.73421725  1
  O  O230  1  0.61907642  0.99303290  0.22897615  1
  O  O231  1  0.61354940  1.00329778  0.72882845  1
  O  O232  1  0.38453489  0.01670942  0.26911770  1
  O  O233  1  0.38929461  0.01926475  0.76345583  1
  O  O234  1  0.36381288  0.51660508  0.25910560  1
  O  O235  1  0.33218880  0.49607607  0.70819437  1
  O  O236  1  0.82531721  0.00304857  0.28594015  1
  O  O237  1  0.88454833  -0.03613950  0.77380229  1
  O  O238  1  0.87230932  0.49590306  0.26056221  1
  O  O239  1  0.86783274  0.47598303  0.72978208  1
  O  O240  1  0.10966592  0.37237992  0.35865950  1
  O  O241  1  0.12663569  0.35933553  0.85919540  1
  O  O242  1  0.12342972  0.91549480  0.30312271  1
  O  O243  1  0.14045508  0.86155308  0.89047056  1
  O  O244  1  0.60384983  0.38719946  0.36688569  1
  O  O245  1  0.61336580  0.44294837  0.86585630  1
  O  O246  1  0.59469543  0.85728739  0.40084346  1
  O  O247  1  0.61272826  0.88066482  0.84945006  1
  O  O248  1  0.37870898  0.13449896  0.14504183  1
  O  O249  1  0.37827642  0.13310905  0.64825687  1
  O  O250  1  0.37273720  0.63025214  0.15041957  1
  O  O251  1  0.36978932  0.62796514  0.61960165  1
  O  O252  1  0.89680586  0.12409094  0.10884513  1
  O  O253  1  0.88249420  0.12111151  0.62839714  1
  O  O254  1  0.86595539  0.61170832  0.14089815  1
  O  O255  1  0.88317365  0.65078242  0.61735223  1
  O  O256  1  0.25833310  0.25954806  0.12236574  1
  O  O257  1  0.25574455  0.23996958  0.61542448  1
  O  O258  1  0.26256723  0.74990134  0.12318074  1
  O  O259  1  0.19181449  0.77554117  0.59598886  1
  O  O260  1  0.71234062  0.27787065  0.07617902  1
  O  O261  1  0.77197236  0.22845654  0.61035868  1
  O  O262  1  0.73540010  0.74696562  0.14776580  1
  O  O263  1  0.76570059  0.77063957  0.61171571  1
  O  O264  1  0.26717754  0.24271008  0.38782347  1
  O  O265  1  0.26159988  0.24787450  0.90054831  1
  O  O266  1  0.22602915  0.79934883  0.40831106  1
  O  O267  1  0.27042634  0.75921859  0.89946215  1
  O  O268  1  0.75135426  0.23450319  0.36244002  1
  O  O269  1  0.75291697  0.22028452  0.87597254  1
  O  O270  1  0.76546614  0.73095966  0.37861820  1
  O  O271  1  0.74407704  0.76185104  0.87057107  1
  O  O272  1  0.01546144  0.11562656  0.02154084  1
  O  O273  1  0.03036034  0.13040125  0.45373058  1
  O  O274  1  0.02509568  0.61272165  0.01547303  1
  O  O275  1  0.01453073  0.59621626  0.49111965  1
  O  O276  1  0.54816077  0.16683731  -0.01196156  1
  O  O277  1  0.49968229  0.12092181  0.49657651  1
  O  O278  1  0.50320741  0.59814119  -0.00587719  1
  O  O279  1  0.48711217  0.60933517  0.50778304  1
  O  O280  1  0.48956885  0.39502721  0.48526235  1
  O  O281  1  0.50159226  0.38837808  0.96818660  1
  O  O282  1  0.47704935  0.88332785  0.50528578  1
  O  O283  1  0.52355907  0.86196477  0.99098695  1
  O  O284  1  0.99017496  0.36495275  0.47931598  1
  O  O285  1  0.99355822  0.39437989  1.00660400  1
  O  O286  1  0.99927199  0.88346441  0.50988470  1
  O  O287  1  0.99451278  0.86149048  1.03891001  1
  O  O288  1  0.48214030  0.50415944  0.39106635  1
  O  O289  1  0.46370874  0.49063761  0.84624204  1
  O  O290  1  0.48669307  0.99364834  0.39999960  1
  O  O291  1  0.49969542  0.99654249  0.87786282  1
  O  O292  1  0.98992261  0.47962413  0.37157526  1
  O  O293  1  1.00360544  0.50978809  0.89362005  1
  O  O294  1  0.98160045  1.00049857  0.34734775  1
  O  O295  1  0.97529650  0.99597101  0.89378295  1
  O  O296  1  -0.00407959  0.00698255  0.15408258  1
  O  O297  1  -0.00400027  0.01768091  0.61388843  1
  O  O298  1  0.00184139  0.51191092  0.11615688  1
  O  O299  1  -0.01443862  0.49256794  0.60900473  1
  O  O300  1  0.49805789  -0.02984728  0.12693800  1
  O  O301  1  0.51049519  0.01018177  0.61543028  1
  O  O302  1  0.49028289  0.50575903  0.09883071  1
  O  O303  1  0.48568124  0.49660720  0.60304436  1
  O  O304  1  0.23826105  0.37328394  0.24843012  1
  O  O305  1  0.22553375  0.36279671  0.73869683  1
  O  O306  1  0.26432655  0.87232928  0.24250925  1
  O  O307  1  0.30462633  0.79558109  0.73811043  1
  O  O308  1  0.72462482  0.38848466  0.26106681  1
  O  O309  1  0.75599388  0.38883490  0.75417070  1
  O  O310  1  0.74833204  0.86440611  0.25467889  1
  O  O311  1  0.73107369  0.88462540  0.72728250  1
  O  O312  1  0.26402300  0.13823103  0.26030267  1
  O  O313  1  0.27222688  0.13016967  0.77178111  1
  O  O314  1  0.23904450  0.60645963  0.24651360  1
  O  O315  1  0.23106477  0.62283038  0.73603358  1
  O  O316  1  0.70956940  0.12451573  0.24765483  1
  O  O317  1  0.75915277  0.11132393  0.76210587  1
  O  O318  1  0.76772314  0.60865538  0.27095655  1
  O  O319  1  0.76732506  0.59783401  0.73790183  1
  O  O320  1  0.37519462  0.12509996  0.36555724  1
  O  O321  1  0.38892256  0.11678642  0.87533423  1
  O  O322  1  0.36833888  0.61563643  0.36866297  1
  O  O323  1  0.37022601  0.68275303  0.79770089  1
  O  O324  1  0.87370489  0.10804610  0.38728909  1
  O  O325  1  0.86309828  0.10542359  0.89634615  1
  O  O326  1  0.88365644  0.60213532  0.37012807  1
  O  O327  1  0.92800068  0.65192411  0.82046001  1
  O  O328  1  0.14033952  0.37224454  0.13560501  1
  O  O329  1  0.06878389  0.35890910  0.66858359  1
  O  O330  1  0.14918262  0.86489021  0.13385280  1
  O  O331  1  0.12257130  0.89369921  0.65944321  1
  O  O332  1  0.60494932  0.39243257  0.14277676  1
  O  O333  1  0.63617066  0.32143734  0.56846619  1
  O  O334  1  0.63618999  0.87886437  0.12512832  1
  O  O335  1  0.63465834  0.87066527  0.62022413  1
  O  O336  1  0.12441240  0.25949680  0.24627577  1
  O  O337  1  0.13715506  0.23143134  0.74764313  1
  O  O338  1  0.10962255  0.73928990  0.25727458  1
  O  O339  1  0.12616584  0.75192667  0.77670911  1
  O  O340  1  0.61418263  0.26999631  0.24150299  1
  O  O341  1  0.61008868  0.25691996  0.74003906  1
  O  O342  1  0.67858951  0.71612914  0.18299012  1
  O  O343  1  0.64356314  0.75534778  0.74200452  1
  O  O344  1  0.38413647  0.24028291  0.24543807  1
  O  O345  1  0.37271610  0.24461899  0.74360172  1
  O  O346  1  0.36662487  0.73422260  0.25300814  1
  O  O347  1  0.38038062  0.73956637  0.75296509  1
  O  O348  1  0.87894491  0.26400281  0.23196670  1
  O  O349  1  0.86896042  0.25377051  0.73403483  1
  O  O350  1  0.87911181  0.72458640  0.25081779  1
  O  O351  1  0.84843248  0.76148814  0.73455047  1
  O  O352  1  0.34415644  0.51001245  0.48381228  1
  O  O353  1  0.45223692  0.53999327  1.04158586  1
  O  O354  1  0.38051690  1.00542392  0.50121466  1
  O  O355  1  0.38887764  1.01563257  0.99295829  1
  O  O356  1  0.88918359  0.48321017  0.48682885  1
  O  O357  1  0.88773175  0.50636049  0.99796395  1
  O  O358  1  0.87039695  0.98963153  0.48494631  1
  O  O359  1  0.86536673  0.99206115  1.01347245  1
  O  O360  1  0.14026944  0.00391124  0.01094452  1
  O  O361  1  0.13334056  0.01838828  0.49683933  1
  O  O362  1  0.13588808  0.50900196  -0.01333028  1
  O  O363  1  0.10149513  0.46046785  0.50145371  1
  O  O364  1  0.62124462  -0.00431443  0.01107678  1
  O  O365  1  0.60717635  0.00305649  0.51056197  1
  O  O366  1  0.67086683  0.62898889  -0.13574318  1
  O  O367  1  0.61282856  0.50086749  0.49816143  1
  O  O368  1  0.36258206  0.36014527  0.13794130  1
  O  O369  1  0.36583969  0.35610191  0.62551233  1
  O  O370  1  0.37074035  0.84858516  0.13413060  1
  O  O371  1  0.38147573  0.90014311  0.62953776  1
  O  O372  1  0.86763757  0.38581984  0.10839702  1
  O  O373  1  0.88598494  0.34742463  0.60308670  1
  O  O374  1  0.83959622  0.86611736  0.12447777  1
  O  O375  1  0.86084537  0.88700399  0.60564389  1
  O  O376  1  0.14803413  0.12746602  0.36660338  1
  O  O377  1  0.11473089  0.11599015  0.90421020  1
  O  O378  1  0.13522996  0.59647236  0.39283475  1
  O  O379  1  0.12289055  0.63874658  0.88907305  1
  O  O380  1  0.67483014  0.15390672  0.47571508  1
  O  O381  1  0.64725243  0.09614104  0.88890523  1
  O  O382  1  0.64348262  0.62620275  0.38275156  1
  O  O383  1  0.59935779  0.62411119  0.84465825  1
