# generated using pymatgen
data_VZnO4
_symmetry_space_group_name_H-M   'P 1'
_cell_length_a   16.94734971
_cell_length_b   16.95592700
_cell_length_c   16.97968799
_cell_angle_alpha   90.29652819
_cell_angle_beta   89.86583265
_cell_angle_gamma   89.74422811
_symmetry_Int_Tables_number   1
_chemical_formula_structural   VZnO4
_chemical_formula_sum   'V64 Zn64 O256'
_cell_volume   4879.12199553
_cell_formula_units_Z   64
loop_
 _symmetry_equiv_pos_site_id
 _symmetry_equiv_pos_as_xyz
  1  'x, y, z'
loop_
 _atom_site_type_symbol
 _atom_site_label
 _atom_site_symmetry_multiplicity
 _atom_site_fract_x
 _atom_site_fract_y
 _atom_site_fract_z
 _atom_site_occupancy
  V  V0  1  0.52167931  0.25365567  0.76211200  1
  V  V1  1  0.73513639  0.62843272  0.85925144  1
  V  V2  1  0.87531550  0.48773434  0.87747937  1
  V  V3  1  0.38315895  0.86491316  0.01160804  1
  V  V4  1  0.24641514  0.57755586  0.88521886  1
  V  V5  1  0.87207141  0.63568901  0.25545891  1
  V  V6  1  0.74271853  0.48861085  0.24871557  1
  V  V7  1  0.64116202  0.26074047  0.39639735  1
  V  V8  1  -0.00094540  0.26299861  0.74260876  1
  V  V9  1  0.00101390  0.11273460  0.62692175  1
  V  V10  1  0.73763813  0.74563203  0.00262888  1
  V  V11  1  0.26257178  0.26094082  0.50635292  1
  V  V12  1  0.26147265  0.75131714  0.51612413  1
  V  V13  1  0.37703338  0.62120466  0.24163907  1
  V  V14  1  0.49234028  0.61581711  0.11062995  1
  V  V15  1  0.62437232  0.64477196  0.49013854  1
  V  V16  1  0.88232019  0.13358398  0.24219564  1
  V  V17  1  0.15439571  0.40432815  0.73307590  1
  V  V18  1  0.48740138  0.49785077  0.50440674  1
  V  V19  1  0.50453503  0.12252560  0.63360289  1
  V  V20  1  0.11896222  0.24596205  0.37915883  1
  V  V21  1  0.26552864  0.11421917  0.38288648  1
  V  V22  1  0.82636050  0.86298610  0.47485155  1
  V  V23  1  0.36610584  0.61546171  0.74343969  1
  V  V24  1  0.12043962  0.63565263  0.49486217  1
  V  V25  1  0.86203744  0.11602661  0.74908599  1
  V  V26  1  0.48157639  0.00372985  0.48710040  1
  V  V27  1  0.50023363  0.84935634  0.87170174  1
  V  V28  1  0.62719907  0.48967294  0.62001602  1
  V  V29  1  0.49626993  0.64801925  0.62794335  1
  V  V30  1  0.14388008  0.88815193  0.21024438  1
  V  V31  1  -0.00188550  0.62390782  0.61295019  1
  V  V32  1  0.04211883  0.05178407  -0.00226187  1
  V  V33  1  0.50552068  0.26591413  0.25776500  1
  V  V34  1  0.11530843  0.57368400  0.00247892  1
  V  V35  1  0.25352652  0.62208762  0.36863119  1
  V  V36  1  0.14425627  -0.01170614  0.64151319  1
  V  V37  1  0.37577635  0.12355206  0.25756902  1
  V  V38  1  0.64885513  0.86881266  0.75924799  1
  V  V39  1  0.47611690  0.37740097  0.38826829  1
  V  V40  1  0.22110917  0.48536684  0.24914900  1
  V  V41  1  0.13764819  0.24500283  0.85567984  1
  V  V42  1  0.62024409  0.59759219  -0.00207370  1
  V  V43  1  0.74220827  0.49087544  0.74235704  1
  V  V44  1  0.88276956  0.75235707  0.10448365  1
  V  V45  1  0.01074260  0.85381651  0.88930490  1
  V  V46  1  0.86893829  0.76645023  0.62996369  1
  V  V47  1  0.88456198  0.62945998  0.74924458  1
  V  V48  1  0.85935741  0.89715641  -0.01146840  1
  V  V49  1  0.50356244  0.01310776  -0.00707853  1
  V  V50  1  0.36809896  0.26921402  0.13417190  1
  V  V51  1  0.12603637  0.11151356  0.50337888  1
  V  V52  1  0.87048003  0.26291205  0.60093771  1
  V  V53  1  0.37654642  0.26086320  0.63895014  1
  V  V54  1  -0.01108560  0.59001476  0.11947527  1
  V  V55  1  0.51755605  0.39390426  0.87090184  1
  V  V56  1  0.87370384  0.47937680  0.37504161  1
  V  V57  1  0.36696318  0.37392455  -0.01675262  1
  V  V58  1  0.75364041  0.11049274  0.38602018  1
  V  V59  1  0.04187357  0.87984338  0.40719380  1
  V  V60  1  0.86103970  0.30582479  0.03725096  1
  V  V61  1  0.61829981  -0.01876246  0.13989642  1
  V  V62  1  0.75914725  -0.00757449  0.23561466  1
  V  V63  1  0.51748951  0.13640521  0.13122518  1
  Zn  Zn64  1  0.18386032  0.20314106  0.18892021  1
  Zn  Zn65  1  0.19113005  0.18398630  0.68674127  1
  Zn  Zn66  1  0.14534066  0.67197122  0.19535352  1
  Zn  Zn67  1  0.18355409  0.58827036  0.68574936  1
  Zn  Zn68  1  0.67235079  0.17046765  0.23765597  1
  Zn  Zn69  1  0.69069054  0.19428990  0.67102754  1
  Zn  Zn70  1  0.68878969  0.67200024  0.17679102  1
  Zn  Zn71  1  0.67396058  0.70796423  0.67782014  1
  Zn  Zn72  1  0.30468214  0.30770511  0.31932588  1
  Zn  Zn73  1  0.31544287  0.32870341  0.80439821  1
  Zn  Zn74  1  0.25141257  0.77982618  0.28038325  1
  Zn  Zn75  1  0.36833918  0.81967934  0.78976285  1
  Zn  Zn76  1  0.81335674  0.30716831  0.31569687  1
  Zn  Zn77  1  0.81638855  0.30527975  0.79111000  1
  Zn  Zn78  1  0.95135983  0.81316131  0.26651678  1
  Zn  Zn79  1  0.81447015  0.80831884  0.81955653  1
  Zn  Zn80  1  0.18743112  0.44577005  0.45227970  1
  Zn  Zn81  1  0.16800164  0.39517886  0.93738226  1
  Zn  Zn82  1  0.21344718  0.93356781  0.44592680  1
  Zn  Zn83  1  0.17736911  0.92017179  0.99653762  1
  Zn  Zn84  1  0.68870271  0.45836532  0.43452533  1
  Zn  Zn85  1  0.70163175  0.32341195  0.92765967  1
  Zn  Zn86  1  0.71904880  0.89270898  0.36399776  1
  Zn  Zn87  1  0.63825219  0.88417807  0.98000636  1
  Zn  Zn88  1  0.33525842  0.08363274  0.06527710  1
  Zn  Zn89  1  0.32342014  0.06669534  0.57510455  1
  Zn  Zn90  1  0.30351361  0.53412369  0.07340564  1
  Zn  Zn91  1  0.31115368  0.57707471  0.55474196  1
  Zn  Zn92  1  0.81773650  0.09902985  0.04463673  1
  Zn  Zn93  1  0.83456603  0.05011150  0.54991242  1
  Zn  Zn94  1  0.80270586  0.55835488  0.05692790  1
  Zn  Zn95  1  0.80177738  0.58297835  0.56339669  1
  Zn  Zn96  1  0.42970520  0.45175999  0.20349533  1
  Zn  Zn97  1  0.43799131  0.43823588  0.69370465  1
  Zn  Zn98  1  0.35554216  0.91870884  0.20572613  1
  Zn  Zn99  1  0.52369836  0.92131004  0.66768711  1
  Zn  Zn100  1  0.87896968  0.43667300  0.16697416  1
  Zn  Zn101  1  0.93026737  0.44359519  0.67570197  1
  Zn  Zn102  1  0.97447223  0.99585629  0.19290650  1
  Zn  Zn103  1  0.95333951  0.93648468  0.70888182  1
  Zn  Zn104  1  0.06808459  0.04906335  0.32284757  1
  Zn  Zn105  1  0.06158670  0.05931088  0.81663920  1
  Zn  Zn106  1  0.04289390  0.55218892  0.31719546  1
  Zn  Zn107  1  0.05881377  0.55705655  0.81835017  1
  Zn  Zn108  1  0.56302084  0.06476423  0.32363680  1
  Zn  Zn109  1  0.57015028  0.06054417  0.80151164  1
  Zn  Zn110  1  0.55990766  0.55747164  0.31272354  1
  Zn  Zn111  1  0.55990134  0.56800992  0.80196455  1
  Zn  Zn112  1  0.44502913  0.18676969  0.44896342  1
  Zn  Zn113  1  0.50924962  0.24688740  0.98243197  1
  Zn  Zn114  1  0.43602883  0.68267738  0.43342000  1
  Zn  Zn115  1  0.42347111  0.68130602  0.93575281  1
  Zn  Zn116  1  0.93695309  0.17469427  0.43096009  1
  Zn  Zn117  1  0.93196527  0.18852199  0.92304210  1
  Zn  Zn118  1  0.94219933  0.71365663  0.43730187  1
  Zn  Zn119  1  0.94033449  0.67317428  0.93681845  1
  Zn  Zn120  1  0.04348240  0.26435041  0.02825835  1
  Zn  Zn121  1  0.07320397  0.30590160  0.56372829  1
  Zn  Zn122  1  0.02212684  0.86642661  0.09107074  1
  Zn  Zn123  1  0.06944100  0.80381600  0.58819323  1
  Zn  Zn124  1  0.54595290  0.43617176  0.05792190  1
  Zn  Zn125  1  0.55950053  0.31096096  0.56664285  1
  Zn  Zn126  1  0.50410915  0.81957302  0.16883136  1
  Zn  Zn127  1  0.62160795  0.84889853  0.53681935  1
  O  O128  1  0.17525628  0.09605004  0.13299354  1
  O  O129  1  0.12265617  0.11947699  0.61542479  1
  O  O130  1  0.10138609  0.60716263  0.11270143  1
  O  O131  1  0.10200301  0.63765858  0.62188600  1
  O  O132  1  0.61628583  0.14998712  0.14063803  1
  O  O133  1  0.60546113  0.13265021  0.62417573  1
  O  O134  1  0.61869032  0.61626538  0.10186469  1
  O  O135  1  0.60680206  0.63205588  0.61655035  1
  O  O136  1  0.37902529  0.37594732  0.38783032  1
  O  O137  1  0.38821625  0.37078574  0.88073225  1
  O  O138  1  0.43733514  0.82177067  0.34231996  1
  O  O139  1  0.39328741  0.87251750  0.89342122  1
  O  O140  1  0.88544587  0.38120530  0.36814058  1
  O  O141  1  0.86292605  0.39105158  0.85411285  1
  O  O142  1  0.83977774  0.85736863  0.37649464  1
  O  O143  1  0.87716756  0.87434621  0.88744361  1
  O  O144  1  0.26014898  0.01552525  0.38007619  1
  O  O145  1  0.25079739  0.04113222  0.83400993  1
  O  O146  1  0.23749872  0.51568723  0.37742465  1
  O  O147  1  0.24508770  0.48049256  0.88022559  1
  O  O148  1  0.73704225  0.00985625  0.35311010  1
  O  O149  1  0.70067053  0.08970943  0.91390264  1
  O  O150  1  0.76261203  0.50799794  0.36033122  1
  O  O151  1  0.75466668  0.51530910  0.85083177  1
  O  O152  1  0.22834502  0.49406343  0.14820570  1
  O  O153  1  0.21436142  0.52119222  0.59159778  1
  O  O154  1  0.23790592  1.05193374  0.12621943  1
  O  O155  1  0.24346115  1.00302688  0.62662302  1
  O  O156  1  0.77473111  0.49395762  0.14496043  1
  O  O157  1  0.73386793  0.51683526  0.63206365  1
  O  O158  1  0.72518336  1.00174201  0.13171194  1
  O  O159  1  0.74396724  0.99830531  0.63168707  1
  O  O160  1  0.02601680  0.28684204  0.19542034  1
  O  O161  1  -0.01048615  0.36210214  0.73459565  1
  O  O162  1  0.01348056  0.88558314  0.20696037  1
  O  O163  1  0.01044179  0.89258196  0.79456985  1
  O  O164  1  0.49094316  0.37330179  0.27483461  1
  O  O165  1  0.49800699  0.36539406  0.76363908  1
  O  O166  1  0.44724907  0.85937100  0.27035111  1
  O  O167  1  0.47798871  0.86497103  0.76891487  1
  O  O168  1  0.49411957  0.14469192  0.25730188  1
  O  O169  1  0.50676221  0.14349670  0.74651950  1
  O  O170  1  0.47975009  0.61282087  0.24867305  1
  O  O171  1  0.49248910  0.62606080  0.73176403  1
  O  O172  1  0.98294434  0.09590154  0.25584849  1
  O  O173  1  0.99453416  0.12819289  0.73233522  1
  O  O174  1  0.98850022  0.61626230  0.22855010  1
  O  O175  1  0.98579252  0.62253966  0.74271787  1
  O  O176  1  0.39511644  0.27043406  0.02902431  1
  O  O177  1  0.36665319  0.25308046  0.50477201  1
  O  O178  1  0.38301326  0.76502853  0.00718293  1
  O  O179  1  0.36128844  0.73184128  0.49986999  1
  O  O180  1  0.84953969  0.20454705  0.00704632  1
  O  O181  1  0.88983091  0.24677198  0.50298871  1
  O  O182  1  0.86110761  0.73020218  0.00087037  1
  O  O183  1  0.87364811  0.77307196  0.51400156  1
  O  O184  1  0.14182356  0.23122787  0.49911155  1
  O  O185  1  0.12528167  0.28577861  0.95353869  1
  O  O186  1  0.13360608  0.73674613  0.50571669  1
  O  O187  1  0.20289924  0.74771331  1.02790210  1
  O  O188  1  0.61770920  0.24384262  0.49195505  1
  O  O189  1  0.62831970  0.27862474  1.01538137  1
  O  O190  1  0.60356330  0.74298531  0.49822810  1
  O  O191  1  0.63855851  0.75681654  1.00112837  1
  O  O192  1  0.49660482  0.25415922  0.15279615  1
  O  O193  1  0.49560954  0.24941839  0.63837848  1
  O  O194  1  0.50248110  0.71281572  0.13266757  1
  O  O195  1  0.48712809  0.74265011  0.62315181  1
  O  O196  1  1.08240087  0.24888465  0.13554797  1
  O  O197  1  0.99963976  0.23667287  0.62454094  1
  O  O198  1  0.98393746  0.74942756  0.10264073  1
  O  O199  1  0.98169263  0.73784597  0.62668193  1
  O  O200  1  0.02136681  0.22905042  0.37860612  1
  O  O201  1  -0.00209431  0.24695944  0.84427663  1
  O  O202  1  -0.00644644  0.79090695  0.36870135  1
  O  O203  1  -0.00197510  0.75361112  0.88114928  1
  O  O204  1  0.50192397  0.26637134  0.37988326  1
  O  O205  1  0.51410906  0.25322937  0.86512646  1
  O  O206  1  0.48127853  0.75707487  0.34961798  1
  O  O207  1  0.50284748  0.75114967  0.88733544  1
  O  O208  1  0.25203329  0.12815841  0.49361548  1
  O  O209  1  0.29526346  0.13657431  0.95716177  1
  O  O210  1  0.23929136  0.63270743  0.48355100  1
  O  O211  1  0.22310052  0.58630894  1.00245660  1
  O  O212  1  0.75366316  0.10042745  0.48511810  1
  O  O213  1  0.70926876  0.12272423  0.98423819  1
  O  O214  1  0.72505545  0.63451311  0.49935952  1
  O  O215  1  0.73089614  0.62455167  0.98826226  1
  O  O216  1  0.26820841  0.36224596  -0.01222610  1
  O  O217  1  0.24505504  0.35827310  0.50151629  1
  O  O218  1  0.28655523  0.89495013  0.01217376  1
  O  O219  1  0.25363245  0.85257658  0.50777623  1
  O  O220  1  0.78228361  0.35802937  0.00031448  1
  O  O221  1  0.78586547  0.43214481  0.50125891  1
  O  O222  1  0.75473498  0.85415383  -0.01277796  1
  O  O223  1  0.72117472  0.87011800  0.48045532  1
  O  O224  1  0.12028142  0.49010452  0.26596813  1
  O  O225  1  0.12399677  0.50565201  0.74098164  1
  O  O226  1  0.12677751  0.98255752  0.24551679  1
  O  O227  1  0.13124754  1.01401938  0.73888072  1
  O  O228  1  0.64421134  0.51189728  0.25077757  1
  O  O229  1  0.63098634  0.50464903  0.73226618  1
  O  O230  1  0.62731952  1.01368581  0.24032772  1
  O  O231  1  0.60465042  0.97006642  0.74666435  1
  O  O232  1  0.37990464  0.02559376  0.24201175  1
  O  O233  1  0.29489062  0.05487434  0.77547028  1
  O  O234  1  0.34406133  0.51975633  0.24515099  1
  O  O235  1  0.38737383  0.51737762  0.76065141  1
  O  O236  1  0.86069323  -0.00092526  0.23154037  1
  O  O237  1  0.87781762  0.01724131  0.73469314  1
  O  O238  1  0.87222895  0.51104021  0.26531311  1
  O  O239  1  0.85612932  0.51775206  0.73739406  1
  O  O240  1  0.11183265  0.35531404  0.39850786  1
  O  O241  1  0.12592419  0.36760927  0.82723087  1
  O  O242  1  0.13952371  0.87921334  0.37672827  1
  O  O243  1  0.10613137  0.86610201  0.92378281  1
  O  O244  1  0.63718810  0.36346821  0.39244197  1
  O  O245  1  0.61680175  0.38325726  0.87655390  1
  O  O246  1  0.61897290  0.82988285  0.33616898  1
  O  O247  1  0.60453390  0.88102774  0.86881527  1
  O  O248  1  0.39144956  0.14677703  0.14348922  1
  O  O249  1  0.39437713  0.14929935  0.61487175  1
  O  O250  1  0.38543253  0.60914560  0.12304870  1
  O  O251  1  0.37755997  0.62190717  0.63799818  1
  O  O252  1  0.87129913  0.12793863  0.14246771  1
  O  O253  1  0.89457123  0.12332307  0.61249569  1
  O  O254  1  0.88575296  0.62613728  0.11848530  1
  O  O255  1  0.87753041  0.63709611  0.63108433  1
  O  O256  1  0.27014901  0.24873051  0.13122121  1
  O  O257  1  0.26526823  0.24219279  0.61775471  1
  O  O258  1  0.23757586  0.72999443  0.08918789  1
  O  O259  1  0.24919284  0.72791471  0.61129907  1
  O  O260  1  0.65110584  0.29941171  0.09221559  1
  O  O261  1  0.77064768  0.24850511  0.61140811  1
  O  O262  1  0.75703376  0.73355599  0.10535195  1
  O  O263  1  0.76764731  0.75375539  0.62846463  1
  O  O264  1  0.24926029  0.23918693  0.39521151  1
  O  O265  1  0.23719751  0.25249206  0.84031284  1
  O  O266  1  0.23984329  0.72720175  0.37885348  1
  O  O267  1  0.24349780  0.86721419  0.80131932  1
  O  O268  1  0.74491676  0.24005624  0.38274535  1
  O  O269  1  0.74283799  0.25153669  0.85367848  1
  O  O270  1  0.64801271  0.76234603  0.30842577  1
  O  O271  1  0.75642672  0.72866368  0.88584297  1
  O  O272  1  0.01553593  0.15334105  -0.00017108  1
  O  O273  1  0.02086960  0.11981279  0.50606954  1
  O  O274  1  0.00755083  0.60880888  0.00617675  1
  O  O275  1  0.00514444  0.63850837  0.50530263  1
  O  O276  1  0.50722145  0.13542379  0.02535164  1
  O  O277  1  0.50257948  0.10735425  0.51001861  1
  O  O278  1  0.50718080  0.61654849  0.00200729  1
  O  O279  1  0.49773151  0.61488613  0.51122622  1
  O  O280  1  0.50080578  0.38634024  0.49651610  1
  O  O281  1  0.49739539  0.36996582  0.97984178  1
  O  O282  1  0.53508921  0.92758157  0.53452945  1
  O  O283  1  0.50018114  0.89753774  0.98137744  1
  O  O284  1  1.07685116  0.38349802  0.46999367  1
  O  O285  1  0.95284832  0.32730347  0.99672884  1
  O  O286  1  1.02979625  0.87361738  0.50591700  1
  O  O287  1  0.96873551  0.87906657  0.99227459  1
  O  O288  1  0.50289743  0.48640559  0.39207668  1
  O  O289  1  0.50517465  0.49287320  0.86723103  1
  O  O290  1  0.50260498  0.99671723  0.38815086  1
  O  O291  1  0.50986860  1.03525373  0.89749753  1
  O  O292  1  0.96466723  0.51905504  0.39303760  1
  O  O293  1  0.97464970  0.50128299  0.86250419  1
  O  O294  1  1.00399819  0.96941737  0.37598638  1
  O  O295  1  1.00451181  1.01841172  0.90743758  1
  O  O296  1  0.00324142  0.00588544  0.08123689  1
  O  O297  1  0.01638141  0.01073256  0.62979077  1
  O  O298  1  -0.02586584  0.49302117  0.12182554  1
  O  O299  1  -0.01502287  0.52435153  0.61764310  1
  O  O300  1  0.51595458  0.02972743  0.13326264  1
  O  O301  1  0.47987629  0.02552629  0.64567611  1
  O  O302  1  0.50656436  0.50735976  0.13699996  1
  O  O303  1  0.51086048  0.49770772  0.61607145  1
  O  O304  1  0.24666117  0.38998893  0.27120544  1
  O  O305  1  0.25511603  0.39686481  0.73324045  1
  O  O306  1  0.25139962  0.88362081  0.23097141  1
  O  O307  1  0.33022004  0.85691122  0.67157395  1
  O  O308  1  0.75347261  0.38827067  0.25819968  1
  O  O309  1  0.75160107  0.39424590  0.73752957  1
  O  O310  1  0.74398213  0.89496544  0.24891518  1
  O  O311  1  0.74688335  0.88400378  0.76882731  1
  O  O312  1  0.26878736  0.13785124  0.27058799  1
  O  O313  1  0.28401309  0.12305789  0.73404695  1
  O  O314  1  0.22259798  0.61475622  0.26455181  1
  O  O315  1  0.25644119  0.60849242  0.77223380  1
  O  O316  1  0.76733617  0.11625584  0.25606598  1
  O  O317  1  0.76434066  0.12672364  0.72596481  1
  O  O318  1  0.76982183  0.62146572  0.24107563  1
  O  O319  1  0.74158782  0.63050549  0.75618923  1
  O  O320  1  0.37426385  0.13128216  0.37117993  1
  O  O321  1  0.34882253  0.15135563  0.90889406  1
  O  O322  1  0.36021370  0.62264250  0.35928596  1
  O  O323  1  0.34053684  0.60873562  0.90733938  1
  O  O324  1  0.85989937  0.11724482  0.36956624  1
  O  O325  1  0.86935376  0.13011753  0.84844070  1
  O  O326  1  0.88426344  0.65432864  0.35240320  1
  O  O327  1  0.86474566  0.61768433  0.85635624  1
  O  O328  1  0.03837853  0.35778348  0.20883911  1
  O  O329  1  0.12276704  0.37121334  0.64235388  1
  O  O330  1  0.13856333  0.88879950  0.10729876  1
  O  O331  1  0.12745935  0.88897843  0.63757602  1
  O  O332  1  0.62991161  0.36941504  0.11746341  1
  O  O333  1  0.63072779  0.39143847  0.61159787  1
  O  O334  1  0.59830059  0.88366574  0.14515442  1
  O  O335  1  0.62274850  0.85395643  0.65245097  1
  O  O336  1  0.14681049  0.25096842  0.28356665  1
  O  O337  1  0.10987412  0.24426516  0.74155476  1
  O  O338  1  0.13815787  0.77894246  0.23280707  1
  O  O339  1  0.19083179  0.82525407  0.77305846  1
  O  O340  1  0.60826426  0.26250752  0.27153490  1
  O  O341  1  0.61885960  0.25734417  0.74134495  1
  O  O342  1  0.61367628  0.73849261  0.23961636  1
  O  O343  1  0.63688434  0.76547113  0.76910521  1
  O  O344  1  0.38415872  0.24960780  0.25380658  1
  O  O345  1  0.38270346  0.25406425  0.74067099  1
  O  O346  1  0.34200244  0.71649462  0.23357176  1
  O  O347  1  0.37459896  0.70731959  0.79129560  1
  O  O348  1  0.88354280  0.23097010  0.26523743  1
  O  O349  1  0.88651760  0.23785378  0.72406301  1
  O  O350  1  0.87637245  0.73994531  0.21975906  1
  O  O351  1  0.86841726  0.73415376  0.74627050  1
  O  O352  1  0.38894619  0.50432409  0.50967696  1
  O  O353  1  0.37954910  0.46887663  1.01809369  1
  O  O354  1  0.38219408  0.99410259  0.50348217  1
  O  O355  1  0.40220048  1.00775223  1.01569167  1
  O  O356  1  0.84204078  0.48980303  0.48997953  1
  O  O357  1  0.86119905  0.50458786  0.97580842  1
  O  O358  1  0.86334665  0.94972378  0.51073866  1
  O  O359  1  0.84318851  0.99433855  0.99964639  1
  O  O360  1  0.14138481  0.02987537  -0.00732909  1
  O  O361  1  0.14178110  0.01061736  0.51050480  1
  O  O362  1  0.10636196  0.47598027  -0.00224366  1
  O  O363  1  0.15069780  0.52630179  0.53344914  1
  O  O364  1  0.61001969  -0.01045131  0.02521541  1
  O  O365  1  0.67945950  -0.00444067  0.59800614  1
  O  O366  1  0.62621602  0.50039502  -0.00380610  1
  O  O367  1  0.61706387  0.51481744  0.51143985  1
  O  O368  1  0.37536195  0.36851454  0.14750748  1
  O  O369  1  0.38590663  0.36073929  0.62512825  1
  O  O370  1  0.41382564  0.87693180  0.11627031  1
  O  O371  1  0.38159397  0.87448318  0.62240498  1
  O  O372  1  0.86848231  0.32890372  0.13717757  1
  O  O373  1  0.88382764  0.36200819  0.61312809  1
  O  O374  1  0.86448708  0.85454758  0.09650630  1
  O  O375  1  0.88628442  0.86173922  0.65266368  1
  O  O376  1  0.14044642  0.12314161  0.38765250  1
  O  O377  1  0.12301906  0.14637259  0.86439048  1
  O  O378  1  0.11207333  0.61564273  0.39608854  1
  O  O379  1  0.13189128  0.60466862  0.89565636  1
  O  O380  1  0.64275505  0.14200663  0.35979091  1
  O  O381  1  0.64942807  0.12707867  0.86835349  1
  O  O382  1  0.60245743  0.62584744  0.39255804  1
  O  O383  1  0.63045658  0.61903514  0.88076598  1
