# generated using pymatgen
data_VZnO4
_symmetry_space_group_name_H-M   'P 1'
_cell_length_a   16.87623029
_cell_length_b   16.95223548
_cell_length_c   16.90666185
_cell_angle_alpha   90.32822122
_cell_angle_beta   90.24272567
_cell_angle_gamma   89.76289728
_symmetry_Int_Tables_number   1
_chemical_formula_structural   VZnO4
_chemical_formula_sum   'V64 Zn64 O256'
_cell_volume   4836.66031719
_cell_formula_units_Z   64
loop_
 _symmetry_equiv_pos_site_id
 _symmetry_equiv_pos_as_xyz
  1  'x, y, z'
loop_
 _atom_site_type_symbol
 _atom_site_label
 _atom_site_symmetry_multiplicity
 _atom_site_fract_x
 _atom_site_fract_y
 _atom_site_fract_z
 _atom_site_occupancy
  V  V0  1  0.74679458  0.87482922  0.13602626  1
  V  V1  1  0.12349689  0.26792216  0.37408522  1
  V  V2  1  0.24812963  0.36576416  0.12291428  1
  V  V3  1  0.36941120  0.11234384  0.74947674  1
  V  V4  1  0.87021327  0.49386962  0.88593668  1
  V  V5  1  0.62192879  -0.00228834  0.09736231  1
  V  V6  1  0.87510023  0.22718040  0.10656284  1
  V  V7  1  0.72769119  0.74263584  0.00185485  1
  V  V8  1  -0.01620982  0.24073646  0.26676702  1
  V  V9  1  0.38486803  0.39602623  0.49812333  1
  V  V10  1  0.48425823  0.25059971  0.24412894  1
  V  V11  1  0.62417159  0.38399310  0.75610085  1
  V  V12  1  0.37786627  0.25975795  0.62480324  1
  V  V13  1  0.37126656  0.75367874  0.11982105  1
  V  V14  1  0.13388172  0.25868759  0.84985376  1
  V  V15  1  0.24877826  0.39337572  0.64161791  1
  V  V16  1  0.60180626  0.62601501  0.46607583  1
  V  V17  1  0.50125688  0.25460584  0.75087549  1
  V  V18  1  0.24598472  0.11567735  0.87817091  1
  V  V19  1  -0.00879262  0.49584551  0.03375734  1
  V  V20  1  0.62075860  0.51990364  0.62597887  1
  V  V21  1  0.87873092  0.39291960  0.48605969  1
  V  V22  1  0.14272133  0.76832573  0.38114530  1
  V  V23  1  -0.00400534  0.74159174  0.74463233  1
  V  V24  1  0.11070465  0.50558742  0.62725900  1
  V  V25  1  0.61944709  0.26111664  0.36810665  1
  V  V26  1  0.00429847  0.75509956  0.26183650  1
  V  V27  1  0.62408601  0.12049194  0.49940443  1
  V  V28  1  0.62973546  0.22410449  0.86141278  1
  V  V29  1  0.26053944  -0.02016264  0.24544521  1
  V  V30  1  0.74907181  0.25257577  0.49598237  1
  V  V31  1  0.90152614  -0.00005354  0.36235997  1
  V  V32  1  -0.00919316  0.87870376  0.86749655  1
  V  V33  1  0.24581303  0.59372807  0.88710997  1
  V  V34  1  0.38296851  0.50142622  0.34928167  1
  V  V35  1  0.87211235  0.85619974  -0.00675963  1
  V  V36  1  0.51546902  0.86401499  0.87347650  1
  V  V37  1  0.00223815  0.37560686  0.85491789  1
  V  V38  1  0.24590448  0.26308848  0.50451472  1
  V  V39  1  0.73213183  0.36719388  0.13177992  1
  V  V40  1  0.88404765  0.25390036  0.63473856  1
  V  V41  1  0.25724026  0.12769395  0.36861459  1
  V  V42  1  0.75962184  0.75484550  0.48496668  1
  V  V43  1  0.89231895  0.87831569  0.53120457  1
  V  V44  1  0.62744531  0.87177914  0.72300184  1
  V  V45  1  0.48937930  0.89576067  0.37452438  1
  V  V46  1  0.11721169  0.62313487  0.49690709  1
  V  V47  1  0.74837671  0.38565879  0.62940528  1
  V  V48  1  0.25024245  0.61543139  0.36755433  1
  V  V49  1  0.74814645  0.62924048  0.87306251  1
  V  V50  1  0.37963272  0.85464684  0.52342129  1
  V  V51  1  0.36731381  0.88225581  -0.01042679  1
  V  V52  1  -0.00017550  0.11800968  0.64614414  1
  V  V53  1  0.88211332  0.61585162  0.74759281  1
  V  V54  1  0.50403094  0.11561868  0.62124417  1
  V  V55  1  0.48599535  0.11780697  0.11573340  1
  V  V56  1  0.12604574  0.74694081  0.87888595  1
  V  V57  1  0.37704678  0.61761908  0.74135522  1
  V  V58  1  0.50326200  0.74114359  0.25069853  1
  V  V59  1  0.60721957  0.50705965  0.12002535  1
  V  V60  1  0.11552834  0.62683743  0.02638866  1
  V  V61  1  0.72829284  0.23858024  -0.00306820  1
  V  V62  1  0.11851893  0.01882319  0.13510893  1
  V  V63  1  0.11643811  0.12461588  0.50727193  1
  Zn  Zn64  1  0.18757922  0.18796769  0.19413612  1
  Zn  Zn65  1  0.18802387  0.19439841  0.68293330  1
  Zn  Zn66  1  0.20045958  0.71698595  0.19554774  1
  Zn  Zn67  1  0.16975751  0.64305073  0.71634279  1
  Zn  Zn68  1  0.69594950  0.17193486  0.19011658  1
  Zn  Zn69  1  0.69501550  0.18813594  0.67857702  1
  Zn  Zn70  1  0.66623119  0.69910954  0.17935585  1
  Zn  Zn71  1  0.72089088  0.70033144  0.67133963  1
  Zn  Zn72  1  0.31448966  0.31686628  0.32008740  1
  Zn  Zn73  1  0.31723217  0.31290408  0.81781338  1
  Zn  Zn74  1  0.32611958  0.81269995  0.31854936  1
  Zn  Zn75  1  0.31606365  0.81002029  0.80941695  1
  Zn  Zn76  1  0.80670023  0.31674383  0.30968189  1
  Zn  Zn77  1  0.80989973  0.31421094  0.81618330  1
  Zn  Zn78  1  0.82132853  0.82814215  0.32937546  1
  Zn  Zn79  1  0.80525556  0.80240507  0.80458551  1
  Zn  Zn80  1  0.18986211  0.44932349  0.43963262  1
  Zn  Zn81  1  0.16401429  0.43759659  0.95610651  1
  Zn  Zn82  1  0.19993055  0.95528126  0.44295450  1
  Zn  Zn83  1  0.18428010  0.93375142  0.92265750  1
  Zn  Zn84  1  0.67170066  0.43735122  0.45029255  1
  Zn  Zn85  1  0.68464676  0.42173928  0.94823731  1
  Zn  Zn86  1  0.67987801  0.93320960  0.43689365  1
  Zn  Zn87  1  0.68871344  0.92885652  0.92800865  1
  Zn  Zn88  1  0.30743856  0.05065164  0.06118041  1
  Zn  Zn89  1  0.33331333  0.08682659  0.52808611  1
  Zn  Zn90  1  0.32962535  0.58402334  0.03807131  1
  Zn  Zn91  1  0.30563808  0.57827532  0.56030578  1
  Zn  Zn92  1  0.79191129  0.06571592  0.06575907  1
  Zn  Zn93  1  0.83611379  0.08130467  0.52361576  1
  Zn  Zn94  1  0.76614880  0.53928816  0.04628309  1
  Zn  Zn95  1  0.81152967  0.57173504  0.56205987  1
  Zn  Zn96  1  0.44090600  0.43700370  0.16493619  1
  Zn  Zn97  1  0.44144870  0.44946633  0.68981889  1
  Zn  Zn98  1  0.43821696  0.93409605  0.18256278  1
  Zn  Zn99  1  0.44271602  0.92992660  0.68875471  1
  Zn  Zn100  1  0.99895148  0.45122753  0.24117991  1
  Zn  Zn101  1  0.93118968  0.44511646  0.68481715  1
  Zn  Zn102  1  0.93356645  0.94540441  0.17384119  1
  Zn  Zn103  1  0.92878527  0.93593578  0.68818787  1
  Zn  Zn104  1  0.07462542  0.06573658  0.31461118  1
  Zn  Zn105  1  0.03404352  0.08740306  0.84783687  1
  Zn  Zn106  1  0.10410866  0.59566400  0.26819427  1
  Zn  Zn107  1  0.06064938  0.55562991  0.82513585  1
  Zn  Zn108  1  0.52795881  0.08203701  0.32726405  1
  Zn  Zn109  1  0.58579707  0.03265597  0.79520563  1
  Zn  Zn110  1  0.55649614  0.55318420  0.29157552  1
  Zn  Zn111  1  0.57644581  0.58724613  0.78683791  1
  Zn  Zn112  1  0.44091850  0.20190314  0.43867868  1
  Zn  Zn113  1  0.45289418  0.05072230  0.93045931  1
  Zn  Zn114  1  0.42151508  0.69490091  0.42451718  1
  Zn  Zn115  1  0.41125790  0.71104098  0.90709876  1
  Zn  Zn116  1  0.93363167  0.19115735  0.43357574  1
  Zn  Zn117  1  0.93862526  0.20548524  0.93421794  1
  Zn  Zn118  1  0.95192131  0.70805334  0.43928307  1
  Zn  Zn119  1  0.94183716  0.68095945  0.93813452  1
  Zn  Zn120  1  0.02594524  0.32812025  0.10843221  1
  Zn  Zn121  1  0.06045251  0.32763116  0.56164877  1
  Zn  Zn122  1  0.06352247  0.82443940  0.04845771  1
  Zn  Zn123  1  0.07134002  0.80189330  0.56428198  1
  Zn  Zn124  1  0.56286694  0.29740579  0.06322412  1
  Zn  Zn125  1  0.56314219  0.31646009  0.56330668  1
  Zn  Zn126  1  0.55189059  0.81747622  0.06133614  1
  Zn  Zn127  1  0.58221301  0.82056168  0.51666280  1
  O  O128  1  0.13772849  0.11813683  0.12414455  1
  O  O129  1  0.10738991  0.14154594  0.61979500  1
  O  O130  1  0.12501553  0.64671890  0.12317478  1
  O  O131  1  0.13890105  0.61688032  0.60864392  1
  O  O132  1  0.63341205  0.09448974  0.13227787  1
  O  O133  1  0.61082845  0.13466737  0.61929802  1
  O  O134  1  0.64409604  0.60506013  0.12692764  1
  O  O135  1  0.63355489  0.61627392  0.65543655  1
  O  O136  1  0.36608249  0.39380619  0.38861790  1
  O  O137  1  0.39611594  0.36618743  0.89010181  1
  O  O138  1  0.38239863  0.87847995  0.39520474  1
  O  O139  1  0.39327233  0.86851172  0.87717059  1
  O  O140  1  0.86308019  0.37874231  0.38702682  1
  O  O141  1  0.88607599  0.38407903  0.87160458  1
  O  O142  1  0.86894272  0.90720592  0.40229085  1
  O  O143  1  0.87623594  0.86378241  0.87930711  1
  O  O144  1  0.24385986  0.02198442  0.36006983  1
  O  O145  1  0.22538655  0.01838648  0.86030792  1
  O  O146  1  0.25863875  0.50834139  0.36926800  1
  O  O147  1  0.23597837  0.49491705  0.88797650  1
  O  O148  1  0.74467722  -0.00898307  0.35851677  1
  O  O149  1  0.78712711  -0.00137246  0.91223569  1
  O  O150  1  0.73139756  0.48046103  0.34690101  1
  O  O151  1  0.76635397  0.50281947  0.88816137  1
  O  O152  1  0.23378340  0.46683429  0.13423980  1
  O  O153  1  0.24929860  0.49331526  0.62468251  1
  O  O154  1  0.24398457  1.00195723  0.14145826  1
  O  O155  1  0.22206134  0.99476031  0.64367904  1
  O  O156  1  0.76916783  0.46210695  0.12730385  1
  O  O157  1  0.74192341  0.48937716  0.62405479  1
  O  O158  1  0.73625223  0.98328768  0.12204117  1
  O  O159  1  0.79551522  1.04903901  0.70142632  1
  O  O160  1  -0.00041380  0.33889746  0.22303379  1
  O  O161  1  0.00396312  0.38512932  0.75720254  1
  O  O162  1  0.01572551  0.85949798  0.20610088  1
  O  O163  1  -0.01569219  0.85430746  0.75916845  1
  O  O164  1  0.49518962  0.34867412  0.22084561  1
  O  O165  1  0.51592831  0.36861253  0.73916322  1
  O  O166  1  0.49630024  0.88853650  0.27174496  1
  O  O167  1  0.51983659  0.87019786  0.75130818  1
  O  O168  1  0.50651736  0.13661998  0.23608407  1
  O  O169  1  0.48619831  0.13557099  0.73264852  1
  O  O170  1  0.49610254  0.64147484  0.24796447  1
  O  O171  1  0.48205999  0.62062467  0.74701367  1
  O  O172  1  1.01581245  0.14569124  0.25536065  1
  O  O173  1  1.00099034  0.13361216  0.74441625  1
  O  O174  1  1.01091992  0.65644455  0.24026604  1
  O  O175  1  0.98980558  0.62968171  0.76615688  1
  O  O176  1  0.42320466  0.32460867  -0.04707269  1
  O  O177  1  0.36825127  0.26568618  0.50951644  1
  O  O178  1  0.39096476  0.77002442  0.00485446  1
  O  O179  1  0.36187618  0.75739858  0.50127432  1
  O  O180  1  0.85462474  0.23351110  0.00228011  1
  O  O181  1  0.86056164  0.26121383  0.50394868  1
  O  O182  1  0.87624031  0.75639652  0.00381855  1
  O  O183  1  0.87019130  0.77269084  0.48865650  1
  O  O184  1  0.13056517  0.25559305  0.49724881  1
  O  O185  1  0.11044799  0.24171196  0.98502878  1
  O  O186  1  0.13232353  0.73856674  0.49096358  1
  O  O187  1  0.10562292  0.73468687  0.99033501  1
  O  O188  1  0.63301022  0.25073054  0.49674201  1
  O  O189  1  0.61970081  0.24798548  0.96837302  1
  O  O190  1  0.64046799  0.72018736  0.49612485  1
  O  O191  1  0.62955891  0.74549923  1.00029467  1
  O  O192  1  0.50309880  0.22770652  0.12982097  1
  O  O193  1  0.49215693  0.25165487  0.63051431  1
  O  O194  1  0.49297246  0.76646007  0.13989205  1
  O  O195  1  0.49748757  0.71619326  0.60666009  1
  O  O196  1  0.97700229  0.22389914  0.12380910  1
  O  O197  1  0.98517708  0.26467157  0.62529906  1
  O  O198  1  1.01074765  0.79437022  0.15053971  1
  O  O199  1  1.01367835  0.74356954  0.64704593  1
  O  O200  1  0.01254526  0.25450934  0.37428640  1
  O  O201  1  0.00587571  0.26888413  0.86992969  1
  O  O202  1  0.02649768  0.76251174  0.37201482  1
  O  O203  1  0.00197404  0.75459127  0.86858580  1
  O  O204  1  0.50901405  0.24815139  0.35982637  1
  O  O205  1  0.51815344  0.24158146  0.85266641  1
  O  O206  1  0.48096077  0.76263977  0.35496311  1
  O  O207  1  0.51229305  0.76303438  0.87376711  1
  O  O208  1  0.23530854  0.14919592  0.51327713  1
  O  O209  1  0.25726970  0.11844584  0.97686724  1
  O  O210  1  0.24070132  0.62182383  0.47888302  1
  O  O211  1  0.22056994  0.61432972  1.00086162  1
  O  O212  1  0.73723317  0.14516963  0.51555233  1
  O  O213  1  0.73801925  0.13822658  0.99391689  1
  O  O214  1  0.76729296  0.54382630  0.35684439  1
  O  O215  1  0.75945859  0.63820294  0.99141660  1
  O  O216  1  0.24246484  0.36736065  0.01872291  1
  O  O217  1  0.25955092  0.37439679  0.50955250  1
  O  O218  1  0.26817188  0.87607920  -0.02289150  1
  O  O219  1  0.27945575  0.91923406  0.52248156  1
  O  O220  1  0.75020198  0.34865500  0.00774676  1
  O  O221  1  0.74926597  0.36960084  0.51134245  1
  O  O222  1  0.75475103  0.85263961  -0.00900216  1
  O  O223  1  0.73588171  0.85203021  0.50556035  1
  O  O224  1  0.09615047  0.48730935  0.27861934  1
  O  O225  1  0.12213757  0.52739851  0.72964918  1
  O  O226  1  0.14055632  1.00606867  0.24184215  1
  O  O227  1  0.17697931  1.00818919  0.69845402  1
  O  O228  1  0.61592752  0.48808490  0.22278050  1
  O  O229  1  0.62416324  0.48758402  0.74054691  1
  O  O230  1  0.70407963  1.04012046  0.30521935  1
  O  O231  1  0.65237792  0.97006585  0.72467986  1
  O  O232  1  0.36019144  -0.00455622  0.24731069  1
  O  O233  1  0.37203764  0.01550687  0.73033866  1
  O  O234  1  0.37923214  0.48806388  0.25074282  1
  O  O235  1  0.37567143  0.51374744  0.75526087  1
  O  O236  1  0.88232207  -0.00554152  0.26279269  1
  O  O237  1  0.84543247  0.00730529  0.74706609  1
  O  O238  1  0.91403647  0.51356114  0.30121603  1
  O  O239  1  0.88151053  0.50643890  0.77172977  1
  O  O240  1  0.13195421  0.36616418  0.38575592  1
  O  O241  1  0.11282621  0.36533540  0.88221539  1
  O  O242  1  0.15124166  0.86523860  0.39967259  1
  O  O243  1  0.10273186  0.85880979  0.88581307  1
  O  O244  1  0.62130676  0.36134733  0.38217972  1
  O  O245  1  0.63029282  0.37810296  0.85651419  1
  O  O246  1  0.59255503  0.86772187  0.40718294  1
  O  O247  1  0.62486279  0.87498437  0.85223023  1
  O  O248  1  0.38711150  0.10962707  0.12374562  1
  O  O249  1  0.38471196  0.14138924  0.62032738  1
  O  O250  1  0.37998634  0.65269425  0.10855899  1
  O  O251  1  0.35193080  0.63589379  0.64523936  1
  O  O252  1  0.82434982  0.14460342  0.14457140  1
  O  O253  1  0.89285735  0.14483184  0.61312437  1
  O  O254  1  0.83683085  0.61545371  0.18864517  1
  O  O255  1  0.88276900  0.59853019  0.64983194  1
  O  O256  1  0.25242085  0.25849049  0.12358959  1
  O  O257  1  0.25834866  0.26898989  0.62209400  1
  O  O258  1  0.26844882  0.76501801  0.12283015  1
  O  O259  1  0.21227598  0.81976513  0.67346016  1
  O  O260  1  0.70195016  0.24925506  0.10215041  1
  O  O261  1  0.75831322  0.26387160  0.61662914  1
  O  O262  1  0.74100339  0.76259832  0.11084441  1
  O  O263  1  0.76704097  0.67717881  0.56389185  1
  O  O264  1  0.24445896  0.25042457  0.38807035  1
  O  O265  1  0.23764507  0.25095610  0.87113737  1
  O  O266  1  0.24703866  0.73754262  0.36909530  1
  O  O267  1  0.22478174  0.75911726  0.87569753  1
  O  O268  1  0.73970927  0.25410337  0.39194288  1
  O  O269  1  0.73511284  0.25110555  0.87575799  1
  O  O270  1  0.75903101  0.74259864  0.38522245  1
  O  O271  1  0.75245600  0.73518732  0.88766167  1
  O  O272  1  0.08823417  0.17519241  0.00688322  1
  O  O273  1  0.01476837  0.13732482  0.50259283  1
  O  O274  1  0.00452441  0.61221576  0.00670776  1
  O  O275  1  0.01649444  0.63331090  0.49945689  1
  O  O276  1  0.49871919  0.11674602  0.01451706  1
  O  O277  1  0.50871916  0.13597433  0.51238184  1
  O  O278  1  0.48540418  0.53758905  -0.04964569  1
  O  O279  1  0.50355505  0.63190816  0.47941823  1
  O  O280  1  0.48360944  0.37556825  0.50475409  1
  O  O281  1  0.48109362  0.36072774  0.99147908  1
  O  O282  1  0.48055069  0.87255034  0.50293375  1
  O  O283  1  0.51090549  0.88377290  0.97668871  1
  O  O284  1  0.97773318  0.38025917  0.50119038  1
  O  O285  1  1.00152134  0.39254542  1.01852118  1
  O  O286  1  0.99412825  0.87784326  0.52647000  1
  O  O287  1  0.97754931  0.87921967  0.98560312  1
  O  O288  1  0.48157574  0.50513847  0.36748082  1
  O  O289  1  0.51172636  0.50072206  0.89335142  1
  O  O290  1  0.49549203  0.99749631  0.38721864  1
  O  O291  1  0.50380244  0.98752550  0.85324612  1
  O  O292  1  0.94093707  0.56099945  0.35843800  1
  O  O293  1  0.99669359  0.48329036  0.88772929  1
  O  O294  1  1.00222896  0.99823843  0.37027880  1
  O  O295  1  1.00205451  0.97564596  0.84954050  1
  O  O296  1  0.01744982  0.01093961  0.13527879  1
  O  O297  1  -0.00562874  0.01888294  0.64066261  1
  O  O298  1  -0.02188087  0.50030631  0.13223781  1
  O  O299  1  0.01197004  0.49496632  0.62151091  1
  O  O300  1  0.51694204  0.00394481  0.12969909  1
  O  O301  1  0.49698391  0.01774685  0.62523324  1
  O  O302  1  0.50601898  0.50629256  0.10649383  1
  O  O303  1  0.52254387  0.50252714  0.62211472  1
  O  O304  1  0.25306113  0.36028653  0.22843008  1
  O  O305  1  0.26134069  0.38033212  0.73980184  1
  O  O306  1  0.25125227  0.88205721  0.25794711  1
  O  O307  1  0.24075646  0.86274265  0.73533144  1
  O  O308  1  0.73343304  0.35250626  0.23263767  1
  O  O309  1  0.73844916  0.37067211  0.73658099  1
  O  O310  1  0.76028518  0.86514895  0.23283222  1
  O  O311  1  0.71321176  0.80019988  0.73267423  1
  O  O312  1  0.26320707  0.14314116  0.27073650  1
  O  O313  1  0.26725463  0.13697551  0.74353507  1
  O  O314  1  0.22159124  0.62373708  0.26456599  1
  O  O315  1  0.25906943  0.61785986  0.78421325  1
  O  O316  1  0.74818841  0.09740848  0.27967989  1
  O  O317  1  0.76187057  0.10995086  0.74157485  1
  O  O318  1  0.78740597  0.64282047  0.23485954  1
  O  O319  1  0.76958803  0.63259288  0.76464011  1
  O  O320  1  0.35432098  0.12757842  0.41304975  1
  O  O321  1  0.36337344  0.11790338  0.85616673  1
  O  O322  1  0.36049998  0.61290403  0.36595173  1
  O  O323  1  0.34569546  0.61263122  0.92154431  1
  O  O324  1  0.87516558  0.09315029  0.41239899  1
  O  O325  1  0.98959498  0.11010175  0.94903089  1
  O  O326  1  0.89575403  0.62425131  0.36952370  1
  O  O327  1  0.87103809  0.61048633  0.87387632  1
  O  O328  1  0.14292479  0.35148583  0.12333225  1
  O  O329  1  0.13838802  0.39361652  0.62233818  1
  O  O330  1  0.13544678  0.91109487  0.08046704  1
  O  O331  1  0.15250628  0.85696173  0.63753215  1
  O  O332  1  0.62678382  0.38453644  0.10845920  1
  O  O333  1  0.63563688  0.38395547  0.62643065  1
  O  O334  1  0.63530044  0.88601136  0.11880344  1
  O  O335  1  0.60864424  0.84897958  0.62636066  1
  O  O336  1  0.13011560  0.25040903  0.27309520  1
  O  O337  1  0.12812142  0.26637114  0.75132757  1
  O  O338  1  0.12578170  0.76305074  0.27186011  1
  O  O339  1  0.10945957  0.73075649  0.76932706  1
  O  O340  1  0.63576471  0.23809439  0.27082497  1
  O  O341  1  0.62509813  0.25797893  0.75039808  1
  O  O342  1  0.60603327  0.75845546  0.25032429  1
  O  O343  1  0.48504953  0.74429982  0.67173179  1
  O  O344  1  0.38560668  0.24698280  0.26275460  1
  O  O345  1  0.38453225  0.25359464  0.73971740  1
  O  O346  1  0.38385421  0.76609754  0.23020844  1
  O  O347  1  0.37361317  0.71396007  0.79532478  1
  O  O348  1  0.88438450  0.23452668  0.28572700  1
  O  O349  1  0.86778249  0.25642774  0.73351889  1
  O  O350  1  0.90466483  0.76959904  0.27715291  1
  O  O351  1  0.88549275  0.72999522  0.75324570  1
  O  O352  1  0.37474920  0.49539366  0.50797233  1
  O  O353  1  0.35650456  0.47722777  1.03374682  1
  O  O354  1  0.34476800  0.97348376  0.52816143  1
  O  O355  1  0.37689307  0.98971750  0.99062734  1
  O  O356  1  0.85634329  0.49203113  0.49790513  1
  O  O357  1  0.88407777  0.50580107  0.99244173  1
  O  O358  1  0.85805521  0.97540945  0.54240479  1
  O  O359  1  0.83617763  0.99231206  0.97397549  1
  O  O360  1  0.13168559  -0.02398006  0.02516778  1
  O  O361  1  0.13312288  0.02642809  0.50433841  1
  O  O362  1  0.10375753  0.51176310  0.02095708  1
  O  O363  1  0.12400138  0.51274910  0.50852208  1
  O  O364  1  0.62899612  0.00090358  -0.00234839  1
  O  O365  1  0.63846719  0.02319291  0.50097668  1
  O  O366  1  0.65444295  0.50320876  0.01749501  1
  O  O367  1  0.64151566  0.53124296  0.51251920  1
  O  O368  1  0.35217622  0.36645546  0.11993418  1
  O  O369  1  0.36881487  0.37745130  0.61957075  1
  O  O370  1  0.38379213  0.87737893  0.09849668  1
  O  O371  1  0.38374550  0.85486616  0.62649600  1
  O  O372  1  0.84253525  0.31616791  0.13877342  1
  O  O373  1  0.86196290  0.37401843  0.61958980  1
  O  O374  1  0.85716266  0.88899039  0.10039306  1
  O  O375  1  0.87504493  0.85239556  0.62861036  1
  O  O376  1  0.14068304  0.14027580  0.39155927  1
  O  O377  1  0.13675852  0.14653355  0.85755132  1
  O  O378  1  0.13135516  0.62941726  0.38607249  1
  O  O379  1  0.13255323  0.62846483  0.88558420  1
  O  O380  1  0.61370604  0.13928263  0.39608738  1
  O  O381  1  0.63282994  0.12673141  0.84561239  1
  O  O382  1  0.62127871  0.61226409  0.36972225  1
  O  O383  1  0.64956809  0.61247119  0.86650128  1
