# generated using pymatgen
data_VZnO4
_symmetry_space_group_name_H-M   'P 1'
_cell_length_a   16.89539907
_cell_length_b   16.89432793
_cell_length_c   16.89522584
_cell_angle_alpha   90.16271890
_cell_angle_beta   89.67250994
_cell_angle_gamma   90.25185627
_symmetry_Int_Tables_number   1
_chemical_formula_structural   VZnO4
_chemical_formula_sum   'V64 Zn64 O256'
_cell_volume   4822.36817687
_cell_formula_units_Z   64
loop_
 _symmetry_equiv_pos_site_id
 _symmetry_equiv_pos_as_xyz
  1  'x, y, z'
loop_
 _atom_site_type_symbol
 _atom_site_label
 _atom_site_symmetry_multiplicity
 _atom_site_fract_x
 _atom_site_fract_y
 _atom_site_fract_z
 _atom_site_occupancy
  V  V0  1  0.62094212  0.76163665  0.37203289  1
  V  V1  1  0.74523506  0.61889063  0.37908448  1
  V  V2  1  0.75090212  0.77992205  0.48837017  1
  V  V3  1  0.12727436  0.87610756  0.73181512  1
  V  V4  1  0.25519585  0.36251617  0.60920253  1
  V  V5  1  0.39796032  0.76217835  0.64008697  1
  V  V6  1  0.48761798  0.15575115  0.62397903  1
  V  V7  1  0.37475003  0.12052006  0.77440702  1
  V  V8  1  0.00436408  0.87798850  0.87241346  1
  V  V9  1  0.00762219  0.00504668  0.00101901  1
  V  V10  1  -0.01814920  -0.01728952  0.50553284  1
  V  V11  1  0.49781975  0.81365768  0.88401497  1
  V  V12  1  0.62794366  0.53683186  0.10824929  1
  V  V13  1  0.86091133  0.39241218  0.50736718  1
  V  V14  1  0.73870045  0.12078278  0.87996121  1
  V  V15  1  0.15224991  0.75161059  0.36528437  1
  V  V16  1  0.50517896  0.26733412  0.77103592  1
  V  V17  1  0.61864942  0.13556492  0.48992896  1
  V  V18  1  0.14048875  -0.00861521  0.12963523  1
  V  V19  1  0.77105193  0.00865479  0.24678552  1
  V  V20  1  0.49897710  -0.01048854  0.51470039  1
  V  V21  1  0.76675913  0.13371180  0.37372603  1
  V  V22  1  0.61636410  0.49699777  0.65529433  1
  V  V23  1  0.87817544  0.24372881  0.62000328  1
  V  V24  1  0.87681751  0.11735464  0.74477404  1
  V  V25  1  0.37731621  0.49744176  0.38729204  1
  V  V26  1  0.48658814  0.88173338  0.37022214  1
  V  V27  1  0.13193792  0.23608288  0.39137742  1
  V  V28  1  0.76350684  0.26890426  0.00768007  1
  V  V29  1  0.33336103  0.74775366  0.11380411  1
  V  V30  1  -0.01778406  0.74923163  0.74343342  1
  V  V31  1  0.87532984  0.87784659  0.01666979  1
  V  V32  1  0.54208548  0.09301000  0.11575080  1
  V  V33  1  0.37766681  0.62324954  0.74917086  1
  V  V34  1  0.76386553  0.72566943  0.00781796  1
  V  V35  1  0.12726625  0.02155012  0.61739361  1
  V  V36  1  0.12179833  0.36380783  0.26143574  1
  V  V37  1  0.88959565  0.73453941  0.13705820  1
  V  V38  1  0.00164995  0.77855524  0.26534381  1
  V  V39  1  0.13152844  0.13799841  -0.00514182  1
  V  V40  1  0.38523371  0.25680303  0.13427105  1
  V  V41  1  0.27474884  0.22799222  0.49418665  1
  V  V42  1  0.25235868  0.37370890  0.12852328  1
  V  V43  1  -0.00560444  0.13820701  0.13887859  1
  V  V44  1  0.37302814  0.10956781  0.24062180  1
  V  V45  1  0.10034836  0.49956793  0.13828385  1
  V  V46  1  0.01203595  0.23935938  0.76479778  1
  V  V47  1  0.86768065  -0.00454526  0.86955224  1
  V  V48  1  0.25699279  0.51257197  0.25104673  1
  V  V49  1  0.50195639  0.74807093  0.21737601  1
  V  V50  1  0.25718960  0.25516394  -0.00984089  1
  V  V51  1  0.01112873  0.38437306  0.40377010  1
  V  V52  1  0.74853520  0.39272381  0.15695921  1
  V  V53  1  0.88319211  0.60394434  0.27340878  1
  V  V54  1  0.13018409  0.36727324  0.76606178  1
  V  V55  1  0.11450747  0.62876312  0.50692577  1
  V  V56  1  0.36473248  0.88643543  -0.00628300  1
  V  V57  1  0.62904154  0.89242620  0.23121390  1
  V  V58  1  0.86677939  0.75477385  0.61998169  1
  V  V59  1  0.51274851  0.50563044  0.50706676  1
  V  V60  1  0.24617256  0.50303851  0.72230295  1
  V  V61  1  0.25587546  0.76192488  0.53048954  1
  V  V62  1  0.73421550  0.89186213  0.64998167  1
  V  V63  1  0.12221272  0.72748077  0.87616225  1
  Zn  Zn64  1  0.19150812  0.17747100  0.18983932  1
  Zn  Zn65  1  0.19883070  0.18674168  0.68720592  1
  Zn  Zn66  1  0.16360125  0.68327058  0.17990013  1
  Zn  Zn67  1  0.18000854  0.69453126  0.69436537  1
  Zn  Zn68  1  0.71602100  0.18862832  0.17958692  1
  Zn  Zn69  1  0.66472202  0.23298039  0.63969132  1
  Zn  Zn70  1  0.70124911  0.69709583  0.19715490  1
  Zn  Zn71  1  0.67913633  0.69087512  0.66094033  1
  Zn  Zn72  1  0.31344986  0.31460338  0.31603392  1
  Zn  Zn73  1  0.31663825  0.30613525  0.79493805  1
  Zn  Zn74  1  0.32900862  0.68120989  0.29001223  1
  Zn  Zn75  1  0.30378492  0.81240052  0.81337227  1
  Zn  Zn76  1  0.81977785  0.31515730  0.32339668  1
  Zn  Zn77  1  0.80803879  0.28683810  0.80894541  1
  Zn  Zn78  1  0.81516909  0.83308914  0.31107224  1
  Zn  Zn79  1  0.78312112  0.78644673  0.81122091  1
  Zn  Zn80  1  0.19428293  0.44794081  0.43839784  1
  Zn  Zn81  1  0.18495737  0.44603320  0.94399543  1
  Zn  Zn82  1  0.16624513  0.91656364  0.45977563  1
  Zn  Zn83  1  0.18856062  0.95112290  0.92253825  1
  Zn  Zn84  1  0.69771221  0.44530826  0.46009148  1
  Zn  Zn85  1  0.68466038  0.42903807  0.98412325  1
  Zn  Zn86  1  0.67624495  0.95469100  0.42615756  1
  Zn  Zn87  1  0.62256320  0.88954606  0.80049977  1
  Zn  Zn88  1  0.32001336  0.06875682  0.05606315  1
  Zn  Zn89  1  0.32044727  0.04117245  0.57578022  1
  Zn  Zn90  1  0.28637930  0.56359142  0.05075470  1
  Zn  Zn91  1  0.30158062  0.57601104  0.56488054  1
  Zn  Zn92  1  0.81319151  0.07003570  0.05861690  1
  Zn  Zn93  1  0.79930121  0.06094151  0.56157598  1
  Zn  Zn94  1  0.81787526  0.54731496  0.09746694  1
  Zn  Zn95  1  0.79283555  0.57525839  0.56577469  1
  Zn  Zn96  1  0.42993607  0.47448874  0.14789241  1
  Zn  Zn97  1  0.43500496  0.43736174  0.68201439  1
  Zn  Zn98  1  0.44207794  0.92932486  0.16557911  1
  Zn  Zn99  1  0.46325359  0.93763359  0.72464064  1
  Zn  Zn100  1  0.92506050  0.41117987  0.20285772  1
  Zn  Zn101  1  0.96079983  0.42021656  0.67231877  1
  Zn  Zn102  1  0.94960755  0.95220030  0.19144194  1
  Zn  Zn103  1  0.93514821  0.93226218  0.67854612  1
  Zn  Zn104  1  0.07271436  0.06089289  0.30826344  1
  Zn  Zn105  1  0.07899959  0.05882327  0.81156399  1
  Zn  Zn106  1  0.06778223  0.56681626  0.32497695  1
  Zn  Zn107  1  0.05919236  0.56071841  0.76477193  1
  Zn  Zn108  1  0.53717782  0.07574317  0.30821325  1
  Zn  Zn109  1  0.60050118  0.08603571  0.73907428  1
  Zn  Zn110  1  0.51858616  0.61098736  0.35831787  1
  Zn  Zn111  1  0.53694898  0.56378382  0.83117040  1
  Zn  Zn112  1  0.40006505  0.12737993  0.44625339  1
  Zn  Zn113  1  0.44939077  0.19005822  0.94888756  1
  Zn  Zn114  1  0.39916550  0.66777918  0.46618504  1
  Zn  Zn115  1  0.37688507  0.69203195  0.92735270  1
  Zn  Zn116  1  0.94809755  0.19014676  0.42872118  1
  Zn  Zn117  1  0.93715773  0.18489352  0.94043645  1
  Zn  Zn118  1  0.93328238  0.69300874  0.43960626  1
  Zn  Zn119  1  0.91708214  0.69818543  0.92431018  1
  Zn  Zn120  1  0.06482094  0.31324773  0.06767151  1
  Zn  Zn121  1  0.07409637  0.29700008  0.57664936  1
  Zn  Zn122  1  0.06540483  0.80809854  0.06036243  1
  Zn  Zn123  1  0.05567740  0.80418028  0.54915682  1
  Zn  Zn124  1  0.59296366  0.28981926  0.09603910  1
  Zn  Zn125  1  0.55332518  0.32951479  0.55452524  1
  Zn  Zn126  1  0.58424000  0.82250987  0.03437373  1
  Zn  Zn127  1  0.56255726  0.81426723  0.55949057  1
  O  O128  1  0.11834394  0.12036509  0.11798673  1
  O  O129  1  0.12267500  0.12124965  0.62925676  1
  O  O130  1  0.11356653  0.59854073  0.12243810  1
  O  O131  1  0.12742981  0.64146858  0.60817078  1
  O  O132  1  0.64085905  0.11642906  0.12546868  1
  O  O133  1  0.60109680  0.12735965  0.62861721  1
  O  O134  1  0.63425473  0.63462617  0.12984046  1
  O  O135  1  0.62068416  0.60655047  0.62354472  1
  O  O136  1  0.37117302  0.39863146  0.36704594  1
  O  O137  1  0.37977648  0.39626498  0.88265019  1
  O  O138  1  0.39257756  0.86319213  0.36833126  1
  O  O139  1  0.38670672  0.85074467  0.88397568  1
  O  O140  1  0.89799237  0.36429589  0.40702461  1
  O  O141  1  0.86444376  0.39824354  0.82196578  1
  O  O142  1  0.88030695  0.90576851  0.36593047  1
  O  O143  1  0.88863546  0.88758629  0.88004108  1
  O  O144  1  0.26235926  -0.04630117  0.32741860  1
  O  O145  1  0.18816522  0.03014255  0.84414073  1
  O  O146  1  0.25987110  0.50466799  0.35702892  1
  O  O147  1  0.33778220  0.45472934  0.89570266  1
  O  O148  1  0.73620660  0.02350214  0.35860209  1
  O  O149  1  0.76923575  -0.00276691  0.86511675  1
  O  O150  1  0.73222738  0.52005481  0.37981967  1
  O  O151  1  0.70978901  0.42802135  0.83166135  1
  O  O152  1  0.23453577  0.48721802  0.13277212  1
  O  O153  1  0.24134994  0.48949394  0.62095219  1
  O  O154  1  0.23881035  1.00921249  0.11413777  1
  O  O155  1  0.22692904  1.00088695  0.62028108  1
  O  O156  1  0.72056218  0.50810054  0.15676919  1
  O  O157  1  0.72066124  0.52234352  0.63868296  1
  O  O158  1  0.76271905  1.01378201  0.14679530  1
  O  O159  1  0.74328750  0.99158134  0.63626881  1
  O  O160  1  0.02062380  0.37286253  0.27313366  1
  O  O161  1  0.02423786  0.36341380  0.75343521  1
  O  O162  1  0.00897417  0.87710259  0.25474749  1
  O  O163  1  0.00273432  0.87178740  0.75581216  1
  O  O164  1  0.50335824  0.38472290  0.25164758  1
  O  O165  1  0.48174478  0.36722080  0.75927094  1
  O  O166  1  0.50801526  0.86415864  0.25087369  1
  O  O167  1  0.50531962  0.84040286  0.78266319  1
  O  O168  1  0.49921091  0.12362357  0.20887992  1
  O  O169  1  0.49288714  0.14522382  0.73603427  1
  O  O170  1  0.51339267  0.65380746  0.25042864  1
  O  O171  1  0.47787011  0.61846154  0.75409480  1
  O  O172  1  1.00580711  0.12376219  0.23867200  1
  O  O173  1  0.99964184  0.13254368  0.76129212  1
  O  O174  1  0.98305114  0.63176490  0.27530401  1
  O  O175  1  0.98783151  0.65184941  0.74236386  1
  O  O176  1  0.36011115  0.25136502  0.01475146  1
  O  O177  1  0.37246530  0.24273536  0.47981530  1
  O  O178  1  0.34297977  0.75810362  0.00809715  1
  O  O179  1  0.36833835  0.75614961  0.52961868  1
  O  O180  1  0.85239666  0.21668732  0.00913242  1
  O  O181  1  0.89002642  0.23240862  0.52051130  1
  O  O182  1  0.89800609  0.76004367  0.02674817  1
  O  O183  1  0.86053734  0.76175967  0.50822891  1
  O  O184  1  0.13904410  0.23909300  0.49544706  1
  O  O185  1  0.13811264  0.24456391  1.00857920  1
  O  O186  1  0.14200935  0.74997434  0.48966308  1
  O  O187  1  0.10097141  0.73904119  0.97629975  1
  O  O188  1  0.62214506  0.23748435  0.52166707  1
  O  O189  1  0.66338709  0.24443943  1.01563940  1
  O  O190  1  0.63817526  0.76419770  0.48212823  1
  O  O191  1  0.66611576  0.73962033  1.00560181  1
  O  O192  1  0.48106429  0.28090539  0.11738952  1
  O  O193  1  0.48357032  0.25545963  0.61647605  1
  O  O194  1  0.51887857  0.75184843  0.12060881  1
  O  O195  1  0.49713555  0.74763698  0.62568657  1
  O  O196  1  1.00141329  0.23882615  0.12181263  1
  O  O197  1  0.99090128  0.25160709  0.64782320  1
  O  O198  1  0.99750951  0.75492205  0.14530366  1
  O  O199  1  0.97551933  0.76822270  0.62970380  1
  O  O200  1  0.02536855  0.26243110  0.38756152  1
  O  O201  1  -0.01065502  0.25427436  0.86359353  1
  O  O202  1  -0.01551376  0.76552451  0.36467286  1
  O  O203  1  -0.00750376  0.75928031  0.85997794  1
  O  O204  1  0.58214960  0.25309780  0.28225762  1
  O  O205  1  0.51045000  0.24911428  0.87050616  1
  O  O206  1  0.51735392  0.76163679  0.37537907  1
  O  O207  1  0.48984885  0.71215375  0.89613097  1
  O  O208  1  0.27331324  0.12688477  0.49485788  1
  O  O209  1  0.24229125  0.14214944  1.00252289  1
  O  O210  1  0.25352113  0.65674297  0.49758737  1
  O  O211  1  0.23169589  0.54473224  0.95771050  1
  O  O212  1  0.72886272  0.11772213  0.48691034  1
  O  O213  1  0.73740803  0.09601124  0.97807727  1
  O  O214  1  0.74898408  0.64645379  0.48208324  1
  O  O215  1  0.78397803  0.62617026  1.02014965  1
  O  O216  1  0.23624667  0.36551112  0.02040386  1
  O  O217  1  0.24503086  0.37181781  0.50820233  1
  O  O218  1  0.26380032  0.88825065  -0.02672478  1
  O  O219  1  0.25491542  0.85814761  0.49606982  1
  O  O220  1  0.77517647  0.36476745  -0.02802287  1
  O  O221  1  0.76374556  0.36480139  0.49416080  1
  O  O222  1  0.78020651  0.85615681  0.00062401  1
  O  O223  1  0.74622088  0.88015107  0.49247146  1
  O  O224  1  0.13233048  0.49372200  0.25021851  1
  O  O225  1  0.14436079  0.48129139  0.75956918  1
  O  O226  1  0.12646579  0.99928104  0.23126431  1
  O  O227  1  0.10597921  0.98380582  0.72308811  1
  O  O228  1  0.55488351  0.41703825  0.29112436  1
  O  O229  1  0.59765749  0.50181815  0.75558466  1
  O  O230  1  0.61132201  0.99049518  0.24813025  1
  O  O231  1  0.56794940  0.98206015  0.76669651  1
  O  O232  1  0.38070390  0.01086922  0.22127419  1
  O  O233  1  0.38879234  0.02091426  0.75444797  1
  O  O234  1  0.35881597  0.50643187  0.23604423  1
  O  O235  1  0.35423370  0.50766750  0.73895254  1
  O  O236  1  0.87035675  -0.00558198  0.26314276  1
  O  O237  1  0.89241316  0.00828227  0.76070660  1
  O  O238  1  0.88048379  0.50613931  0.26783751  1
  O  O239  1  0.85834652  0.44005749  0.75985514  1
  O  O240  1  0.12749217  0.37219292  0.37598725  1
  O  O241  1  0.14186664  0.37355633  0.86650877  1
  O  O242  1  0.13117346  0.85172878  0.37426358  1
  O  O243  1  0.10998343  0.86955067  0.86726723  1
  O  O244  1  0.60141819  0.29228923  0.34178868  1
  O  O245  1  0.57537512  0.38674716  0.92420666  1
  O  O246  1  0.62097048  0.87250446  0.36086185  1
  O  O247  1  0.59976037  0.84102344  0.90381278  1
  O  O248  1  0.37107834  0.14790607  0.12939429  1
  O  O249  1  0.39098019  0.11965651  0.62690792  1
  O  O250  1  0.34085629  0.64454166  0.10834488  1
  O  O251  1  0.36640176  0.63728516  0.63858024  1
  O  O252  1  0.89635598  0.11462607  0.12323159  1
  O  O253  1  0.87435875  0.12525536  0.63898718  1
  O  O254  1  0.88453881  0.63140054  0.15449388  1
  O  O255  1  0.85020945  0.65555533  0.62726556  1
  O  O256  1  0.25460570  0.26484397  0.12983372  1
  O  O257  1  0.25663667  0.25114966  0.60370859  1
  O  O258  1  0.23658870  0.76121806  0.13796918  1
  O  O259  1  0.25108922  0.76365095  0.63116275  1
  O  O260  1  0.76574951  0.28493320  0.12366464  1
  O  O261  1  0.77724615  0.25157123  0.63993608  1
  O  O262  1  0.78182398  0.74854275  0.12206695  1
  O  O263  1  0.74596527  0.76840988  0.60739449  1
  O  O264  1  0.24451171  0.25752056  0.39051793  1
  O  O265  1  0.26332512  0.26806992  0.89286705  1
  O  O266  1  0.25035051  0.74821339  0.34735665  1
  O  O267  1  0.22178800  0.74124165  0.86264056  1
  O  O268  1  0.75135159  0.23519543  0.36841979  1
  O  O269  1  0.75605153  0.22752476  0.88868677  1
  O  O270  1  0.74780918  0.76397149  0.38018949  1
  O  O271  1  0.80591279  0.73031038  0.90618218  1
  O  O272  1  0.01166528  0.12150802  0.00632155  1
  O  O273  1  0.00826567  0.09105620  0.46036920  1
  O  O274  1  -0.02536853  0.60501321  -0.00118484  1
  O  O275  1  0.01299058  0.64446626  0.50163476  1
  O  O276  1  0.50691605  0.14152635  0.03239979  1
  O  O277  1  0.50420154  0.12005279  0.51507459  1
  O  O278  1  0.45293897  0.55853042  -0.01537565  1
  O  O279  1  0.49739817  0.61172033  0.48247413  1
  O  O280  1  0.49057186  0.40430671  0.49907147  1
  O  O281  1  0.52395319  0.36569407  0.97300492  1
  O  O282  1  0.50587397  0.88458306  0.48505895  1
  O  O283  1  0.48115093  0.85610898  0.98687181  1
  O  O284  1  1.01763720  0.37650573  0.50532615  1
  O  O285  1  1.03566572  0.40941141  1.00960476  1
  O  O286  1  0.99654382  0.88264312  0.49152217  1
  O  O287  1  0.99664063  0.88522122  0.99169427  1
  O  O288  1  0.48515190  0.50156207  0.38325069  1
  O  O289  1  0.49262405  0.51737891  0.92861615  1
  O  O290  1  0.49972003  0.98436863  0.37205114  1
  O  O291  1  0.51846413  1.01167541  0.89101761  1
  O  O292  1  1.01213265  0.48260433  0.38552875  1
  O  O293  1  0.95712286  0.52920906  0.85605887  1
  O  O294  1  1.00270466  1.03119412  0.40004816  1
  O  O295  1  1.00269975  0.99533839  0.88509906  1
  O  O296  1  0.01265984  0.00980106  0.11289262  1
  O  O297  1  0.00427650  -0.00377021  0.61091757  1
  O  O298  1  0.00319772  0.48398184  0.15322492  1
  O  O299  1  0.00726572  0.51793343  0.67368757  1
  O  O300  1  0.51867947  -0.00645569  0.10643774  1
  O  O301  1  0.49710275  -0.01938468  0.61259992  1
  O  O302  1  0.53668126  0.50250502  0.14074396  1
  O  O303  1  0.50567924  0.50727855  0.61749013  1
  O  O304  1  0.24230215  0.38653120  0.24532312  1
  O  O305  1  0.24877086  0.38084713  0.74373374  1
  O  O306  1  0.26039989  0.91128144  0.26923655  1
  O  O307  1  0.22455840  0.87438886  0.75620787  1
  O  O308  1  0.74520816  0.38402828  0.25623910  1
  O  O309  1  0.70664295  0.36598117  0.79101344  1
  O  O310  1  0.73700111  0.89799146  0.25300910  1
  O  O311  1  0.72895481  0.87206607  0.75571184  1
  O  O312  1  0.27302029  0.12614876  0.25307494  1
  O  O313  1  0.27575247  0.14146889  0.75410813  1
  O  O314  1  0.24092741  0.61448602  0.24049435  1
  O  O315  1  0.23737505  0.60385581  0.73691333  1
  O  O316  1  0.75921865  0.12180829  0.26049105  1
  O  O317  1  0.77762907  0.12359282  0.76364829  1
  O  O318  1  0.77170188  0.63959039  0.27015120  1
  O  O319  1  0.73611763  0.59497334  0.83381428  1
  O  O320  1  0.41731007  0.12408243  0.33530724  1
  O  O321  1  0.38666728  0.12640597  0.87567250  1
  O  O322  1  0.38435171  0.61592270  0.36366516  1
  O  O323  1  0.34959877  0.61951399  0.84965863  1
  O  O324  1  0.86479514  0.12659732  0.38417856  1
  O  O325  1  0.87597389  0.10701374  0.87287279  1
  O  O326  1  0.86177723  0.62427368  0.37978453  1
  O  O327  1  0.89946929  0.57569287  0.85907074  1
  O  O328  1  0.12853789  0.37640321  0.14823785  1
  O  O329  1  0.14647713  0.35865285  0.64441971  1
  O  O330  1  0.12464367  0.89262820  0.10917375  1
  O  O331  1  0.11959155  0.85982050  0.63256717  1
  O  O332  1  0.65436345  0.39173328  0.09925903  1
  O  O333  1  0.61966564  0.39797090  0.62569025  1
  O  O334  1  0.62786979  0.87452771  0.13253601  1
  O  O335  1  0.63699314  0.87198409  0.62528229  1
  O  O336  1  0.14201403  0.26189075  0.26623926  1
  O  O337  1  0.12121886  0.24946691  0.75691306  1
  O  O338  1  0.10691976  0.74287817  0.26208416  1
  O  O339  1  0.10360321  0.76116570  0.75506914  1
  O  O340  1  0.63347319  0.26885036  0.21119198  1
  O  O341  1  0.60261656  0.25837726  0.73322280  1
  O  O342  1  0.62572063  0.76931955  0.25447023  1
  O  O343  1  0.69024214  0.71428544  0.77379644  1
  O  O344  1  0.37625519  0.25713977  0.23697908  1
  O  O345  1  0.39467904  0.23876083  0.75678087  1
  O  O346  1  0.39058063  0.74966771  0.21601457  1
  O  O347  1  0.36548628  0.73573451  0.74502152  1
  O  O348  1  0.89006886  0.30939418  0.23655638  1
  O  O349  1  0.88960360  0.23457635  0.74761314  1
  O  O350  1  0.88591953  0.76682340  0.24132308  1
  O  O351  1  0.87564516  0.76176239  0.74141636  1
  O  O352  1  0.36386337  0.50952130  0.48855554  1
  O  O353  1  0.40369014  0.50857028  1.02859944  1
  O  O354  1  0.39713872  1.01517393  0.49234496  1
  O  O355  1  0.38114858  0.98709515  1.00189691  1
  O  O356  1  0.85846388  0.49179078  0.51552212  1
  O  O357  1  0.93461316  0.54411669  1.01376172  1
  O  O358  1  0.88249018  0.99947530  0.51309482  1
  O  O359  1  0.88438736  0.99258922  0.99064410  1
  O  O360  1  0.12129859  0.01535232  0.00364336  1
  O  O361  1  0.11267775  -0.00344587  0.51274697  1
  O  O362  1  0.09161513  0.46751904  0.02441818  1
  O  O363  1  0.13789214  0.53063747  0.49088860  1
  O  O364  1  0.56372038  0.01091902  -0.05346404  1
  O  O365  1  0.60594673  0.01727071  0.49599566  1
  O  O366  1  0.64111611  0.52905187  0.00479960  1
  O  O367  1  0.61407107  0.50498501  0.49791091  1
  O  O368  1  0.35792028  0.37770215  0.12811217  1
  O  O369  1  0.35352558  0.37755648  0.62643080  1
  O  O370  1  0.37203001  0.86073932  0.10355489  1
  O  O371  1  0.39078276  0.86078162  0.65657876  1
  O  O372  1  0.84046053  0.43198483  0.11834866  1
  O  O373  1  0.88669458  0.36161736  0.60844896  1
  O  O374  1  0.88566993  0.88569504  0.11669039  1
  O  O375  1  0.84508694  0.86914552  0.63640793  1
  O  O376  1  0.13371816  0.13960901  0.36762652  1
  O  O377  1  0.11990956  0.13630628  0.89581342  1
  O  O378  1  0.12286367  0.64736126  0.38600058  1
  O  O379  1  0.10164163  0.63083682  0.85100961  1
  O  O380  1  0.60306870  0.13721847  0.39058041  1
  O  O381  1  0.64615811  0.11295313  0.84432894  1
  O  O382  1  0.63845488  0.65321714  0.36224309  1
  O  O383  1  0.67808837  0.64078738  0.82968588  1
