# generated using pymatgen
data_VZnO4
_symmetry_space_group_name_H-M   'P 1'
_cell_length_a   16.88527509
_cell_length_b   16.90692303
_cell_length_c   16.88095898
_cell_angle_alpha   89.96981375
_cell_angle_beta   89.75763397
_cell_angle_gamma   89.89872394
_symmetry_Int_Tables_number   1
_chemical_formula_structural   VZnO4
_chemical_formula_sum   'V64 Zn64 O256'
_cell_volume   4819.09189392
_cell_formula_units_Z   64
loop_
 _symmetry_equiv_pos_site_id
 _symmetry_equiv_pos_as_xyz
  1  'x, y, z'
loop_
 _atom_site_type_symbol
 _atom_site_label
 _atom_site_symmetry_multiplicity
 _atom_site_fract_x
 _atom_site_fract_y
 _atom_site_fract_z
 _atom_site_occupancy
  V  V0  1  0.24717167  0.75923511  0.00824610  1
  V  V1  1  0.86213278  0.59763828  0.26100132  1
  V  V2  1  0.00224180  0.84088292  0.37502488  1
  V  V3  1  0.00004925  0.87506674  0.87842290  1
  V  V4  1  0.85661941  0.50064189  0.86121089  1
  V  V5  1  0.36047015  0.61729954  0.75419836  1
  V  V6  1  0.36022786  0.11705367  0.75458305  1
  V  V7  1  0.50095249  0.87981400  0.37070283  1
  V  V8  1  0.49152846  0.13297028  0.63099390  1
  V  V9  1  0.76751022  0.38465152  0.60556091  1
  V  V10  1  0.13309644  0.72639078  0.87418614  1
  V  V11  1  0.12497489  0.49993922  0.63907410  1
  V  V12  1  0.86180593  0.74018296  0.12910183  1
  V  V13  1  0.75955135  0.74237888  0.50707148  1
  V  V14  1  0.01805703  0.24352859  0.23627378  1
  V  V15  1  0.51613208  -0.03219956  -0.00222215  1
  V  V16  1  0.64615400  0.89403385  0.24738890  1
  V  V17  1  0.61713884  0.36617721  0.25285981  1
  V  V18  1  0.00025626  0.51005862  -0.00376809  1
  V  V19  1  0.38248895  0.25293872  0.12257934  1
  V  V20  1  0.00772281  0.36458400  0.86514036  1
  V  V21  1  0.37470597  0.64495863  0.25219598  1
  V  V22  1  0.63287860  0.03628775  0.11623066  1
  V  V23  1  0.74878482  0.12448294  0.85811487  1
  V  V24  1  0.13762842  0.88017577  0.75905981  1
  V  V25  1  0.87297824  0.00664023  0.86491234  1
  V  V26  1  0.25301785  0.87619990  0.60641585  1
  V  V27  1  0.63383305  0.75257605  0.37039721  1
  V  V28  1  0.61864209  0.49998224  0.63953068  1
  V  V29  1  0.36633823  0.01023127  0.36951958  1
  V  V30  1  -0.01018248  0.62215907  0.61471073  1
  V  V31  1  0.35689861  0.26252782  0.62550450  1
  V  V32  1  0.50312664  0.73409562  0.75800686  1
  V  V33  1  0.49360126  -0.00325471  0.50641307  1
  V  V34  1  0.75080403  0.38617979  0.13275788  1
  V  V35  1  0.85283306  0.86868061  -0.00142766  1
  V  V36  1  0.12345774  0.12323038  0.47715061  1
  V  V37  1  0.13045541  0.39409308  0.24466220  1
  V  V38  1  0.74221533  0.89071213  0.62685313  1
  V  V39  1  0.87649233  0.24093799  0.13000119  1
  V  V40  1  -0.00923450  0.22800416  0.74616977  1
  V  V41  1  -0.01098420  0.37674313  0.37309977  1
  V  V42  1  0.61642148  0.51243284  0.13397273  1
  V  V43  1  0.62502188  0.25805745  0.86402778  1
  V  V44  1  0.76556243  0.13299607  0.37598957  1
  V  V45  1  0.74344039  0.63997682  0.86406716  1
  V  V46  1  0.62874203  0.12106739  0.51067311  1
  V  V47  1  0.48715364  0.38390290  0.38818467  1
  V  V48  1  0.88764067  0.88000932  0.50661909  1
  V  V49  1  0.25610967  0.51022206  0.27519818  1
  V  V50  1  0.49293187  0.49662551  -0.00377271  1
  V  V51  1  0.11917202  0.88269542  0.24510915  1
  V  V52  1  0.86533331  0.37758556  -0.00686283  1
  V  V53  1  0.23384485  0.13161089  0.87997762  1
  V  V54  1  0.74195845  0.23924281  0.00470655  1
  V  V55  1  0.62282874  0.63204622  -0.00776722  1
  V  V56  1  0.25080663  0.24749692  0.47837639  1
  V  V57  1  0.00520429  0.00553503  0.01432339  1
  V  V58  1  0.11837464  0.00732238  0.62329445  1
  V  V59  1  0.61908500  0.62264706  0.50210117  1
  V  V60  1  0.37880194  0.74758070  0.60836869  1
  V  V61  1  0.49361226  0.37153744  0.86793606  1
  V  V62  1  -0.00747983  0.73727080  0.75386453  1
  V  V63  1  0.61634112  0.24892675  0.39006954  1
  Zn  Zn64  1  0.17984053  0.22770755  0.15253053  1
  Zn  Zn65  1  0.18120544  0.19296301  0.69390173  1
  Zn  Zn66  1  0.23701500  0.73072348  0.21901679  1
  Zn  Zn67  1  0.19225586  0.67932020  0.65853468  1
  Zn  Zn68  1  0.70106294  0.18934315  0.20163084  1
  Zn  Zn69  1  0.68248419  0.18806966  0.68577858  1
  Zn  Zn70  1  0.69432008  0.69342377  0.18659370  1
  Zn  Zn71  1  0.68262120  0.69664062  0.68117688  1
  Zn  Zn72  1  0.30654208  0.31637534  0.31201345  1
  Zn  Zn73  1  0.31895035  0.29314873  0.82073824  1
  Zn  Zn74  1  0.32639364  0.86247843  0.28497491  1
  Zn  Zn75  1  0.31016805  0.79373739  0.80534921  1
  Zn  Zn76  1  0.80479333  0.30737195  0.31602002  1
  Zn  Zn77  1  0.81598655  0.30601651  0.80341888  1
  Zn  Zn78  1  0.81599956  0.81533008  0.31666176  1
  Zn  Zn79  1  0.80882752  0.81854820  0.80809213  1
  Zn  Zn80  1  0.17875835  0.42302326  0.43521055  1
  Zn  Zn81  1  0.17818442  0.41801030  0.95109200  1
  Zn  Zn82  1  0.17776173  0.94000940  0.43452648  1
  Zn  Zn83  1  0.19200771  0.94300978  0.94725558  1
  Zn  Zn84  1  0.66001237  0.41551882  0.47108896  1
  Zn  Zn85  1  0.68102613  0.44105032  0.94133364  1
  Zn  Zn86  1  0.69548439  0.93936894  0.43827816  1
  Zn  Zn87  1  0.67559893  0.95871725  0.93856425  1
  Zn  Zn88  1  0.36169502  0.02585942  -0.04081618  1
  Zn  Zn89  1  0.30489132  0.06166284  0.56011755  1
  Zn  Zn90  1  0.34209321  0.60703505  0.06372946  1
  Zn  Zn91  1  0.32904020  0.53583110  0.60771038  1
  Zn  Zn92  1  0.82219046  0.05320418  0.06355260  1
  Zn  Zn93  1  0.80760082  0.04758181  0.52493443  1
  Zn  Zn94  1  0.80611823  0.56694348  0.05364783  1
  Zn  Zn95  1  0.80546597  0.56333144  0.68424336  1
  Zn  Zn96  1  0.43603247  0.44745450  0.19602712  1
  Zn  Zn97  1  0.44638405  0.43350921  0.68776713  1
  Zn  Zn98  1  0.46466882  0.98518232  0.20378582  1
  Zn  Zn99  1  0.42650730  0.94132122  0.67965200  1
  Zn  Zn100  1  0.93713342  0.45397887  0.19433486  1
  Zn  Zn101  1  0.94616291  0.43430355  0.68016095  1
  Zn  Zn102  1  0.96054435  0.88277303  0.16159986  1
  Zn  Zn103  1  0.93943059  0.93062735  0.68929454  1
  Zn  Zn104  1  0.08971007  0.07416003  0.27926629  1
  Zn  Zn105  1  0.06201540  0.05795092  0.81483931  1
  Zn  Zn106  1  0.04122285  0.55369257  0.30570151  1
  Zn  Zn107  1  0.06075071  0.54808000  0.81174922  1
  Zn  Zn108  1  0.56775487  0.06759299  0.31701620  1
  Zn  Zn109  1  0.55405749  0.07934197  0.82284336  1
  Zn  Zn110  1  0.55643319  0.56713923  0.32444761  1
  Zn  Zn111  1  0.55685966  0.55956113  0.81400946  1
  Zn  Zn112  1  0.43514297  0.18780199  0.43944720  1
  Zn  Zn113  1  0.44502202  0.18242952  0.93827063  1
  Zn  Zn114  1  0.44710958  0.69028838  0.42713004  1
  Zn  Zn115  1  0.43211116  0.68018022  0.92852364  1
  Zn  Zn116  1  0.95505993  0.21509089  0.44210562  1
  Zn  Zn117  1  0.93834966  0.18676623  0.94133285  1
  Zn  Zn118  1  0.93059041  0.67951590  0.43334828  1
  Zn  Zn119  1  0.93026540  0.68694376  0.93064248  1
  Zn  Zn120  1  0.03926087  0.36169698  0.07998117  1
  Zn  Zn121  1  0.06956375  0.31008481  0.55738477  1
  Zn  Zn122  1  0.05917568  0.79092440  0.05775368  1
  Zn  Zn123  1  0.06572217  0.80766625  0.57139205  1
  Zn  Zn124  1  0.56669527  0.32018390  0.05879003  1
  Zn  Zn125  1  0.55377191  0.31772632  0.57345410  1
  Zn  Zn126  1  0.67193285  0.82168168  0.05024496  1
  Zn  Zn127  1  0.56524308  0.81149856  0.56798859  1
  O  O128  1  0.13662714  0.20092631  0.04437541  1
  O  O129  1  0.12814434  0.10581646  0.63703582  1
  O  O130  1  0.20084138  0.54363335  0.09166050  1
  O  O131  1  0.10159991  0.61479482  0.64033468  1
  O  O132  1  0.62610149  0.13419611  0.13768930  1
  O  O133  1  0.60799921  0.13355981  0.61866663  1
  O  O134  1  0.62830760  0.61562176  0.11665061  1
  O  O135  1  0.63454977  0.60965034  0.61181137  1
  O  O136  1  0.39059052  0.36644089  0.36580121  1
  O  O137  1  0.39571755  0.35335505  0.87843983  1
  O  O138  1  0.39800613  0.87829841  0.38036671  1
  O  O139  1  0.40313171  0.87684620  0.83168713  1
  O  O140  1  0.88893651  0.36487342  0.35841344  1
  O  O141  1  0.86116649  0.38317753  0.87929940  1
  O  O142  1  0.89739136  0.86469404  0.38311767  1
  O  O143  1  0.87782852  0.88605364  0.87827861  1
  O  O144  1  0.26891426  -0.00903391  0.38664560  1
  O  O145  1  0.26965517  0.00852302  0.89307205  1
  O  O146  1  0.25015788  0.50124074  0.37350029  1
  O  O147  1  0.25956691  0.45596082  0.84570317  1
  O  O148  1  0.75971969  0.03217245  0.40833654  1
  O  O149  1  0.75648257  0.01583599  0.87569621  1
  O  O150  1  0.79037428  0.49148091  0.41362250  1
  O  O151  1  0.75369747  0.49906572  0.87091005  1
  O  O152  1  0.26402791  0.52907022  0.14009898  1
  O  O153  1  0.21940121  0.52638806  0.60439772  1
  O  O154  1  0.25155795  1.06967992  0.15556528  1
  O  O155  1  0.24063853  0.98324074  0.62326794  1
  O  O156  1  0.73511963  0.48881916  0.11774951  1
  O  O157  1  0.74131106  0.48885586  0.62554125  1
  O  O158  1  0.73241144  1.01059654  0.11813861  1
  O  O159  1  0.76337851  0.99030701  0.61451143  1
  O  O160  1  0.01177272  0.37988507  0.24914563  1
  O  O161  1  -0.00971957  0.37383839  0.76500048  1
  O  O162  1  0.00666391  0.87038148  0.26655620  1
  O  O163  1  0.00824485  0.86426206  0.76307020  1
  O  O164  1  0.51529693  0.38187937  0.25777177  1
  O  O165  1  0.50321188  0.37564965  0.76754840  1
  O  O166  1  0.51685940  0.88855822  0.26856252  1
  O  O167  1  0.45895267  0.87411470  0.77807384  1
  O  O168  1  0.48904290  0.09079445  0.24192315  1
  O  O169  1  0.49505144  0.12258388  0.73472207  1
  O  O170  1  0.45317547  0.63391635  0.32107190  1
  O  O171  1  0.49262270  0.62983383  0.74771422  1
  O  O172  1  1.02745372  0.14465701  0.21768004  1
  O  O173  1  0.99610216  0.12830899  0.75662593  1
  O  O174  1  0.96878206  0.59885206  0.23372080  1
  O  O175  1  0.99911719  0.63644159  0.76624548  1
  O  O176  1  0.39293211  0.25616562  0.01866984  1
  O  O177  1  0.35933914  0.23660272  0.51352831  1
  O  O178  1  0.34202717  0.70642526  -0.00283778  1
  O  O179  1  0.38579871  0.74878450  0.50801932  1
  O  O180  1  0.86256657  0.26092719  0.00590231  1
  O  O181  1  0.88901513  0.20530104  0.57795783  1
  O  O182  1  0.87008162  0.76618360  -0.01022015  1
  O  O183  1  0.86335749  0.75457146  0.49395802  1
  O  O184  1  0.13985625  0.23408118  0.49677014  1
  O  O185  1  0.12388306  0.26380304  1.00531948  1
  O  O186  1  0.14377477  0.72064061  0.53589763  1
  O  O187  1  0.13338413  0.74706020  0.98419798  1
  O  O188  1  0.61457652  0.24283014  0.49430745  1
  O  O189  1  0.63952253  0.25255336  0.99927517  1
  O  O190  1  0.63408381  0.74433694  0.49691511  1
  O  O191  1  0.61567227  0.72899444  1.00747460  1
  O  O192  1  0.48829262  0.26237370  0.12981094  1
  O  O193  1  0.48428452  0.23718039  0.61758734  1
  O  O194  1  0.45630050  0.79548666  0.10398417  1
  O  O195  1  0.48181356  0.77318879  0.63997993  1
  O  O196  1  0.98286345  0.26866757  0.12782945  1
  O  O197  1  1.01742959  0.25208925  0.64349183  1
  O  O198  1  0.96549189  0.76927972  0.11688237  1
  O  O199  1  1.00807004  0.73796206  0.64656949  1
  O  O200  1  -0.00547491  0.24870882  0.33473667  1
  O  O201  1  -0.01037111  0.25744286  0.86564554  1
  O  O202  1  0.00991170  0.74271978  0.36859629  1
  O  O203  1  0.01405603  0.75456240  0.87500275  1
  O  O204  1  0.51173476  0.25391135  0.37512265  1
  O  O205  1  0.51942934  0.25619154  0.89095754  1
  O  O206  1  0.52161199  0.77410347  0.38756018  1
  O  O207  1  0.49485285  0.74616880  0.85905707  1
  O  O208  1  0.23672369  0.13196594  0.50356335  1
  O  O209  1  0.27151286  0.10838826  0.97748089  1
  O  O210  1  0.14157171  0.58645939  0.44511001  1
  O  O211  1  0.22644489  0.57854420  1.02579406  1
  O  O212  1  0.72924809  0.13740170  0.51494344  1
  O  O213  1  0.75685595  0.14012148  0.99708726  1
  O  O214  1  0.74459924  0.64392378  0.50121139  1
  O  O215  1  0.73250708  0.61857818  0.98234157  1
  O  O216  1  0.26830859  0.38291963  -0.00470871  1
  O  O217  1  0.24466928  0.34984633  0.48918539  1
  O  O218  1  0.25639136  0.85833102  0.00394659  1
  O  O219  1  0.23874091  0.87164019  0.50871646  1
  O  O220  1  0.74962349  0.36836177  0.01141676  1
  O  O221  1  0.75716525  0.36525770  0.50560198  1
  O  O222  1  0.75067733  0.87747155  -0.02017842  1
  O  O223  1  0.76917134  0.87399386  0.50510561  1
  O  O224  1  0.13855025  0.50221049  0.25273408  1
  O  O225  1  0.12555488  0.48682088  0.74004641  1
  O  O226  1  0.13408657  0.98080224  0.23651266  1
  O  O227  1  0.12276595  0.98387027  0.74407635  1
  O  O228  1  0.61549588  0.50345882  0.23837326  1
  O  O229  1  0.62296873  0.49981078  0.73904880  1
  O  O230  1  0.62712357  0.99919544  0.23881384  1
  O  O231  1  0.61429608  0.98220783  0.76090789  1
  O  O232  1  0.36662193  -0.02695229  0.26476007  1
  O  O233  1  0.37465029  0.01817690  0.74669360  1
  O  O234  1  0.36036224  0.51248211  0.25232963  1
  O  O235  1  0.37320444  0.51764410  0.71328793  1
  O  O236  1  0.90638789  0.01974289  0.28674049  1
  O  O237  1  0.88086693  -0.00426608  0.76625943  1
  O  O238  1  0.85206373  0.49479016  0.25541793  1
  O  O239  1  0.87072613  0.49585748  0.75996590  1
  O  O240  1  0.11091371  0.37447689  0.35445394  1
  O  O241  1  0.10624415  0.36992711  0.87622230  1
  O  O242  1  0.10107327  0.88747858  0.36950564  1
  O  O243  1  0.11760185  0.88274751  0.86858369  1
  O  O244  1  0.61987341  0.36521995  0.37077677  1
  O  O245  1  0.62648548  0.36181966  0.87778259  1
  O  O246  1  0.62443917  0.87852634  0.37089669  1
  O  O247  1  0.62893011  0.92566067  0.80740763  1
  O  O248  1  0.39365951  0.15142575  0.12903143  1
  O  O249  1  0.37877551  0.12712376  0.63209230  1
  O  O250  1  0.40496684  0.63593565  0.15712477  1
  O  O251  1  0.37193763  0.64539419  0.62313053  1
  O  O252  1  0.87212564  0.14240727  0.11780957  1
  O  O253  1  0.87800443  0.13629447  0.60104175  1
  O  O254  1  0.86713730  0.63703226  0.11843401  1
  O  O255  1  0.89058591  0.62114004  0.63765270  1
  O  O256  1  0.27962882  0.25051855  0.10484481  1
  O  O257  1  0.25443957  0.25246105  0.62508623  1
  O  O258  1  0.23084882  0.73138810  0.10567205  1
  O  O259  1  0.26592305  0.76555220  0.63114791  1
  O  O260  1  0.75553648  0.25879135  0.11783231  1
  O  O261  1  0.74780953  0.28083780  0.65258153  1
  O  O262  1  0.75508128  0.75425853  0.10887218  1
  O  O263  1  0.74695613  0.76333166  0.61083643  1
  O  O264  1  0.26067888  0.23717288  0.37833760  1
  O  O265  1  0.24162337  0.23358323  0.87689403  1
  O  O266  1  0.20568342  0.72080845  0.47935522  1
  O  O267  1  0.23796096  0.74817053  0.88411928  1
  O  O268  1  0.72786516  0.24483545  0.37506327  1
  O  O269  1  0.74581168  0.24373323  0.88372167  1
  O  O270  1  0.73849291  0.76485700  0.39183553  1
  O  O271  1  0.74991626  0.73858319  0.87005980  1
  O  O272  1  -0.00858083  0.10610069  0.00093497  1
  O  O273  1  0.02330812  0.13713779  0.49272284  1
  O  O274  1  -0.01229938  0.60976495  -0.00663238  1
  O  O275  1  -0.00636763  0.63451724  0.51531275  1
  O  O276  1  0.45172148  0.08938232  0.00237449  1
  O  O277  1  0.50475332  0.11861050  0.51039545  1
  O  O278  1  0.51369238  0.61001203  -0.01718765  1
  O  O279  1  0.51973805  0.63361988  0.49928194  1
  O  O280  1  0.49805611  0.37042405  0.48808983  1
  O  O281  1  0.50637628  0.38937985  0.99215392  1
  O  O282  1  0.51324733  0.89495314  0.49694964  1
  O  O283  1  0.58445251  0.89087195  0.97999678  1
  O  O284  1  0.99518795  0.32631771  0.46816597  1
  O  O285  1  0.97889599  0.37317527  0.98013665  1
  O  O286  1  0.99746278  0.85196855  0.49048501  1
  O  O287  1  0.99137280  0.87706726  0.98669292  1
  O  O288  1  0.50219176  0.48316775  0.37652799  1
  O  O289  1  0.50293524  0.48408045  0.88453142  1
  O  O290  1  0.49704467  0.99662765  0.38701245  1
  O  O291  1  0.50834285  1.01323204  0.89937458  1
  O  O292  1  0.99409189  0.47736905  0.38267951  1
  O  O293  1  0.97956998  0.48712441  0.87860838  1
  O  O294  1  0.95921217  1.03725254  0.33379755  1
  O  O295  1  0.98719099  0.99354389  0.88271917  1
  O  O296  1  -0.01738226  -0.01441083  0.11222330  1
  O  O297  1  0.01984220  -0.01407361  0.62761231  1
  O  O298  1  -0.00876176  0.47608602  0.09580586  1
  O  O299  1  0.00589542  0.51440568  0.62716934  1
  O  O300  1  0.52812944  -0.01398375  0.10872545  1
  O  O301  1  0.49267545  0.01117162  0.61364422  1
  O  O302  1  0.51149741  0.49485198  0.11708851  1
  O  O303  1  0.51933212  0.49414413  0.62052130  1
  O  O304  1  0.24114599  0.39481465  0.25835481  1
  O  O305  1  0.26555571  0.40767357  0.78948163  1
  O  O306  1  0.21338908  0.83302632  0.26752013  1
  O  O307  1  0.23852210  0.87227254  0.75903823  1
  O  O308  1  0.73726010  0.37273770  0.23788846  1
  O  O309  1  0.74230248  0.34040412  0.71466604  1
  O  O310  1  0.74457398  0.89184789  0.26869430  1
  O  O311  1  0.75790518  0.87432934  0.72702209  1
  O  O312  1  0.21374453  0.11808088  0.19826801  1
  O  O313  1  0.25353470  0.12319941  0.76240163  1
  O  O314  1  0.26405506  0.62453808  0.26710902  1
  O  O315  1  0.26088342  0.63288873  0.74152780  1
  O  O316  1  0.76176838  0.12758023  0.27511648  1
  O  O317  1  0.75328517  0.13205911  0.75895417  1
  O  O318  1  0.76317880  0.62326590  0.23956590  1
  O  O319  1  0.74174571  0.62887381  0.75784828  1
  O  O320  1  0.38061825  0.10947044  0.37044705  1
  O  O321  1  0.37668963  0.13861740  0.85525079  1
  O  O322  1  0.35105401  0.58958376  0.45401600  1
  O  O323  1  0.37351801  0.60927290  0.85327831  1
  O  O324  1  0.85828200  0.16152795  0.40576697  1
  O  O325  1  0.86393099  0.11488145  0.87931576  1
  O  O326  1  0.86987420  0.62420328  0.35947266  1
  O  O327  1  0.85409239  0.61086774  0.87815071  1
  O  O328  1  0.13240721  0.38048427  0.14071490  1
  O  O329  1  0.11287787  0.40846263  0.59271860  1
  O  O330  1  0.10590511  0.84835592  0.14993758  1
  O  O331  1  0.13754230  0.87284344  0.63976858  1
  O  O332  1  0.63019187  0.38070453  0.13745983  1
  O  O333  1  0.63416123  0.39555462  0.59691577  1
  O  O334  1  0.63657557  0.86766725  0.15067058  1
  O  O335  1  0.64199196  0.88411525  0.61338853  1
  O  O336  1  0.12234298  0.26674453  0.23902751  1
  O  O337  1  0.10104031  0.25617761  0.74227151  1
  O  O338  1  0.19284162  0.75466730  0.41412916  1
  O  O339  1  0.11991466  0.76006980  0.76807930  1
  O  O340  1  0.62358700  0.26356336  0.25685227  1
  O  O341  1  0.62074357  0.24840289  0.76513651  1
  O  O342  1  0.63744220  0.76249135  0.26673240  1
  O  O343  1  0.60149830  0.75195031  0.73814781  1
  O  O344  1  0.36455720  0.25107485  0.22714389  1
  O  O345  1  0.36760041  0.23668685  0.73184188  1
  O  O346  1  0.35407091  0.74754825  0.26035493  1
  O  O347  1  0.38321889  0.73295549  0.74343849  1
  O  O348  1  0.87058305  0.25285854  0.23076232  1
  O  O349  1  0.88977424  0.24726183  0.74364171  1
  O  O350  1  0.86052935  0.75335162  0.23119374  1
  O  O351  1  0.89452748  0.75323330  0.76574479  1
  O  O352  1  0.37154267  0.52774825  0.49081767  1
  O  O353  1  0.39566232  0.51503857  1.01283969  1
  O  O354  1  0.38853128  1.00560941  0.49124213  1
  O  O355  1  0.42048711  0.93261514  1.00137469  1
  O  O356  1  0.84796100  0.49526349  0.45614371  1
  O  O357  1  0.87072322  0.49077521  0.98740687  1
  O  O358  1  0.89553450  0.97904946  0.49419418  1
  O  O359  1  0.87830882  0.98566885  0.98766091  1
  O  O360  1  0.10504843  -0.01133716  0.00602062  1
  O  O361  1  0.12865988  0.01372573  0.51253384  1
  O  O362  1  0.09891176  0.49361838  -0.02012933  1
  O  O363  1  0.11358161  0.51778454  0.47347249  1
  O  O364  1  0.62254024  0.03644810  0.01038776  1
  O  O365  1  0.61535063  0.01795773  0.49676047  1
  O  O366  1  0.61598329  0.50634169  0.01278036  1
  O  O367  1  0.63585241  0.52521794  0.47819739  1
  O  O368  1  0.38330407  0.35930367  0.13582793  1
  O  O369  1  0.37692193  0.36112732  0.62872638  1
  O  O370  1  0.40648560  0.84316430  0.12651471  1
  O  O371  1  0.35946332  0.87222560  0.62116108  1
  O  O372  1  0.85712472  0.37551973  0.11682716  1
  O  O373  1  0.86757988  0.38945284  0.61422983  1
  O  O374  1  0.85684364  0.87476686  0.10119481  1
  O  O375  1  0.88036234  0.87053158  0.61039679  1
  O  O376  1  0.13015270  0.10859684  0.37770111  1
  O  O377  1  0.13548678  0.11243728  0.88053868  1
  O  O378  1  0.10815071  0.61731491  0.38188635  1
  O  O379  1  0.12727674  0.62868616  0.86890280  1
  O  O380  1  0.62806188  0.13574340  0.38816053  1
  O  O381  1  0.64177413  0.13745154  0.87327914  1
  O  O382  1  0.62249446  0.64735327  0.37780464  1
  O  O383  1  0.63351739  0.62051344  0.87988926  1
