# generated using pymatgen
data_VZnO4
_symmetry_space_group_name_H-M   'P 1'
_cell_length_a   16.98278757
_cell_length_b   16.91371934
_cell_length_c   16.96214053
_cell_angle_alpha   90.74984565
_cell_angle_beta   90.14357556
_cell_angle_gamma   90.03101033
_symmetry_Int_Tables_number   1
_chemical_formula_structural   VZnO4
_chemical_formula_sum   'V64 Zn64 O256'
_cell_volume   4871.80756565
_cell_formula_units_Z   64
loop_
 _symmetry_equiv_pos_site_id
 _symmetry_equiv_pos_as_xyz
  1  'x, y, z'
loop_
 _atom_site_type_symbol
 _atom_site_label
 _atom_site_symmetry_multiplicity
 _atom_site_fract_x
 _atom_site_fract_y
 _atom_site_fract_z
 _atom_site_occupancy
  V  V0  1  0.51959038  0.48011475  0.49615400  1
  V  V1  1  0.38304577  0.12676529  0.25231379  1
  V  V2  1  -0.00284819  0.40109349  0.88677731  1
  V  V3  1  0.62432429  0.75182804  0.86980883  1
  V  V4  1  0.21863909  0.00405318  0.75628767  1
  V  V5  1  0.62188400  0.50184100  0.13162109  1
  V  V6  1  0.34804739  0.01078372  0.87957056  1
  V  V7  1  0.60022574  0.65593814  0.48942130  1
  V  V8  1  0.14142089  0.00580349  0.14090519  1
  V  V9  1  0.65089616  -0.00272363  0.61832208  1
  V  V10  1  0.34272839  0.89975593  0.51918077  1
  V  V11  1  0.60360633  0.12498649  -0.00971944  1
  V  V12  1  0.00914634  -0.00949886  0.00969936  1
  V  V13  1  0.76399045  0.49106799  0.24026960  1
  V  V14  1  0.78266290  0.09315936  0.86475373  1
  V  V15  1  0.12665064  0.37704023  0.75819619  1
  V  V16  1  0.01308317  0.03545604  0.50674519  1
  V  V17  1  0.25781477  0.49826711  0.24950793  1
  V  V18  1  0.49578207  0.88668788  0.88148111  1
  V  V19  1  0.87726754  0.10317078  0.25200814  1
  V  V20  1  0.13746234  0.73926124  0.90500352  1
  V  V21  1  0.85245052  0.25058743  0.11725383  1
  V  V22  1  0.86019347  0.39295087  0.00243059  1
  V  V23  1  0.02906951  0.74225731  0.74511791  1
  V  V24  1  0.85677442  0.89292771  0.00538693  1
  V  V25  1  -0.01097806  0.24370308  0.76860466  1
  V  V26  1  0.63723276  0.00203133  0.11389683  1
  V  V27  1  0.61214643  0.11915882  0.49949108  1
  V  V28  1  0.13865366  0.67616844  0.40886694  1
  V  V29  1  0.77131254  0.37934136  0.61487857  1
  V  V30  1  0.36048083  0.62165438  0.75207815  1
  V  V31  1  -0.03192800  0.61882201  0.62696831  1
  V  V32  1  0.40076208  0.50181402  0.36437312  1
  V  V33  1  0.79668169  0.62061308  0.36553856  1
  V  V34  1  0.16120903  0.14946490  0.50195783  1
  V  V35  1  0.37147465  0.49888152  0.86334227  1
  V  V36  1  0.88049434  0.74912515  0.13782882  1
  V  V37  1  0.63336947  0.25110393  0.37096368  1
  V  V38  1  0.36302155  0.86625790  0.00093488  1
  V  V39  1  0.24873410  0.24713175  -0.00995952  1
  V  V40  1  0.62348717  0.61827913  -0.00518494  1
  V  V41  1  0.12870795  0.13024212  -0.00512306  1
  V  V42  1  0.88186981  0.23972246  0.61618408  1
  V  V43  1  0.49140707  0.75569461  0.74693258  1
  V  V44  1  0.12372012  0.25922845  0.37739089  1
  V  V45  1  0.00804242  0.13767561  0.14039167  1
  V  V46  1  0.24783688  0.37065053  0.12563982  1
  V  V47  1  0.22135464  0.86180840  0.63981619  1
  V  V48  1  0.44345133  0.55572845  0.04457308  1
  V  V49  1  0.26154784  0.85194460  0.13800876  1
  V  V50  1  0.63912060  0.24522387  0.86351209  1
  V  V51  1  0.50002034  0.36826363  0.84806012  1
  V  V52  1  0.76405075  0.75572557  0.51839374  1
  V  V53  1  0.73958415  0.75412570  0.01069115  1
  V  V54  1  0.39208998  0.36223605  0.00266939  1
  V  V55  1  0.50248159  0.60705850  0.62911761  1
  V  V56  1  0.10837898  0.87057351  0.25523699  1
  V  V57  1  0.91434655  0.87451957  0.49635901  1
  V  V58  1  0.11101552  0.37669096  0.25279091  1
  V  V59  1  0.35802326  0.36978693  0.49172248  1
  V  V60  1  0.76950325  0.11774062  0.39023153  1
  V  V61  1  0.63509091  0.37828331  0.73448023  1
  V  V62  1  0.13830823  0.49368782  0.62858845  1
  V  V63  1  0.75906505  0.51464720  0.75813122  1
  Zn  Zn64  1  0.19559533  0.20010618  0.18970350  1
  Zn  Zn65  1  0.13387228  0.16413268  0.71308122  1
  Zn  Zn66  1  0.20479653  0.70071596  0.23333794  1
  Zn  Zn67  1  0.21587305  0.66066751  0.58950313  1
  Zn  Zn68  1  0.68025107  0.15401713  0.18896421  1
  Zn  Zn69  1  0.70396255  0.18445577  0.68525912  1
  Zn  Zn70  1  0.69708626  0.67070049  0.18155304  1
  Zn  Zn71  1  0.68277350  0.69638885  0.68266057  1
  Zn  Zn72  1  0.31564585  0.31755362  0.32124757  1
  Zn  Zn73  1  0.30703816  0.31046297  0.81411695  1
  Zn  Zn74  1  0.25578999  0.82300694  0.34820889  1
  Zn  Zn75  1  0.29950366  0.80804573  0.81431288  1
  Zn  Zn76  1  0.76286467  0.27619018  0.26921610  1
  Zn  Zn77  1  0.81818863  0.32144834  0.81475034  1
  Zn  Zn78  1  0.82665370  0.80210580  0.33674953  1
  Zn  Zn79  1  1.01186439  0.87787954  0.85768003  1
  Zn  Zn80  1  0.18581957  0.46003786  0.43026518  1
  Zn  Zn81  1  0.19104572  0.43518249  0.93718596  1
  Zn  Zn82  1  0.15608974  0.94798427  0.44588278  1
  Zn  Zn83  1  0.18184081  0.92574713  0.94669129  1
  Zn  Zn84  1  0.75392766  0.40742996  0.40695403  1
  Zn  Zn85  1  0.68736229  0.43575670  0.92688480  1
  Zn  Zn86  1  0.73189781  0.95013957  0.46055369  1
  Zn  Zn87  1  0.68318610  0.94408318  0.92943355  1
  Zn  Zn88  1  0.31783715  0.06490360  0.05931043  1
  Zn  Zn89  1  0.28831825  0.06108240  0.58050670  1
  Zn  Zn90  1  0.26545168  0.59014704  0.10090381  1
  Zn  Zn91  1  0.33593359  0.51614468  0.58330495  1
  Zn  Zn92  1  0.81018017  0.08255356  0.04631771  1
  Zn  Zn93  1  0.83715028  0.04918123  0.56947346  1
  Zn  Zn94  1  0.80714811  0.57270661  0.06357923  1
  Zn  Zn95  1  0.77925126  0.56886066  0.56337658  1
  Zn  Zn96  1  0.44064297  0.43091638  0.18159429  1
  Zn  Zn97  1  0.43675007  0.32273869  0.65637683  1
  Zn  Zn98  1  0.44012545  0.95078321  0.17376853  1
  Zn  Zn99  1  0.40690219  0.92930178  0.70450109  1
  Zn  Zn100  1  0.90303966  0.38046083  0.23372247  1
  Zn  Zn101  1  0.93957160  0.44166067  0.70197040  1
  Zn  Zn102  1  0.94094002  0.93421691  0.17764508  1
  Zn  Zn103  1  1.00867239  0.91284994  0.65896612  1
  Zn  Zn104  1  0.06968039  0.06722064  0.32680241  1
  Zn  Zn105  1  0.04618690  0.05988926  0.82243580  1
  Zn  Zn106  1  0.03631676  0.52989917  0.47494587  1
  Zn  Zn107  1  0.06577758  0.57129263  0.80758481  1
  Zn  Zn108  1  0.57939439  0.06582888  0.30995013  1
  Zn  Zn109  1  0.57687482  0.05191506  0.80028755  1
  Zn  Zn110  1  0.61622703  0.52984553  0.34690031  1
  Zn  Zn111  1  0.55977059  0.55792453  0.81164163  1
  Zn  Zn112  1  0.44930601  0.19749813  0.44081281  1
  Zn  Zn113  1  0.43692889  0.19022495  0.92095859  1
  Zn  Zn114  1  0.37949948  0.66472340  0.48022719  1
  Zn  Zn115  1  0.43326909  0.69404280  0.92806103  1
  Zn  Zn116  1  0.94203478  0.20725751  0.42507038  1
  Zn  Zn117  1  0.93997808  0.17867900  0.94101793  1
  Zn  Zn118  1  0.94529464  0.68763321  0.43532330  1
  Zn  Zn119  1  0.92324320  0.74006438  0.92287828  1
  Zn  Zn120  1  0.06147134  0.31999336  0.06037567  1
  Zn  Zn121  1  0.08124223  0.28634661  0.58942410  1
  Zn  Zn122  1  0.07600664  0.79864528  0.08885743  1
  Zn  Zn123  1  0.06992566  0.77990188  0.55586082  1
  Zn  Zn124  1  0.58786792  0.31341343  0.05003776  1
  Zn  Zn125  1  0.58733068  0.29574267  0.55823926  1
  Zn  Zn126  1  0.56502162  0.82926987  0.05429146  1
  Zn  Zn127  1  0.53185446  0.83075967  0.55897395  1
  O  O128  1  0.12311220  0.12059473  0.13568080  1
  O  O129  1  0.13912494  0.18093373  0.60210315  1
  O  O130  1  0.01720727  0.60430157  0.00971982  1
  O  O131  1  0.12770764  0.59654678  0.62564434  1
  O  O132  1  0.62443629  0.13765406  0.08927245  1
  O  O133  1  0.64355445  0.11280355  0.60741043  1
  O  O134  1  0.62009143  0.61593161  0.10488565  1
  O  O135  1  0.59966721  0.64149049  0.61861019  1
  O  O136  1  0.38391264  0.38596553  0.38186193  1
  O  O137  1  0.38606992  0.37707904  0.87400717  1
  O  O138  1  0.31132089  0.91660005  0.39775947  1
  O  O139  1  0.37471102  0.88260772  0.88629018  1
  O  O140  1  0.87009439  0.38279923  0.36560371  1
  O  O141  1  0.88535835  0.37431533  0.89503807  1
  O  O142  1  0.85306578  0.88350654  0.40901911  1
  O  O143  1  0.90501728  0.86081034  0.92057769  1
  O  O144  1  0.26421326  -0.02064780  0.39166367  1
  O  O145  1  0.24267795  -0.00408289  0.87631037  1
  O  O146  1  0.27291492  0.49647649  0.35240663  1
  O  O147  1  0.27453036  0.49162548  0.88678370  1
  O  O148  1  0.75394285  0.01683467  0.37071596  1
  O  O149  1  0.75914247  -0.00753398  0.86364750  1
  O  O150  1  0.73374675  0.50591993  0.34964874  1
  O  O151  1  0.73783520  0.50724510  0.85774974  1
  O  O152  1  0.27173017  0.47653736  0.13050175  1
  O  O153  1  0.23631238  0.48326630  0.63204682  1
  O  O154  1  0.24095684  1.00918627  0.12815194  1
  O  O155  1  0.23466223  0.99038622  0.65127445  1
  O  O156  1  0.73259071  0.51566521  0.13605261  1
  O  O157  1  0.75474934  0.48540637  0.63702524  1
  O  O158  1  0.73820665  1.01805501  0.10417475  1
  O  O159  1  0.74974863  0.97619722  0.59194806  1
  O  O160  1  0.01596962  0.39286364  0.23323461  1
  O  O161  1  -0.00511885  0.37019697  0.77695819  1
  O  O162  1  0.01019996  0.88398145  0.25420945  1
  O  O163  1  -0.00853397  0.84749859  0.74681971  1
  O  O164  1  0.51506182  0.33940899  0.21089374  1
  O  O165  1  0.51169980  0.37104909  0.74554201  1
  O  O166  1  0.47267280  0.86434333  0.25356243  1
  O  O167  1  0.47994083  0.86309898  0.76639864  1
  O  O168  1  0.48505381  0.13219087  0.24259229  1
  O  O169  1  0.48822539  0.09110222  0.71672972  1
  O  O170  1  0.43426102  0.68486805  0.23819474  1
  O  O171  1  0.50147649  0.63339866  0.74211102  1
  O  O172  1  0.99735128  0.12043478  0.24515419  1
  O  O173  1  1.02070738  0.14178618  0.75162496  1
  O  O174  1  1.01954374  0.60184480  0.21728153  1
  O  O175  1  0.99492375  0.63608345  0.74026261  1
  O  O176  1  0.36399326  0.25705211  -0.01097521  1
  O  O177  1  0.37918459  0.26963779  0.48981910  1
  O  O178  1  0.37311122  0.76656991  -0.00623606  1
  O  O179  1  0.36989024  0.78863420  0.46936761  1
  O  O180  1  0.87917962  0.23395183  0.01840248  1
  O  O181  1  0.89091293  0.25314581  0.51762255  1
  O  O182  1  0.84806280  0.75227913  0.01094525  1
  O  O183  1  0.87067447  0.76066530  0.50002023  1
  O  O184  1  0.12621297  0.26359924  0.48415624  1
  O  O185  1  0.13526556  0.23940222  1.00847091  1
  O  O186  1  0.15059769  0.71767767  0.50298838  1
  O  O187  1  0.12365050  0.73832271  1.00658411  1
  O  O188  1  0.64275709  0.22404446  0.48952071  1
  O  O189  1  0.61831793  0.23970709  0.97306827  1
  O  O190  1  0.58182247  0.75447111  0.49192271  1
  O  O191  1  0.62315264  0.74689964  0.99442625  1
  O  O192  1  0.52808184  0.28593932  0.15854482  1
  O  O193  1  0.50940376  0.24861146  0.61969703  1
  O  O194  1  0.53876593  0.75708377  0.15326825  1
  O  O195  1  0.49211644  0.76160275  0.64683841  1
  O  O196  1  1.01161659  0.23683422  0.12693995  1
  O  O197  1  0.98463047  0.25963889  0.64722563  1
  O  O198  1  0.97957366  0.74814602  0.12411377  1
  O  O199  1  1.00587592  0.72931422  0.63502816  1
  O  O200  1  0.02007440  0.25924739  0.36420810  1
  O  O201  1  -0.00445600  0.24947650  0.87136699  1
  O  O202  1  0.04907838  0.70805240  0.37939400  1
  O  O203  1  0.01414143  0.74599249  0.85921256  1
  O  O204  1  0.53200227  0.24428279  0.37736293  1
  O  O205  1  0.49700076  0.26371296  0.85939955  1
  O  O206  1  0.48461911  0.68762142  0.29001685  1
  O  O207  1  0.50425409  0.76267124  0.86941477  1
  O  O208  1  0.26042120  0.14343459  0.50396973  1
  O  O209  1  0.24108664  0.13786105  1.01078822  1
  O  O210  1  0.29302700  0.60974158  0.52559009  1
  O  O211  1  0.17717535  0.58394217  1.02362866  1
  O  O212  1  0.77972776  0.11691450  0.48887635  1
  O  O213  1  0.74541059  0.12290708  0.96001851  1
  O  O214  1  0.70674781  0.65914047  0.51860855  1
  O  O215  1  0.73257766  0.64267504  0.99726488  1
  O  O216  1  0.25556671  0.36361650  0.00671268  1
  O  O217  1  0.26022588  0.38686412  0.48526340  1
  O  O218  1  0.25724965  0.87534965  0.02051688  1
  O  O219  1  0.23436000  0.89068468  0.52448447  1
  O  O220  1  0.76131205  0.37834302  -0.00848330  1
  O  O221  1  0.76639528  0.38449360  0.51638620  1
  O  O222  1  0.75350130  0.87219843  -0.00605033  1
  O  O223  1  0.72000336  0.83933674  0.48634236  1
  O  O224  1  0.15680807  0.47955565  0.24721654  1
  O  O225  1  0.11331917  0.48746046  0.74399428  1
  O  O226  1  0.12492644  0.99485062  0.24445018  1
  O  O227  1  0.11911942  0.98558635  0.76877455  1
  O  O228  1  0.61014031  0.50401324  0.23104551  1
  O  O229  1  0.62451053  0.48071174  0.74905694  1
  O  O230  1  0.63380772  1.04432194  0.21535969  1
  O  O231  1  0.64169504  1.00637316  0.71966655  1
  O  O232  1  0.37571355  0.02226425  0.24699161  1
  O  O233  1  0.34673032  -0.00461168  0.77345313  1
  O  O234  1  0.38565582  0.49139199  0.25791629  1
  O  O235  1  0.36987727  0.50616252  0.76121383  1
  O  O236  1  0.87957104  0.00457813  0.24417209  1
  O  O237  1  0.82704796  -0.08273321  0.74497441  1
  O  O238  1  0.86293399  0.49281437  0.23452208  1
  O  O239  1  0.85911131  0.50600982  0.75719491  1
  O  O240  1  0.12314320  0.38069884  0.35779632  1
  O  O241  1  0.10776181  0.38781032  0.87470883  1
  O  O242  1  0.14579201  0.87148307  0.35262982  1
  O  O243  1  0.11801174  0.85113356  0.89236268  1
  O  O244  1  0.65615710  0.34944202  0.38450855  1
  O  O245  1  0.61209775  0.36457216  0.86627437  1
  O  O246  1  0.62594016  0.88285746  0.30713924  1
  O  O247  1  0.60390857  0.86813766  0.88502960  1
  O  O248  1  0.37663050  0.12850004  0.14555428  1
  O  O249  1  0.35623399  0.14742629  0.64801746  1
  O  O250  1  0.37339739  0.61480870  0.08337375  1
  O  O251  1  0.39043516  0.60978463  0.64768115  1
  O  O252  1  0.89171371  0.13350119  0.13699317  1
  O  O253  1  0.87167990  0.13968794  0.62882244  1
  O  O254  1  0.85434226  0.65083873  0.13137473  1
  O  O255  1  0.86947330  0.62360079  0.62447121  1
  O  O256  1  0.25584112  0.26303468  0.11340510  1
  O  O257  1  0.31633127  0.20547930  0.67606397  1
  O  O258  1  0.25451637  0.75245023  0.13294706  1
  O  O259  1  0.24253414  0.76489760  0.63250850  1
  O  O260  1  0.75481831  0.23459326  0.12093046  1
  O  O261  1  0.77116074  0.26551530  0.63395587  1
  O  O262  1  0.73194535  0.75827688  0.11167443  1
  O  O263  1  0.75270581  0.76172581  0.61918652  1
  O  O264  1  0.22942135  0.26453099  0.36543825  1
  O  O265  1  0.24564466  0.25041325  0.89082734  1
  O  O266  1  0.22073290  0.71374019  0.34948453  1
  O  O267  1  0.23777147  0.75051385  0.88729878  1
  O  O268  1  0.75442036  0.22569684  0.37448876  1
  O  O269  1  0.73598193  0.26155471  0.87275180  1
  O  O270  1  0.76389076  0.71745000  0.39037487  1
  O  O271  1  0.72276282  0.76102122  0.88631640  1
  O  O272  1  0.01669355  0.11892034  0.01830536  1
  O  O273  1  0.00296999  0.13443295  0.49754062  1
  O  O274  1  -0.04652363  0.62414862  -0.01922708  1
  O  O275  1  -0.01127972  0.62334284  0.51893879  1
  O  O276  1  0.50402603  0.12714320  -0.01196801  1
  O  O277  1  0.51267360  0.11978095  0.49636403  1
  O  O278  1  0.50474511  0.62344224  -0.00568047  1
  O  O279  1  0.48784099  0.63349998  0.52203422  1
  O  O280  1  0.53587508  0.38344446  0.50165558  1
  O  O281  1  0.49162357  0.35637304  0.99248032  1
  O  O282  1  0.43420942  0.84571016  0.47998197  1
  O  O283  1  0.48263277  0.87774679  0.98967244  1
  O  O284  1  0.92895412  0.40872422  0.41716593  1
  O  O285  1  0.99555720  0.38004092  0.99211727  1
  O  O286  1  1.01023952  0.84618995  0.48165427  1
  O  O287  1  1.01982575  0.89394259  1.02945262  1
  O  O288  1  0.50804947  0.49180911  0.38020830  1
  O  O289  1  0.49222095  0.47847570  0.86639679  1
  O  O290  1  0.48986752  1.01246686  0.33972390  1
  O  O291  1  0.49622955  0.98691197  0.86092604  1
  O  O292  1  0.96362949  0.47474786  0.39321298  1
  O  O293  1  0.99478602  0.49915557  0.87625252  1
  O  O294  1  1.04807238  0.99341936  0.41255052  1
  O  O295  1  1.01063271  0.99108914  0.90446399  1
  O  O296  1  0.01460269  0.01481120  0.12416629  1
  O  O297  1  0.02460183  0.00814562  0.60493176  1
  O  O298  1  0.04223662  0.57055469  0.15609623  1
  O  O299  1  -0.00870144  0.51675960  0.63287681  1
  O  O300  1  0.52021231  0.00829334  0.12738356  1
  O  O301  1  0.46945113  0.03879254  0.66565440  1
  O  O302  1  0.50098750  0.50716246  0.11592104  1
  O  O303  1  0.50845252  0.50726913  0.61084718  1
  O  O304  1  0.26816852  0.37630216  0.23258362  1
  O  O305  1  0.22546945  0.37231769  0.76636801  1
  O  O306  1  0.26528684  0.86732094  0.23862059  1
  O  O307  1  0.24186256  0.87821446  0.74447003  1
  O  O308  1  0.74705156  0.39078599  0.24460439  1
  O  O309  1  0.74313919  0.38657765  0.75023933  1
  O  O310  1  0.68997063  0.86405656  0.27848161  1
  O  O311  1  0.77113574  0.87358181  0.73357242  1
  O  O312  1  0.27610750  0.13357303  0.25094948  1
  O  O313  1  0.22024410  0.10581425  0.75679263  1
  O  O314  1  0.25214931  0.60015422  0.21705555  1
  O  O315  1  0.26605227  0.62992308  0.74413684  1
  O  O316  1  0.77837393  0.12497571  0.24812250  1
  O  O317  1  0.75173677  0.13144709  0.77513901  1
  O  O318  1  0.74669888  0.61340488  0.26292104  1
  O  O319  1  0.73162251  0.61002550  0.73528401  1
  O  O320  1  0.38601291  0.12484516  0.35615592  1
  O  O321  1  0.36635896  0.10934481  0.88234155  1
  O  O322  1  0.38875033  0.60061449  0.38037751  1
  O  O323  1  0.38569668  0.60816380  0.86680048  1
  O  O324  1  0.88104842  0.12833780  0.35875006  1
  O  O325  1  0.88413827  0.10368069  0.87447599  1
  O  O326  1  0.89182903  0.64241101  0.34119254  1
  O  O327  1  0.85006651  0.68327449  0.83143124  1
  O  O328  1  0.14256902  0.37384988  0.13071450  1
  O  O329  1  0.10845998  0.37996711  0.65030497  1
  O  O330  1  0.14548305  0.88902753  0.13811673  1
  O  O331  1  0.11867900  0.86395902  0.62611809  1
  O  O332  1  0.62367466  0.40550272  0.10156938  1
  O  O333  1  0.64755034  0.36518140  0.63331047  1
  O  O334  1  0.62878204  0.90092542  0.11471382  1
  O  O335  1  0.58421471  0.92025232  0.60157565  1
  O  O336  1  0.12837514  0.27099656  0.25066247  1
  O  O337  1  0.10350270  0.27032068  0.75519958  1
  O  O338  1  0.11615448  0.77159975  0.22237585  1
  O  O339  1  0.12453825  0.74307932  0.75008174  1
  O  O340  1  0.64902473  0.23653605  0.26442830  1
  O  O341  1  0.63290516  0.26299766  0.75546927  1
  O  O342  1  0.59013501  0.74647319  0.20695458  1
  O  O343  1  0.60922021  0.75052642  0.76292753  1
  O  O344  1  0.37905994  0.23267856  0.25986340  1
  O  O345  1  0.36642817  0.25768322  0.72861883  1
  O  O346  1  0.43305291  0.84946964  0.31366051  1
  O  O347  1  0.38539137  0.73309756  0.76787313  1
  O  O348  1  0.87214896  0.26696392  0.22652974  1
  O  O349  1  0.88600895  0.25018868  0.75494569  1
  O  O350  1  0.85753197  0.78048859  0.23219371  1
  O  O351  1  0.84716935  0.72342386  0.77034036  1
  O  O352  1  0.40533412  0.48517402  0.48390940  1
  O  O353  1  0.39279935  0.48236192  0.98847975  1
  O  O354  1  0.36778470  0.99683533  0.52266833  1
  O  O355  1  0.36332740  0.98955770  0.98696368  1
  O  O356  1  0.81599603  0.57298562  0.45510487  1
  O  O357  1  0.86857672  0.49192710  1.01565918  1
  O  O358  1  0.91344910  0.99454677  0.49553817  1
  O  O359  1  0.89153615  0.99447317  1.01515655  1
  O  O360  1  0.12528424  0.01290605  0.01928773  1
  O  O361  1  0.13999330  0.04758482  0.51292874  1
  O  O362  1  0.14210921  0.51574560  0.01712310  1
  O  O363  1  0.11398202  0.46547109  0.52521441  1
  O  O364  1  0.62129778  0.01629222  -0.00327142  1
  O  O365  1  0.63515069  0.01523931  0.49537482  1
  O  O366  1  0.62825919  0.51701556  -0.00906899  1
  O  O367  1  0.60898143  0.52909288  0.49368027  1
  O  O368  1  0.37902980  0.36899932  0.10447898  1
  O  O369  1  0.37843193  0.39644612  0.59478138  1
  O  O370  1  0.36849561  0.88060418  0.11509361  1
  O  O371  1  0.35221340  0.87564847  0.62065751  1
  O  O372  1  0.87327650  0.35797814  0.10637049  1
  O  O373  1  0.87233800  0.37229515  0.63513843  1
  O  O374  1  0.87841501  0.86669512  0.10471696  1
  O  O375  1  0.90163640  0.88298820  0.59580999  1
  O  O376  1  0.13160981  0.14719273  0.38748553  1
  O  O377  1  0.12108470  0.12080330  0.89867070  1
  O  O378  1  0.13238410  0.57311440  0.40989415  1
  O  O379  1  0.12140695  0.63943441  0.87842997  1
  O  O380  1  0.64409254  0.12394915  0.38600104  1
  O  O381  1  0.61436690  0.13743771  0.86828518  1
  O  O382  1  0.60451712  0.63874346  0.38995670  1
  O  O383  1  0.61062063  0.64088867  0.88501683  1
