# generated using pymatgen
data_VZnO4
_symmetry_space_group_name_H-M   'P 1'
_cell_length_a   17.03668424
_cell_length_b   17.10477361
_cell_length_c   16.96061268
_cell_angle_alpha   90.12736538
_cell_angle_beta   90.66366817
_cell_angle_gamma   90.71534344
_symmetry_Int_Tables_number   1
_chemical_formula_structural   VZnO4
_chemical_formula_sum   'V64 Zn64 O256'
_cell_volume   4941.73825857
_cell_formula_units_Z   64
loop_
 _symmetry_equiv_pos_site_id
 _symmetry_equiv_pos_as_xyz
  1  'x, y, z'
loop_
 _atom_site_type_symbol
 _atom_site_label
 _atom_site_symmetry_multiplicity
 _atom_site_fract_x
 _atom_site_fract_y
 _atom_site_fract_z
 _atom_site_occupancy
  V  V0  1  0.63573599  0.75796975  0.37517968  1
  V  V1  1  0.87768584  0.25261290  0.62537038  1
  V  V2  1  0.72958592  0.88174593  0.63357960  1
  V  V3  1  0.87510767  0.74610928  0.62351115  1
  V  V4  1  0.78374277  0.25833439  0.00796127  1
  V  V5  1  0.50268092  0.25797158  0.74989370  1
  V  V6  1  0.23678197  0.64218474  0.87755287  1
  V  V7  1  0.24467301  0.24403622  0.49103705  1
  V  V8  1  0.73351569  0.24989506  0.50280375  1
  V  V9  1  0.24982164  0.86763346  0.11752740  1
  V  V10  1  0.59500027  0.61148112  0.48980580  1
  V  V11  1  0.37082349  0.50971028  0.34934147  1
  V  V12  1  0.51233887  0.75384705  0.74724482  1
  V  V13  1  0.75824477  0.00778357  0.25424365  1
  V  V14  1  0.87673553  0.38481336  0.48353699  1
  V  V15  1  0.37562256  0.25039593  0.13505662  1
  V  V16  1  -0.02882669  0.40497436  0.87962579  1
  V  V17  1  0.25636390  0.24652850  0.00560871  1
  V  V18  1  0.87401434  0.89846911  0.50408207  1
  V  V19  1  0.06907020  -0.04952489  0.67445358  1
  V  V20  1  0.37905636  0.09595209  0.25656110  1
  V  V21  1  0.85536866  0.01303948  0.87521082  1
  V  V22  1  0.88614210  0.65290900  0.26240204  1
  V  V23  1  0.49338844  0.73065139  0.26096119  1
  V  V24  1  0.38403265  0.86227155  0.00963559  1
  V  V25  1  0.39293365  0.36663729  -0.01237073  1
  V  V26  1  0.59628496  0.53011199  0.11960786  1
  V  V27  1  0.13230949  0.24807538  0.85918903  1
  V  V28  1  0.49601973  0.37297438  0.36148689  1
  V  V29  1  0.62590454  0.26029425  0.90032935  1
  V  V30  1  0.88354488  0.14326867  0.26669601  1
  V  V31  1  0.74986596  0.52750906  0.75670967  1
  V  V32  1  0.23002282  0.62508605  0.35916470  1
  V  V33  1  0.12343027  0.11194045  0.49404578  1
  V  V34  1  0.37401326  0.38975472  0.50266329  1
  V  V35  1  0.38185710  0.61119752  0.75388929  1
  V  V36  1  0.73694593  0.13706753  0.37570128  1
  V  V37  1  0.74827423  0.87335158  0.11889348  1
  V  V38  1  0.61359062  0.50020478  0.62344752  1
  V  V39  1  0.38473967  0.74223272  0.61920674  1
  V  V40  1  -0.01143832  0.13642856  0.13258785  1
  V  V41  1  -0.00585445  0.79178470  0.26931179  1
  V  V42  1  0.22834987  0.74732437  0.49315690  1
  V  V43  1  0.11747352  0.25212759  0.35959763  1
  V  V44  1  0.51361675  0.00311755  -0.00530826  1
  V  V45  1  0.15620654  0.89253936  0.27530066  1
  V  V46  1  0.39049462  0.87451324  0.49110865  1
  V  V47  1  -0.00361397  0.00939467  -0.00634133  1
  V  V48  1  0.25086428  0.10657441  0.86731683  1
  V  V49  1  0.38214947  0.11102049  0.74331528  1
  V  V50  1  0.73501846  0.36704404  0.64425009  1
  V  V51  1  0.76113499  0.38829504  0.13093701  1
  V  V52  1  0.62063882  0.75090676  0.89576196  1
  V  V53  1  0.02118124  0.65511801  0.08628938  1
  V  V54  1  0.13471683  0.11350352  0.01528565  1
  V  V55  1  0.37662733  -0.01179430  0.87777772  1
  V  V56  1  0.75688887  0.63375508  0.90453100  1
  V  V57  1  0.24644648  0.87947137  0.62911180  1
  V  V58  1  0.50362816  0.13560442  0.12457414  1
  V  V59  1  0.62771804  0.01228515  0.14021582  1
  V  V60  1  0.00421407  0.12133098  0.62885612  1
  V  V61  1  0.86063186  0.12113789  0.74560571  1
  V  V62  1  0.37099004  0.24623361  0.62086640  1
  V  V63  1  0.86883822  0.87100440  -0.00441429  1
  Zn  Zn64  1  0.20381104  0.17111717  0.19552128  1
  Zn  Zn65  1  0.19643837  0.17432945  0.68066699  1
  Zn  Zn66  1  0.22059996  0.65918004  0.14998168  1
  Zn  Zn67  1  0.21508414  0.68296650  0.68730084  1
  Zn  Zn68  1  0.71400679  0.18895341  0.15457415  1
  Zn  Zn69  1  0.66284410  0.15659169  0.74054262  1
  Zn  Zn70  1  0.68564222  0.68315358  0.19290654  1
  Zn  Zn71  1  0.68756096  0.69015483  0.65828944  1
  Zn  Zn72  1  0.31520852  0.30662154  0.31582349  1
  Zn  Zn73  1  0.31069167  0.28919987  0.81528300  1
  Zn  Zn74  1  0.31258511  0.80603359  0.31222241  1
  Zn  Zn75  1  0.31826165  0.81213658  0.80120433  1
  Zn  Zn76  1  0.80406515  0.31353549  0.31016985  1
  Zn  Zn77  1  0.80497386  0.29686743  0.82049599  1
  Zn  Zn78  1  0.80009640  0.82489876  0.31031096  1
  Zn  Zn79  1  0.77878862  0.78785779  0.78908293  1
  Zn  Zn80  1  0.19553456  0.43151344  0.30809266  1
  Zn  Zn81  1  0.21436328  0.43482412  0.83333370  1
  Zn  Zn82  1  0.22013985  0.95114892  0.45194777  1
  Zn  Zn83  1  0.17784963  0.91627006  0.96868658  1
  Zn  Zn84  1  0.67187591  0.42064706  0.45495916  1
  Zn  Zn85  1  0.70295915  0.44206452  0.94365549  1
  Zn  Zn86  1  0.68120310  0.94414995  0.43366404  1
  Zn  Zn87  1  0.68619227  0.93281630  0.92785679  1
  Zn  Zn88  1  0.32074233  0.05283501  0.06764597  1
  Zn  Zn89  1  0.31597701  0.05908523  0.55309240  1
  Zn  Zn90  1  0.30568619  0.53925964  0.03304461  1
  Zn  Zn91  1  0.30770090  0.57624654  0.54792718  1
  Zn  Zn92  1  0.81246196  0.07733759  0.06170397  1
  Zn  Zn93  1  0.79796548  0.06504893  0.56595326  1
  Zn  Zn94  1  0.81691971  0.59079806  0.10145092  1
  Zn  Zn95  1  0.84724187  0.53671717  0.61293026  1
  Zn  Zn96  1  0.43257109  0.43960288  0.17780380  1
  Zn  Zn97  1  0.38084150  0.40837943  0.71983339  1
  Zn  Zn98  1  0.44821656  0.92673140  0.18631853  1
  Zn  Zn99  1  0.43691739  0.92717929  0.68607295  1
  Zn  Zn100  1  0.89421517  0.45597633  0.28111943  1
  Zn  Zn101  1  0.91266260  0.41042566  0.73464911  1
  Zn  Zn102  1  0.92439639  0.96318244  0.17635273  1
  Zn  Zn103  1  0.88811920  0.89833183  0.72471801  1
  Zn  Zn104  1  0.07176804  0.05831909  0.30762637  1
  Zn  Zn105  1  0.05629857  0.07000265  0.81319415  1
  Zn  Zn106  1  0.06066759  0.59301855  0.25675349  1
  Zn  Zn107  1  0.08492509  0.56351980  0.90579778  1
  Zn  Zn108  1  0.55112966  0.19632348  0.30463374  1
  Zn  Zn109  1  0.54904874  0.09826079  0.84895099  1
  Zn  Zn110  1  0.55676844  0.55160900  0.30243609  1
  Zn  Zn111  1  0.57973726  0.59085434  0.79331919  1
  Zn  Zn112  1  0.43941961  0.18254386  0.43660693  1
  Zn  Zn113  1  0.43847019  0.18823286  0.93658912  1
  Zn  Zn114  1  0.43381338  0.68746729  0.43073434  1
  Zn  Zn115  1  0.40597453  0.70560745  0.90653655  1
  Zn  Zn116  1  0.94229280  0.06128531  0.43655036  1
  Zn  Zn117  1  0.94934975  0.18535668  0.92557670  1
  Zn  Zn118  1  0.89887443  0.75148156  0.42073889  1
  Zn  Zn119  1  0.94390064  0.69147648  0.92935774  1
  Zn  Zn120  1  0.06022149  0.29914332  0.03799705  1
  Zn  Zn121  1  0.00428418  0.25394800  0.48998996  1
  Zn  Zn122  1  0.04488314  0.86054808  0.10923219  1
  Zn  Zn123  1  0.05024102  0.81620002  0.55408319  1
  Zn  Zn124  1  0.59454696  0.36589749  0.04894609  1
  Zn  Zn125  1  0.54869192  0.31050928  0.56716834  1
  Zn  Zn126  1  0.56840892  0.82612808  0.06338786  1
  Zn  Zn127  1  0.56862018  0.79904372  0.55076944  1
  O  O128  1  0.12964356  0.11904819  0.11516841  1
  O  O129  1  0.10668162  0.13871815  0.61803333  1
  O  O130  1  0.10187266  0.61842485  0.14552465  1
  O  O131  1  0.16142570  0.57975627  0.63863737  1
  O  O132  1  0.61474798  0.12100183  0.12789924  1
  O  O133  1  0.60758637  0.08768125  0.65422129  1
  O  O134  1  0.62463193  0.62716500  0.11232511  1
  O  O135  1  0.63122178  0.60954924  0.60268090  1
  O  O136  1  0.37315450  0.39059327  0.38660395  1
  O  O137  1  0.38617769  0.33388407  0.89265653  1
  O  O138  1  0.36649595  0.86948220  0.39354858  1
  O  O139  1  0.37798026  0.88710909  0.87655582  1
  O  O140  1  0.86876808  0.39149498  0.37942549  1
  O  O141  1  0.86997227  0.38378609  0.85573062  1
  O  O142  1  0.85008510  0.87252136  0.40317132  1
  O  O143  1  0.86885591  0.90512745  0.89457648  1
  O  O144  1  0.30125960  0.02723291  0.44398085  1
  O  O145  1  0.26642241  0.00247456  0.88307170  1
  O  O146  1  0.25485404  0.51517768  0.36339471  1
  O  O147  1  0.18837483  0.52959596  0.87636229  1
  O  O148  1  0.73869070  0.01942189  0.35880110  1
  O  O149  1  0.75706134  0.01229968  0.88322672  1
  O  O150  1  0.73003248  0.48544282  0.35817433  1
  O  O151  1  0.74225102  0.52199621  0.86501214  1
  O  O152  1  0.20766588  0.46191573  0.11433258  1
  O  O153  1  0.20940644  0.52923682  0.61245249  1
  O  O154  1  0.26679747  0.97160908  0.11922571  1
  O  O155  1  0.25994542  0.97676685  0.62024806  1
  O  O156  1  0.79153586  0.48177699  0.10526263  1
  O  O157  1  0.74204836  0.47713143  0.63898914  1
  O  O158  1  0.74058422  1.01965927  0.13569129  1
  O  O159  1  0.73115502  0.98818453  0.61171359  1
  O  O160  1  0.02535426  0.41869056  0.26379977  1
  O  O161  1  0.01014910  0.38294239  0.78738724  1
  O  O162  1  -0.01387722  0.87776808  0.20665152  1
  O  O163  1  0.00486931  0.89761342  0.72653639  1
  O  O164  1  0.48481596  0.37571721  0.26142559  1
  O  O165  1  0.47815279  0.35331988  0.75343739  1
  O  O166  1  0.52396629  0.84568456  0.21903841  1
  O  O167  1  0.50006622  0.85262230  0.74399634  1
  O  O168  1  0.49666002  0.12656295  0.23108576  1
  O  O169  1  0.48327288  0.13188481  0.75672283  1
  O  O170  1  0.49501634  0.63265619  0.24507281  1
  O  O171  1  0.48859288  0.63578568  0.74281766  1
  O  O172  1  0.99243062  0.12353579  0.24088343  1
  O  O173  1  0.98805539  0.12291448  0.73205436  1
  O  O174  1  0.99578647  0.68794122  0.24562632  1
  O  O175  1  1.04749739  0.69125637  0.74461931  1
  O  O176  1  0.36794366  0.23850825  0.01061152  1
  O  O177  1  0.36866954  0.22013646  0.51700428  1
  O  O178  1  0.41099879  0.76774570  -0.00114218  1
  O  O179  1  0.37272385  0.74943728  0.51057879  1
  O  O180  1  0.87979297  0.24522105  -0.01067712  1
  O  O181  1  0.86036287  0.26299164  0.51927506  1
  O  O182  1  0.88410403  0.77569907  -0.00994247  1
  O  O183  1  0.85754019  0.77583725  0.51874595  1
  O  O184  1  0.13878956  0.24747821  0.48539856  1
  O  O185  1  0.14321864  0.22621489  0.99308562  1
  O  O186  1  0.13086240  0.75846151  0.49919219  1
  O  O187  1  0.07132780  0.80139965  0.91408635  1
  O  O188  1  0.63510489  0.25940241  0.50336400  1
  O  O189  1  0.61565347  0.25852106  0.99952548  1
  O  O190  1  0.62130604  0.72042540  0.48436125  1
  O  O191  1  0.61041886  0.75020273  0.99451871  1
  O  O192  1  0.48935871  0.23485359  0.11666178  1
  O  O193  1  0.48261254  0.24273929  0.63524997  1
  O  O194  1  0.51812628  0.78408365  0.15919596  1
  O  O195  1  0.48777947  0.74536016  0.62605609  1
  O  O196  1  1.01306938  0.23138515  0.11634300  1
  O  O197  1  0.97917528  0.24214010  0.61943992  1
  O  O198  1  1.02583700  0.75312560  0.08258298  1
  O  O199  1  0.97664562  0.75413424  0.61403090  1
  O  O200  1  0.01830260  0.24877782  0.37396279  1
  O  O201  1  0.03371924  0.22436636  0.86489878  1
  O  O202  1  -0.00770910  0.79912339  0.36810960  1
  O  O203  1  0.00859164  0.78074246  0.87212532  1
  O  O204  1  0.49179110  0.26374934  0.37196373  1
  O  O205  1  0.51594501  0.23757956  0.86553613  1
  O  O206  1  0.51188479  0.74110264  0.36750783  1
  O  O207  1  0.51422157  0.74021145  0.85836233  1
  O  O208  1  0.22720856  0.13665758  0.52178497  1
  O  O209  1  0.24323523  0.11320435  0.99771819  1
  O  O210  1  0.23808604  0.64011461  0.48701197  1
  O  O211  1  0.26429619  0.62485212  0.97452084  1
  O  O212  1  0.74669828  0.13892865  0.48783430  1
  O  O213  1  0.74494729  0.16422157  1.03893147  1
  O  O214  1  0.76879353  0.54418106  0.37960728  1
  O  O215  1  0.76041621  0.62423855  1.00301695  1
  O  O216  1  0.25953236  0.34231399  -0.00175280  1
  O  O217  1  0.27493644  0.34563086  0.50013543  1
  O  O218  1  0.27798987  0.86726597  -0.00031934  1
  O  O219  1  0.26098045  0.85778747  0.51132218  1
  O  O220  1  0.75983897  0.36559683  0.01253056  1
  O  O221  1  0.75715578  0.36285216  0.50318920  1
  O  O222  1  0.75773462  0.88111060  0.00632700  1
  O  O223  1  0.74845015  0.90269917  0.51498415  1
  O  O224  1  0.08217624  0.47014700  0.25912867  1
  O  O225  1  0.02937899  0.54487460  0.69007930  1
  O  O226  1  0.12430115  0.98178607  0.24245872  1
  O  O227  1  0.11973372  1.00714992  0.73993350  1
  O  O228  1  0.62111507  0.51028202  0.21779295  1
  O  O229  1  0.63995579  0.51168051  0.73543522  1
  O  O230  1  0.63510487  1.00661218  0.23871426  1
  O  O231  1  0.57185484  1.02306326  0.67923365  1
  O  O232  1  0.39720772  -0.00229157  0.25110305  1
  O  O233  1  0.38671921  0.00382130  0.76386380  1
  O  O234  1  0.36992972  0.50500748  0.25124555  1
  O  O235  1  0.38217678  0.51821561  0.72293297  1
  O  O236  1  0.86060513  0.02071359  0.24824984  1
  O  O237  1  0.87610973  0.00888743  0.76802764  1
  O  O238  1  0.93573997  0.55702483  0.26169216  1
  O  O239  1  0.84922138  0.50563878  0.73377079  1
  O  O240  1  0.14253583  0.34949736  0.36542559  1
  O  O241  1  0.14865978  0.34501397  0.87652262  1
  O  O242  1  0.16260564  0.89495700  0.37432021  1
  O  O243  1  0.11048659  0.86463677  0.88429330  1
  O  O244  1  0.59342230  0.38979996  0.38060507  1
  O  O245  1  0.63534701  0.35815516  0.88065814  1
  O  O246  1  0.62696480  0.85717650  0.38272269  1
  O  O247  1  0.63413396  0.84926388  0.87294414  1
  O  O248  1  0.38963834  0.12303626  0.13126920  1
  O  O249  1  0.36832355  0.11644754  0.64077410  1
  O  O250  1  0.28912904  0.57458369  0.13383274  1
  O  O251  1  0.35774751  0.64080706  0.62996116  1
  O  O252  1  0.88529874  0.13461472  0.13936242  1
  O  O253  1  0.87898951  0.13137925  0.62825496  1
  O  O254  1  0.92618538  0.62670240  0.11075572  1
  O  O255  1  0.85805759  0.64673042  0.61876351  1
  O  O256  1  0.26581519  0.23062376  0.11426063  1
  O  O257  1  0.26590699  0.24300089  0.62166438  1
  O  O258  1  0.24856884  0.76578446  0.12566622  1
  O  O259  1  0.25247778  0.75349078  0.60967241  1
  O  O260  1  0.78469572  0.27959729  0.12216198  1
  O  O261  1  0.74777407  0.25721707  0.61427266  1
  O  O262  1  0.73603353  0.77846382  0.13335056  1
  O  O263  1  0.75642416  0.77192998  0.62898255  1
  O  O264  1  0.26257194  0.23407445  0.39148585  1
  O  O265  1  0.25263842  0.22055947  0.89010371  1
  O  O266  1  0.24839811  0.74138532  0.38762453  1
  O  O267  1  0.29315016  0.73569456  0.87675269  1
  O  O268  1  0.75716020  0.24446719  0.38977325  1
  O  O269  1  0.74282100  0.25284317  0.90459006  1
  O  O270  1  0.73560290  0.74810308  0.36864264  1
  O  O271  1  0.73776313  0.74111864  0.88237879  1
  O  O272  1  0.01767515  0.12430235  0.00585920  1
  O  O273  1  0.00903880  0.13388756  0.50746487  1
  O  O274  1  0.02693177  0.63068840  -0.01603676  1
  O  O275  1  0.05384596  0.59658846  0.52066321  1
  O  O276  1  0.49351970  0.11051133  0.01140774  1
  O  O277  1  0.52312547  0.11643010  0.49374633  1
  O  O278  1  0.50084053  0.55872712  -0.04224502  1
  O  O279  1  0.49738515  0.61464254  0.49833659  1
  O  O280  1  0.47534544  0.36444652  0.49281680  1
  O  O281  1  0.49071846  0.36889594  1.00700157  1
  O  O282  1  0.48884398  0.85892145  0.49939298  1
  O  O283  1  0.49504055  0.89709005  1.00764490  1
  O  O284  1  0.97284246  0.36302008  0.50072973  1
  O  O285  1  1.00453870  0.35676956  0.96262727  1
  O  O286  1  0.97397725  0.88706289  0.50959626  1
  O  O287  1  0.97831572  0.90653294  1.01438076  1
  O  O288  1  0.47608352  0.49114185  0.36758021  1
  O  O289  1  0.51861040  0.51723666  0.90172272  1
  O  O290  1  0.54481213  1.05115421  0.45633650  1
  O  O291  1  0.49138072  1.00961846  0.88654615  1
  O  O292  1  1.06384833  0.52783111  0.50325640  1
  O  O293  1  0.98964645  0.50405871  0.89059554  1
  O  O294  1  0.99360645  1.00206774  0.36126449  1
  O  O295  1  0.98887722  1.01648416  0.88961353  1
  O  O296  1  -0.00828190  0.02687663  0.10707568  1
  O  O297  1  0.00656448  0.01716024  0.61786318  1
  O  O298  1  -0.03667233  0.41495224  0.13311875  1
  O  O299  1  -0.00991678  0.49875084  0.64847676  1
  O  O300  1  0.51802693  0.00624765  0.11676055  1
  O  O301  1  0.51226051  0.00021690  0.63112336  1
  O  O302  1  0.49544132  0.51169055  0.11706894  1
  O  O303  1  0.51973786  0.48939758  0.63310801  1
  O  O304  1  0.26638567  0.37596935  0.24536593  1
  O  O305  1  0.27954027  0.38232458  0.76345643  1
  O  O306  1  0.25189143  0.87238644  0.23649376  1
  O  O307  1  0.24971603  0.86124519  0.72883638  1
  O  O308  1  0.67132555  0.30351373  0.27781899  1
  O  O309  1  0.73499894  0.35708745  0.74263790  1
  O  O310  1  0.75722059  0.90255018  0.23384174  1
  O  O311  1  0.75332888  0.88765054  0.73644847  1
  O  O312  1  0.27907841  0.10526795  0.24347037  1
  O  O313  1  0.26335611  0.11535005  0.76284475  1
  O  O314  1  0.25087990  0.65221256  0.26709623  1
  O  O315  1  0.26777863  0.62654997  0.76663183  1
  O  O316  1  0.76273083  0.13042612  0.25686314  1
  O  O317  1  0.76344410  0.10961785  0.72918834  1
  O  O318  1  0.79379167  0.63668129  0.21076649  1
  O  O319  1  0.74923658  0.62478878  0.74317033  1
  O  O320  1  0.39872910  0.12137174  0.35201635  1
  O  O321  1  0.36768768  0.11275610  0.87018877  1
  O  O322  1  0.36500877  0.60850678  0.38163185  1
  O  O323  1  0.38631599  0.60582560  0.85655698  1
  O  O324  1  0.86691268  0.12617274  0.36733402  1
  O  O325  1  0.87469384  0.12493495  0.85494617  1
  O  O326  1  0.87368403  0.65793950  0.36115835  1
  O  O327  1  0.85452416  0.64174778  0.87890101  1
  O  O328  1  0.12305478  0.36117031  0.11790712  1
  O  O329  1  0.12746786  0.39064657  0.67382287  1
  O  O330  1  0.15070605  0.87897500  0.08182133  1
  O  O331  1  0.13081669  0.88222486  0.61927703  1
  O  O332  1  0.66220763  0.37832594  0.14428555  1
  O  O333  1  0.63188931  0.38212317  0.61536681  1
  O  O334  1  0.64381647  0.90541384  0.11058521  1
  O  O335  1  0.63147785  0.86144021  0.62076621  1
  O  O336  1  0.13586455  0.22425914  0.26391640  1
  O  O337  1  0.15255185  0.23712559  0.76212154  1
  O  O338  1  0.10260599  0.80420122  0.25195768  1
  O  O339  1  0.10295244  0.73317358  0.72174628  1
  O  O340  1  0.63814532  0.24898206  0.23460308  1
  O  O341  1  0.60184759  0.25320484  0.73323715  1
  O  O342  1  0.61936073  0.73098994  0.27136604  1
  O  O343  1  0.61131385  0.73514067  0.73540052  1
  O  O344  1  0.37377254  0.24082218  0.23500939  1
  O  O345  1  0.37753855  0.22949889  0.73939877  1
  O  O346  1  0.39551716  0.75300296  0.26066551  1
  O  O347  1  0.38790437  0.74103451  0.73673207  1
  O  O348  1  0.88003738  0.24040025  0.26193418  1
  O  O349  1  0.86111347  0.23165441  0.73922035  1
  O  O350  1  0.88256330  0.76771587  0.25193704  1
  O  O351  1  0.87507394  0.77880559  0.73127749  1
  O  O352  1  0.36327653  0.48698540  0.51486876  1
  O  O353  1  0.36324113  0.46223777  0.98409652  1
  O  O354  1  0.39080362  0.97456692  0.51625833  1
  O  O355  1  0.38679877  0.99107995  0.98861629  1
  O  O356  1  0.87015483  0.47822801  0.51885086  1
  O  O357  1  0.98678556  0.47015553  1.09283883  1
  O  O358  1  0.86985948  1.00532807  0.50212664  1
  O  O359  1  0.88135698  1.02876522  0.98727691  1
  O  O360  1  0.11008675  0.00960026  -0.00792168  1
  O  O361  1  0.12959152  0.01510984  0.50061248  1
  O  O362  1  0.14809098  0.42772936  0.08152186  1
  O  O363  1  0.12226366  0.40452025  0.60329077  1
  O  O364  1  0.61432595  0.00273672  -0.01024851  1
  O  O365  1  0.60420345  0.01580983  0.49247104  1
  O  O366  1  0.63118797  0.47884407  0.03024736  1
  O  O367  1  0.62472076  0.50410799  0.51182868  1
  O  O368  1  0.38096863  0.35096389  0.11438565  1
  O  O369  1  0.37780093  0.35254664  0.61256493  1
  O  O370  1  0.37752447  0.86945920  0.11257638  1
  O  O371  1  0.36670156  0.85679452  0.62164032  1
  O  O372  1  0.81116703  0.39387099  0.22966399  1
  O  O373  1  0.85854224  0.35799671  0.64360465  1
  O  O374  1  0.85500747  0.89604508  0.10667859  1
  O  O375  1  0.85394403  0.88515281  0.61342443  1
  O  O376  1  0.12321482  0.12810821  0.39042144  1
  O  O377  1  0.14519769  0.11646336  0.87781148  1
  O  O378  1  0.13051958  0.61006281  0.35075005  1
  O  O379  1  0.14321204  0.67218980  0.87477304  1
  O  O380  1  0.63995383  0.14280387  0.36068500  1
  O  O381  1  0.64308975  0.15393284  0.85436546  1
  O  O382  1  0.61624026  0.60162084  0.39038532  1
  O  O383  1  0.63986199  0.63965906  0.87768968  1
