# generated using pymatgen
data_VZnO4
_symmetry_space_group_name_H-M   'P 1'
_cell_length_a   16.91927742
_cell_length_b   16.86553311
_cell_length_c   16.93189440
_cell_angle_alpha   90.16244277
_cell_angle_beta   90.37563212
_cell_angle_gamma   89.84185436
_symmetry_Int_Tables_number   1
_chemical_formula_structural   VZnO4
_chemical_formula_sum   'V64 Zn64 O256'
_cell_volume   4831.41924675
_cell_formula_units_Z   64
loop_
 _symmetry_equiv_pos_site_id
 _symmetry_equiv_pos_as_xyz
  1  'x, y, z'
loop_
 _atom_site_type_symbol
 _atom_site_label
 _atom_site_symmetry_multiplicity
 _atom_site_fract_x
 _atom_site_fract_y
 _atom_site_fract_z
 _atom_site_occupancy
  V  V0  1  0.86687947  0.36959879  0.00317738  1
  V  V1  1  0.88219218  0.86115242  -0.00136228  1
  V  V2  1  0.10838750  0.74748867  0.37374756  1
  V  V3  1  0.74805121  0.12869652  0.87571914  1
  V  V4  1  0.12825370  0.23504235  0.88913794  1
  V  V5  1  0.63384032  -0.00456830  0.12248331  1
  V  V6  1  0.15619217  0.91689647  0.73551370  1
  V  V7  1  0.61381531  0.25888383  0.87466490  1
  V  V8  1  0.25516889  0.23816850  0.00530275  1
  V  V9  1  0.00927170  0.38051779  0.88729711  1
  V  V10  1  0.01491231  0.88058481  0.87618692  1
  V  V11  1  0.21735499  0.11952139  0.36045657  1
  V  V12  1  0.63830554  0.12689631  -0.00178876  1
  V  V13  1  0.60292514  0.75769021  0.37589870  1
  V  V14  1  0.86597395  0.62090687  0.72901912  1
  V  V15  1  0.01803145  0.50908050  0.49749379  1
  V  V16  1  0.76349798  0.86667303  0.13382545  1
  V  V17  1  0.36359278  0.50360180  0.86991043  1
  V  V18  1  0.24859606  0.38481848  0.11450157  1
  V  V19  1  0.12506247  0.86112463  0.23932108  1
  V  V20  1  0.88284037  0.12434487  0.74301241  1
  V  V21  1  0.73907352  -0.00291074  0.73947463  1
  V  V22  1  0.24935930  0.76064139  0.49989459  1
  V  V23  1  0.88060272  0.51037786  0.37415544  1
  V  V24  1  0.63481183  0.84718785  0.75316474  1
  V  V25  1  0.35842497  0.12689750  0.23868626  1
  V  V26  1  0.01589996  -0.01472341  0.53764118  1
  V  V27  1  0.38773137  0.37273590  0.00061826  1
  V  V28  1  0.60849477  0.13200442  0.49189947  1
  V  V29  1  0.00558031  0.74975078  0.73835827  1
  V  V30  1  0.86047247  0.76595727  0.62422314  1
  V  V31  1  0.50986488  0.15007584  0.12708915  1
  V  V32  1  0.37545432  0.63203101  0.25684298  1
  V  V33  1  0.50770336  0.85861246  0.87524593  1
  V  V34  1  0.60819364  0.88082868  0.25528004  1
  V  V35  1  0.62920951  0.62018091  0.50777152  1
  V  V36  1  0.63021238  0.62600527  -0.01647112  1
  V  V37  1  0.47527141  0.37315385  0.36768347  1
  V  V38  1  0.46589855  0.50848050  0.50991525  1
  V  V39  1  0.00163609  0.24475160  0.75384921  1
  V  V40  1  0.49535706  0.24877727  0.73673756  1
  V  V41  1  0.87372186  0.51344489  0.88554358  1
  V  V42  1  0.61814716  0.39912469  0.25097311  1
  V  V43  1  0.63573274  0.26682628  0.38007832  1
  V  V44  1  0.35889368  0.75511747  0.11138494  1
  V  V45  1  0.12163224  0.37405674  0.24855372  1
  V  V46  1  0.14329537  0.74681633  0.86638966  1
  V  V47  1  0.38432172  0.66808053  0.71250871  1
  V  V48  1  0.74728437  0.74548036  -0.01265014  1
  V  V49  1  0.13302197  0.60563404  0.02432107  1
  V  V50  1  0.25489068  0.50055319  0.24549988  1
  V  V51  1  0.24212873  0.61985472  0.37919455  1
  V  V52  1  0.36823457  0.00582189  0.87962193  1
  V  V53  1  0.87238127  -0.00191770  0.88493193  1
  V  V54  1  0.50178216  -0.00864753  -0.00058686  1
  V  V55  1  0.51122540  0.49761332  -0.00293605  1
  V  V56  1  0.50867399  0.62864970  0.13455127  1
  V  V57  1  0.36517619  0.12436347  0.74002823  1
  V  V58  1  -0.00404794  0.12491816  0.12304768  1
  V  V59  1  0.75752403  0.39664654  0.13650062  1
  V  V60  1  0.88909402  0.88314988  0.48394537  1
  V  V61  1  0.76128999  0.75428681  0.47879390  1
  V  V62  1  0.35816376  0.32814706  0.51985730  1
  V  V63  1  0.11803426  0.13686592  0.52166998  1
  Zn  Zn64  1  0.19215907  0.19461258  0.17803375  1
  Zn  Zn65  1  0.16218108  0.12729362  0.72969014  1
  Zn  Zn66  1  0.18353284  0.68452472  0.18397285  1
  Zn  Zn67  1  0.21934081  0.71347937  0.70869863  1
  Zn  Zn68  1  0.69777772  0.22744109  0.19008416  1
  Zn  Zn69  1  0.67964643  0.18470905  0.69250781  1
  Zn  Zn70  1  0.68239395  0.70217752  0.18694210  1
  Zn  Zn71  1  0.65378506  0.63310597  0.72958272  1
  Zn  Zn72  1  0.30125230  0.29678035  0.30163054  1
  Zn  Zn73  1  0.31820625  0.30515981  0.82304540  1
  Zn  Zn74  1  0.28881865  0.80139304  0.29478727  1
  Zn  Zn75  1  0.32244313  0.83544469  0.80665634  1
  Zn  Zn76  1  0.79710735  0.35788517  0.34983731  1
  Zn  Zn77  1  0.81811000  0.30963900  0.82544808  1
  Zn  Zn78  1  0.84003206  0.80807695  0.30766087  1
  Zn  Zn79  1  0.81456697  0.80925999  0.81236117  1
  Zn  Zn80  1  0.19409960  0.42726691  0.42930595  1
  Zn  Zn81  1  0.18796204  0.44414398  0.93462367  1
  Zn  Zn82  1  0.18242637  0.93786457  0.42434892  1
  Zn  Zn83  1  0.19322284  0.90797770  0.94344014  1
  Zn  Zn84  1  0.67215602  0.47012087  0.40568382  1
  Zn  Zn85  1  0.69247811  0.44624841  0.92660448  1
  Zn  Zn86  1  0.68909866  0.93522813  0.44132673  1
  Zn  Zn87  1  0.69137519  0.93417232  0.93479506  1
  Zn  Zn88  1  0.33201530  0.05934898  0.07713092  1
  Zn  Zn89  1  0.31829488  0.12597849  0.53578782  1
  Zn  Zn90  1  0.31962551  0.57001957  0.05816540  1
  Zn  Zn91  1  0.29125005  0.58208814  0.57697743  1
  Zn  Zn92  1  0.80464588  0.05690243  0.19116808  1
  Zn  Zn93  1  0.74484111  0.07198337  0.55747247  1
  Zn  Zn94  1  0.81991763  0.56131716  0.06056802  1
  Zn  Zn95  1  0.83292613  0.57283751  0.52512179  1
  Zn  Zn96  1  0.43496455  0.44532043  0.18081573  1
  Zn  Zn97  1  0.42696361  0.41919349  0.68365824  1
  Zn  Zn98  1  0.43142374  0.93933253  0.18307352  1
  Zn  Zn99  1  0.46527177  0.82601270  0.67515626  1
  Zn  Zn100  1  0.91686191  0.41496359  0.22812828  1
  Zn  Zn101  1  0.95889111  0.44430015  0.70823282  1
  Zn  Zn102  1  0.96815660  0.92203062  0.17862898  1
  Zn  Zn103  1  0.93102338  0.93773464  0.69827497  1
  Zn  Zn104  1  0.05284245  0.04615183  0.30302717  1
  Zn  Zn105  1  0.08077773  0.03947206  0.86040517  1
  Zn  Zn106  1  0.06480303  0.55093963  0.30290703  1
  Zn  Zn107  1  0.05561898  0.57631629  0.81784971  1
  Zn  Zn108  1  0.62827752  0.09789784  0.27965210  1
  Zn  Zn109  1  0.55341203  0.06372372  0.80924854  1
  Zn  Zn110  1  0.54497422  0.56628031  0.33409817  1
  Zn  Zn111  1  0.51522606  0.53564988  0.78148964  1
  Zn  Zn112  1  0.44098551  0.17812017  0.41096959  1
  Zn  Zn113  1  0.44290967  0.18357863  0.94544709  1
  Zn  Zn114  1  0.44517980  0.70545368  0.52794105  1
  Zn  Zn115  1  0.43515701  0.68221169  0.94133953  1
  Zn  Zn116  1  0.90527874  0.12868332  0.52549237  1
  Zn  Zn117  1  0.93040125  0.19271368  0.93487559  1
  Zn  Zn118  1  0.95162572  0.67597000  0.45252568  1
  Zn  Zn119  1  0.95946028  0.69128407  0.94729084  1
  Zn  Zn120  1  0.06469804  0.31992792  0.06550230  1
  Zn  Zn121  1  0.08071820  0.31073974  0.58175744  1
  Zn  Zn122  1  0.07910332  0.78910205  0.04948470  1
  Zn  Zn123  1  0.07845599  0.80393402  0.56919104  1
  Zn  Zn124  1  0.59492958  0.32263542  0.06625012  1
  Zn  Zn125  1  0.53684057  0.30812257  0.54926981  1
  Zn  Zn126  1  0.56343949  0.80728281  0.06750120  1
  Zn  Zn127  1  0.61284378  0.77680164  0.59208976  1
  O  O128  1  0.10089819  0.12455587  0.12642069  1
  O  O129  1  0.14127990  0.13516140  0.61814888  1
  O  O130  1  0.13137003  0.60269025  0.12577437  1
  O  O131  1  0.15278107  0.56120169  0.67416096  1
  O  O132  1  0.62727890  0.11448457  0.10703473  1
  O  O133  1  0.65065302  0.14332528  0.59103088  1
  O  O134  1  0.61117155  0.62787695  0.13839960  1
  O  O135  1  0.62561568  0.65615707  0.60468052  1
  O  O136  1  0.37747480  0.37154587  0.35066234  1
  O  O137  1  0.37606676  0.38274773  0.89342141  1
  O  O138  1  0.36217425  0.87830386  0.36854523  1
  O  O139  1  0.40211321  0.88794604  0.86952252  1
  O  O140  1  0.90271522  0.38240728  0.33738415  1
  O  O141  1  0.88062104  0.38370441  0.88829238  1
  O  O142  1  0.89982769  0.87150975  0.38591501  1
  O  O143  1  0.88175620  0.87711784  0.88200546  1
  O  O144  1  0.23970635  0.01783045  0.36687554  1
  O  O145  1  0.27349499  -0.02505664  0.90234506  1
  O  O146  1  0.25081952  0.51134729  0.36021544  1
  O  O147  1  0.26410363  0.48972343  0.86490500  1
  O  O148  1  0.78180552  0.00531990  0.36368510  1
  O  O149  1  0.75851135  0.00688715  0.86882650  1
  O  O150  1  0.78399084  0.46688950  0.40098497  1
  O  O151  1  0.77405028  0.50261470  0.87167543  1
  O  O152  1  0.26208951  0.49214048  0.13114259  1
  O  O153  1  0.21152278  0.51974101  0.63902133  1
  O  O154  1  0.22095221  0.99480198  0.09332767  1
  O  O155  1  0.28955498  0.95928054  0.59820967  1
  O  O156  1  0.74787884  0.49668893  0.12180341  1
  O  O157  1  0.79757376  0.46137430  0.61954955  1
  O  O158  1  0.74208862  0.98093015  0.12132255  1
  O  O159  1  0.75284827  0.99690407  0.64056238  1
  O  O160  1  0.02682502  0.39705166  0.21874837  1
  O  O161  1  -0.00972756  0.35536868  0.77415996  1
  O  O162  1  -0.06000737  0.80935281  0.23725077  1
  O  O163  1  -0.01415452  0.85763048  0.76247557  1
  O  O164  1  0.50621610  0.40049183  0.26471634  1
  O  O165  1  0.49260135  0.34941154  0.75122165  1
  O  O166  1  0.51021303  0.88166084  0.24922463  1
  O  O167  1  0.52182357  0.86699320  0.76406297  1
  O  O168  1  0.52574310  0.12146538  0.22362499  1
  O  O169  1  0.48111739  0.13212520  0.75671020  1
  O  O170  1  0.48676081  0.61674375  0.24576199  1
  O  O171  1  0.47096720  0.64264922  0.75792921  1
  O  O172  1  0.99383201  0.12420693  0.22762429  1
  O  O173  1  0.98646829  0.12978826  0.76367055  1
  O  O174  1  1.00196565  0.61109882  0.21227929  1
  O  O175  1  0.97682205  0.64770658  0.76278124  1
  O  O176  1  0.36701650  0.26423985  -0.00872526  1
  O  O177  1  0.37080539  0.22510253  0.49984831  1
  O  O178  1  0.36930508  0.74152099  0.01122999  1
  O  O179  1  0.34860120  0.74974376  0.48922453  1
  O  O180  1  0.86728285  0.26885003  -0.00579669  1
  O  O181  1  0.80309435  0.14030437  0.49247274  1
  O  O182  1  0.86442842  0.75369015  -0.00472445  1
  O  O183  1  0.87680611  0.75764882  0.50765406  1
  O  O184  1  0.10033917  0.23449493  0.50144242  1
  O  O185  1  0.14097459  0.25626054  0.99895685  1
  O  O186  1  0.12505872  0.74844045  0.47909721  1
  O  O187  1  0.15895973  0.79509934  0.95931354  1
  O  O188  1  0.61179217  0.24860649  0.48627256  1
  O  O189  1  0.62316853  0.23310066  0.98712098  1
  O  O190  1  0.65043507  0.77192986  0.47963271  1
  O  O191  1  0.63699508  0.73830312  1.00461792  1
  O  O192  1  0.52817943  0.24806610  0.12211773  1
  O  O193  1  0.50439079  0.24382600  0.63632643  1
  O  O194  1  0.49304329  0.73269431  0.11981260  1
  O  O195  1  0.50034906  0.78996534  0.57864506  1
  O  O196  1  1.00037838  0.23069734  0.12198269  1
  O  O197  1  1.00748253  0.25393042  0.65541718  1
  O  O198  1  0.94950767  0.74861699  0.19291059  1
  O  O199  1  0.99115072  0.75291918  0.63565833  1
  O  O200  1  0.01843969  0.24670556  0.34645061  1
  O  O201  1  0.01156228  0.25674124  0.88312808  1
  O  O202  1  0.00878583  0.73084107  0.37194834  1
  O  O203  1  0.02206947  0.76446291  0.86889409  1
  O  O204  1  0.49819170  0.27102983  0.36988802  1
  O  O205  1  0.51145343  0.24849757  0.88033714  1
  O  O206  1  0.50890093  0.76837359  0.38833043  1
  O  O207  1  0.49904579  0.76069455  0.88678628  1
  O  O208  1  0.21629920  0.12043368  0.48004584  1
  O  O209  1  0.26358756  0.14032997  1.02051661  1
  O  O210  1  0.24197972  0.62488524  0.48012079  1
  O  O211  1  0.23186570  0.62231920  1.00531369  1
  O  O212  1  0.78131459  0.07862150  0.37255012  1
  O  O213  1  0.74015921  0.11977133  0.98987326  1
  O  O214  1  0.74145806  0.64630189  0.49853702  1
  O  O215  1  0.74163305  0.63459650  1.00964765  1
  O  O216  1  0.26320469  0.37990855  0.00637943  1
  O  O217  1  0.27297919  0.36419030  0.48058950  1
  O  O218  1  0.21815296  0.92413498  0.06762057  1
  O  O219  1  0.23730948  0.86067993  0.48807283  1
  O  O220  1  0.76510786  0.39159076  0.00581012  1
  O  O221  1  0.69768354  0.36574587  0.56634899  1
  O  O222  1  0.75692517  0.86085044  0.00289625  1
  O  O223  1  0.77687806  0.87143292  0.48685509  1
  O  O224  1  0.14845861  0.49304188  0.24499102  1
  O  O225  1  0.11599327  0.51800553  0.73083990  1
  O  O226  1  0.06103538  0.94818621  0.25444899  1
  O  O227  1  0.13032797  1.01805485  0.75769894  1
  O  O228  1  0.63243826  0.49560531  0.29521303  1
  O  O229  1  0.61808030  0.53090641  0.74735301  1
  O  O230  1  0.63209684  0.98538672  0.24121535  1
  O  O231  1  0.63939508  1.01069498  0.75325854  1
  O  O232  1  0.36080533  0.02635386  0.18804443  1
  O  O233  1  0.37471801  0.01732903  0.77578761  1
  O  O234  1  0.36455539  0.51326900  0.24538977  1
  O  O235  1  0.40243208  0.49111289  0.77106220  1
  O  O236  1  0.89282114  -0.00225555  0.22563450  1
  O  O237  1  0.86074782  0.00896921  0.75776203  1
  O  O238  1  0.87656206  0.51839233  0.27275562  1
  O  O239  1  0.88766249  0.51959269  0.75796963  1
  O  O240  1  0.13008145  0.37543266  0.34895055  1
  O  O241  1  0.11200230  0.36749760  0.88554544  1
  O  O242  1  0.12008438  0.85464509  0.35830442  1
  O  O243  1  0.12488944  0.86318256  0.82146049  1
  O  O244  1  0.60744625  0.37314359  0.38825336  1
  O  O245  1  0.63425359  0.35683510  0.88390759  1
  O  O246  1  0.63121319  0.87501774  0.36205369  1
  O  O247  1  0.61825765  0.87681512  0.86665512  1
  O  O248  1  0.40660898  0.14443899  0.11942363  1
  O  O249  1  0.35884619  0.11466914  0.64061095  1
  O  O250  1  0.38222366  0.63491387  0.13316139  1
  O  O251  1  0.38552217  0.64162961  0.61209363  1
  O  O252  1  0.89066005  0.12640651  0.12622211  1
  O  O253  1  0.87916915  0.12672067  0.64460962  1
  O  O254  1  0.91357197  0.61741948  0.11349833  1
  O  O255  1  0.86804534  0.63226180  0.62580707  1
  O  O256  1  0.25288133  0.26811241  0.10993704  1
  O  O257  1  0.21469257  0.32933766  0.68912023  1
  O  O258  1  0.25750239  0.74955917  0.12590763  1
  O  O259  1  0.22732995  0.73544627  0.59868325  1
  O  O260  1  0.70687820  0.30320884  0.10888253  1
  O  O261  1  0.75161878  0.28905570  0.67559476  1
  O  O262  1  0.75107022  0.76221429  0.11553517  1
  O  O263  1  0.76177487  0.76091516  0.60594796  1
  O  O264  1  0.25917261  0.21466255  0.36694080  1
  O  O265  1  0.23738512  0.25311841  0.89130185  1
  O  O266  1  0.23690256  0.73721319  0.37729239  1
  O  O267  1  0.23821852  0.75630996  0.82520762  1
  O  O268  1  0.73559419  0.27239561  0.38534694  1
  O  O269  1  0.73682207  0.23470794  0.86589259  1
  O  O270  1  0.76888397  0.75349102  0.37944813  1
  O  O271  1  0.75082799  0.74913383  0.88842547  1
  O  O272  1  -0.00847968  0.13231153  0.01775815  1
  O  O273  1  0.01164397  0.09996923  0.51393056  1
  O  O274  1  0.05061707  0.68186096  0.01572295  1
  O  O275  1  0.01414811  0.60818784  0.52175401  1
  O  O276  1  0.51457772  0.11147836  0.00976425  1
  O  O277  1  0.51004348  0.12322482  0.49285547  1
  O  O278  1  0.51827717  0.62014983  0.00824012  1
  O  O279  1  0.51009209  0.60915679  0.50405340  1
  O  O280  1  0.45549048  0.36975981  0.48850403  1
  O  O281  1  0.49978748  0.38731742  1.01361329  1
  O  O282  1  0.47951688  0.95757915  0.46828627  1
  O  O283  1  0.51987974  0.88352368  0.98901997  1
  O  O284  1  1.00836445  0.39961340  0.55698895  1
  O  O285  1  0.98909837  0.37225421  0.99391042  1
  O  O286  1  0.99926353  0.87736156  0.51544233  1
  O  O287  1  0.98468416  0.85339254  0.99325275  1
  O  O288  1  0.49553043  0.48459159  0.40464413  1
  O  O289  1  0.49850971  0.50188767  0.89688178  1
  O  O290  1  0.38824443  0.93768854  0.33402282  1
  O  O291  1  0.49791904  0.99875110  0.89072115  1
  O  O292  1  0.99639146  0.51236103  0.38458292  1
  O  O293  1  0.99615583  0.48494346  0.86534994  1
  O  O294  1  0.94616851  1.04604638  0.35820217  1
  O  O295  1  0.97322484  0.99286313  0.85573076  1
  O  O296  1  -0.00120162  0.02174203  0.11041238  1
  O  O297  1  0.01094166  -0.00739352  0.63651324  1
  O  O298  1  -0.03996602  0.57023733  0.16004660  1
  O  O299  1  0.01986774  0.46508258  0.61207072  1
  O  O300  1  0.52122777  -0.01211103  0.11136236  1
  O  O301  1  0.42976607  -0.00880855  0.51275901  1
  O  O302  1  0.49023843  0.52009963  0.10889011  1
  O  O303  1  0.49360220  0.47157636  0.60091404  1
  O  O304  1  0.25263648  0.38358460  0.23398887  1
  O  O305  1  0.24538420  0.37038295  0.74922766  1
  O  O306  1  0.22363841  0.87971261  0.23689691  1
  O  O307  1  0.25473170  0.90463494  0.74135057  1
  O  O308  1  0.74024419  0.38733318  0.24110796  1
  O  O309  1  0.74782386  0.34300678  0.72976717  1
  O  O310  1  0.77111863  0.86623824  0.23461225  1
  O  O311  1  0.74140083  0.88772177  0.76536684  1
  O  O312  1  0.24845020  0.12040549  0.24524355  1
  O  O313  1  0.26825366  0.13746585  0.76746117  1
  O  O314  1  0.25765466  0.61513477  0.24856346  1
  O  O315  1  0.29552299  0.63011800  0.74257125  1
  O  O316  1  0.73070226  0.13078884  0.23162959  1
  O  O317  1  0.75824679  0.11691071  0.75641320  1
  O  O318  1  0.77080289  0.64536726  0.25165963  1
  O  O319  1  0.77087984  0.63006686  0.75326876  1
  O  O320  1  0.39472825  0.10905667  0.33170792  1
  O  O321  1  0.37258959  0.10667652  0.89886887  1
  O  O322  1  0.35737633  0.63099046  0.35770643  1
  O  O323  1  0.37380694  0.60308180  0.88895036  1
  O  O324  1  0.91916505  0.11472377  0.36624943  1
  O  O325  1  0.86664140  0.11281222  0.87867739  1
  O  O326  1  0.86758551  0.61023380  0.40623730  1
  O  O327  1  0.89272983  0.61443868  0.89256915  1
  O  O328  1  0.14573624  0.38483182  0.11687790  1
  O  O329  1  0.15681693  0.36980249  0.65135903  1
  O  O330  1  0.07661345  0.85185455  0.14282531  1
  O  O331  1  0.12593959  0.87531238  0.64801304  1
  O  O332  1  0.61091210  0.41201249  0.15234518  1
  O  O333  1  0.63249078  0.38094938  0.59707847  1
  O  O334  1  0.63717098  0.87248648  0.14022690  1
  O  O335  1  0.62946761  0.87118449  0.65494222  1
  O  O336  1  0.13206003  0.27347971  0.22929325  1
  O  O337  1  0.11067879  0.22876110  0.77571520  1
  O  O338  1  0.12240733  0.75194111  0.25656029  1
  O  O339  1  0.10737042  0.72963283  0.74406502  1
  O  O340  1  0.62639380  0.28675049  0.26785183  1
  O  O341  1  0.60771610  0.23454280  0.76628845  1
  O  O342  1  0.62498304  0.76444726  0.26679308  1
  O  O343  1  0.64311749  0.74751502  0.75316703  1
  O  O344  1  0.36522166  0.22892699  0.23309905  1
  O  O345  1  0.38457309  0.23681820  0.75913317  1
  O  O346  1  0.36770746  0.73636751  0.24132821  1
  O  O347  1  0.37398943  0.77453017  0.72089777  1
  O  O348  1  0.95821115  0.26060159  0.30948018  1
  O  O349  1  0.88620417  0.23325921  0.76953598  1
  O  O350  1  0.83602105  0.68245576  0.25666652  1
  O  O351  1  0.87297591  0.74646960  0.73388279  1
  O  O352  1  0.36697999  0.51528946  0.51313976  1
  O  O353  1  0.38512112  0.49074775  0.99259225  1
  O  O354  1  0.36835831  1.03113697  0.47573926  1
  O  O355  1  0.39847152  0.99399089  1.00573590  1
  O  O356  1  0.90620730  0.48950692  0.49351691  1
  O  O357  1  0.88391849  0.49222842  0.99033220  1
  O  O358  1  0.90460800  0.98663939  0.50243726  1
  O  O359  1  0.87282346  0.98052849  0.98446407  1
  O  O360  1  0.08478776  -0.05361034  -0.06749039  1
  O  O361  1  0.11175867  -0.00495810  0.49999108  1
  O  O362  1  0.11335365  0.51148231  -0.01037537  1
  O  O363  1  0.11720936  0.48727773  0.48521589  1
  O  O364  1  0.62532829  0.00504864  0.00253246  1
  O  O365  1  0.65395910  0.03462414  0.48009808  1
  O  O366  1  0.62047697  0.50968265  -0.00331163  1
  O  O367  1  0.64364287  0.52142591  0.50645462  1
  O  O368  1  0.37082076  0.37887063  0.10874193  1
  O  O369  1  0.35853313  0.35120083  0.61735970  1
  O  O370  1  0.38268611  0.85285331  0.12854233  1
  O  O371  1  0.34349334  0.91128104  0.60601319  1
  O  O372  1  0.86373245  0.38038673  0.12402344  1
  O  O373  1  0.85216770  0.41190250  0.62708158  1
  O  O374  1  0.87108297  0.87841326  0.10626727  1
  O  O375  1  0.87565508  0.86703003  0.62120278  1
  O  O376  1  0.11516288  0.12356444  0.35283605  1
  O  O377  1  0.12064808  0.13581984  0.90167748  1
  O  O378  1  0.13650461  0.63130682  0.35546889  1
  O  O379  1  0.12765170  0.64581128  0.87803244  1
  O  O380  1  0.62096983  0.15462876  0.37876015  1
  O  O381  1  0.63010967  0.12295963  0.88475733  1
  O  O382  1  0.61270717  0.64809856  0.39414127  1
  O  O383  1  0.62799817  0.62748044  0.88847501  1
