# generated using pymatgen
data_VZnO4
_symmetry_space_group_name_H-M   'P 1'
_cell_length_a   17.13468356
_cell_length_b   16.96512985
_cell_length_c   16.97384142
_cell_angle_alpha   90.01831360
_cell_angle_beta   90.05746570
_cell_angle_gamma   90.21707482
_symmetry_Int_Tables_number   1
_chemical_formula_structural   VZnO4
_chemical_formula_sum   'V64 Zn64 O256'
_cell_volume   4934.12399235
_cell_formula_units_Z   64
loop_
 _symmetry_equiv_pos_site_id
 _symmetry_equiv_pos_as_xyz
  1  'x, y, z'
loop_
 _atom_site_type_symbol
 _atom_site_label
 _atom_site_symmetry_multiplicity
 _atom_site_fract_x
 _atom_site_fract_y
 _atom_site_fract_z
 _atom_site_occupancy
  V  V0  1  0.62003419  -0.00472073  0.14422956  1
  V  V1  1  0.36205096  0.61591074  0.25068280  1
  V  V2  1  0.88248009  0.65419543  0.76638161  1
  V  V3  1  0.88025058  0.25732495  0.11040443  1
  V  V4  1  0.13694816  0.85309116  0.24660424  1
  V  V5  1  0.50054136  0.03287051  -0.00288270  1
  V  V6  1  0.12689469  0.10428455  0.49294262  1
  V  V7  1  0.47941013  0.87271565  0.39816627  1
  V  V8  1  0.36559951  0.01281303  0.86814142  1
  V  V9  1  0.63110133  0.49862193  0.63729986  1
  V  V10  1  0.40579889  0.25523447  0.11649946  1
  V  V11  1  0.25589078  0.02192385  0.24767809  1
  V  V12  1  0.38266747  0.88323872  -0.00311147  1
  V  V13  1  0.35883215  0.37336468  -0.00458339  1
  V  V14  1  0.13571946  0.01102062  0.12404508  1
  V  V15  1  0.13379603  0.90612286  0.75990275  1
  V  V16  1  0.37447295  0.00638930  0.38163229  1
  V  V17  1  0.26371961  0.74574548  0.52812729  1
  V  V18  1  0.86828083  0.12394904  0.74521490  1
  V  V19  1  0.00204326  0.13039005  0.13926760  1
  V  V20  1  0.00304287  0.86429213  0.87395106  1
  V  V21  1  0.36692811  0.49742545  0.37045019  1
  V  V22  1  0.86233786  0.46103392  0.88700657  1
  V  V23  1  0.87411572  0.52994866  0.39802636  1
  V  V24  1  0.26193614  0.86884303  0.12382171  1
  V  V25  1  0.47822021  0.75313043  0.24831999  1
  V  V26  1  0.52703448  0.28067469  0.74443874  1
  V  V27  1  0.14047136  0.14925856  0.00314338  1
  V  V28  1  0.74635879  0.87157609  0.59419789  1
  V  V29  1  0.61759710  0.75355420  0.37339615  1
  V  V30  1  0.37689530  0.37429443  0.50249364  1
  V  V31  1  0.39827094  0.13705871  0.24571018  1
  V  V32  1  0.61764681  0.11237477  0.49569017  1
  V  V33  1  -0.01305757  0.47150943  0.51836786  1
  V  V34  1  -0.00063947  0.00938470  -0.00258727  1
  V  V35  1  0.36518048  0.13073165  0.73071871  1
  V  V36  1  0.49551258  0.62266937  0.12188347  1
  V  V37  1  0.25618522  0.37626715  0.63229119  1
  V  V38  1  0.48510129  0.63397337  0.63569275  1
  V  V39  1  0.50301366  0.50361123  0.49935793  1
  V  V40  1  0.11921923  0.49894969  0.13455843  1
  V  V41  1  0.24931643  0.74960861  -0.01509094  1
  V  V42  1  0.63148764  0.63118706  0.49460914  1
  V  V43  1  0.51314499  0.36538033  0.36884919  1
  V  V44  1  0.02366196  0.51383267  -0.01642040  1
  V  V45  1  0.73499322  0.24589873  0.51665959  1
  V  V46  1  0.14773676  0.66820381  0.43479365  1
  V  V47  1  -0.00712458  0.27177042  0.25971420  1
  V  V48  1  0.24708044  0.25633765  0.49355166  1
  V  V49  1  0.24439731  0.14372651  0.86722362  1
  V  V50  1  0.79950208  0.51873833  0.22692884  1
  V  V51  1  0.36444925  0.51181429  0.86003036  1
  V  V52  1  0.62558286  0.48987269  0.13496302  1
  V  V53  1  0.49527400  0.48702980  -0.00137370  1
  V  V54  1  0.87393350  0.76287136  0.61506736  1
  V  V55  1  0.61185264  -0.01370792  0.63949222  1
  V  V56  1  -0.00050471  0.11069404  0.62279460  1
  V  V57  1  0.12682598  0.28950900  0.37144748  1
  V  V58  1  0.11880823  0.35740675  0.75200882  1
  V  V59  1  0.78140821  -0.01024291  0.25747510  1
  V  V60  1  0.02008093  0.35498483  0.88842003  1
  V  V61  1  0.12483590  0.50156825  0.63534828  1
  V  V62  1  0.74426185  0.65185988  0.87137278  1
  V  V63  1  -0.00946401  0.62775735  0.62430226  1
  Zn  Zn64  1  0.18387631  0.19565111  0.20123830  1
  Zn  Zn65  1  0.18829939  0.18269975  0.67715348  1
  Zn  Zn66  1  0.20026702  0.67370655  0.17042800  1
  Zn  Zn67  1  0.17060626  0.70179706  0.65634405  1
  Zn  Zn68  1  0.71221513  0.15872588  0.19451869  1
  Zn  Zn69  1  0.68069132  0.18067161  0.68968289  1
  Zn  Zn70  1  0.65849635  0.65351356  0.21780243  1
  Zn  Zn71  1  0.70592326  0.65954407  0.66881751  1
  Zn  Zn72  1  0.32597265  0.30847926  0.31593826  1
  Zn  Zn73  1  0.32253644  0.31428331  0.80825824  1
  Zn  Zn74  1  0.27190158  0.82973283  0.37768217  1
  Zn  Zn75  1  0.30405343  0.83305183  0.81607863  1
  Zn  Zn76  1  0.73467853  0.32735829  0.20634021  1
  Zn  Zn77  1  0.87649562  0.27207038  0.81365274  1
  Zn  Zn78  1  0.80125512  0.83869179  0.38746871  1
  Zn  Zn79  1  0.80435466  0.83344771  0.92017023  1
  Zn  Zn80  1  0.18587395  0.46205513  0.45274217  1
  Zn  Zn81  1  0.19409223  0.43392430  0.93313242  1
  Zn  Zn82  1  0.14028049  0.90396529  0.45879278  1
  Zn  Zn83  1  0.18915046  0.94926301  0.94085898  1
  Zn  Zn84  1  0.69389414  0.43531132  0.44029315  1
  Zn  Zn85  1  0.68163627  0.51731151  0.94079617  1
  Zn  Zn86  1  0.66876439  0.94041403  0.42568402  1
  Zn  Zn87  1  0.64450279  0.90382022  0.98271514  1
  Zn  Zn88  1  0.31793613  0.07635014  0.06039441  1
  Zn  Zn89  1  0.27705667  0.04951176  0.54852267  1
  Zn  Zn90  1  0.30278910  0.56193583  0.06246498  1
  Zn  Zn91  1  0.31036604  0.56231344  0.56032957  1
  Zn  Zn92  1  0.80518404  -0.03373689  0.06414005  1
  Zn  Zn93  1  0.78401607  0.07864512  0.59969646  1
  Zn  Zn94  1  0.82136012  0.55816072  0.04942073  1
  Zn  Zn95  1  0.81004888  0.56854850  0.56216814  1
  Zn  Zn96  1  0.43892364  0.43411624  0.18843818  1
  Zn  Zn97  1  0.44582613  0.44271649  0.68706283  1
  Zn  Zn98  1  0.43827524  0.95310223  0.18051964  1
  Zn  Zn99  1  0.46441740  1.08259510  0.60844551  1
  Zn  Zn100  1  0.94396183  0.44391346  0.16738505  1
  Zn  Zn101  1  0.94242982  0.45015186  0.72014921  1
  Zn  Zn102  1  0.95197818  0.89625128  0.30705817  1
  Zn  Zn103  1  0.94256437  0.94407276  0.69027727  1
  Zn  Zn104  1  0.07595242  0.07465823  0.31653697  1
  Zn  Zn105  1  0.06180097  0.07730562  0.81011006  1
  Zn  Zn106  1  0.07060552  0.49808847  0.33718804  1
  Zn  Zn107  1  0.05847175  0.55413036  0.80392470  1
  Zn  Zn108  1  0.55636684  0.05861838  0.31805398  1
  Zn  Zn109  1  0.54252041  0.05517009  0.79598342  1
  Zn  Zn110  1  0.54876952  0.56236568  0.31608406  1
  Zn  Zn111  1  0.55290357  0.56391265  0.81492506  1
  Zn  Zn112  1  0.44220328  0.18557154  0.44305347  1
  Zn  Zn113  1  0.44013649  0.20137474  0.92106533  1
  Zn  Zn114  1  0.43071022  0.68271663  0.43801157  1
  Zn  Zn115  1  0.40669405  0.67792522  0.94840258  1
  Zn  Zn116  1  0.97266761  0.21270663  0.46683105  1
  Zn  Zn117  1  0.94485578  0.16940380  0.93884456  1
  Zn  Zn118  1  0.94761344  0.72765319  0.41386487  1
  Zn  Zn119  1  0.95374809  0.70474442  0.95310857  1
  Zn  Zn120  1  0.07134472  0.32278057  0.07751519  1
  Zn  Zn121  1  0.06759923  0.30270075  0.57751873  1
  Zn  Zn122  1  0.08314578  0.82731127  0.04957415  1
  Zn  Zn123  1  0.05526581  0.80206268  0.55368086  1
  Zn  Zn124  1  0.57212282  0.29994951  0.20387566  1
  Zn  Zn125  1  0.56512428  0.31127607  0.57108093  1
  Zn  Zn126  1  0.53189403  0.83142898  0.10233112  1
  Zn  Zn127  1  0.55377767  0.80953619  0.56611185  1
  O  O128  1  0.13400871  0.13061598  0.11932687  1
  O  O129  1  0.12539010  0.13342579  0.59803207  1
  O  O130  1  0.00444064  0.65667668  0.18158858  1
  O  O131  1  0.10547617  0.60661850  0.64785248  1
  O  O132  1  0.65691277  0.08596113  0.12111712  1
  O  O133  1  0.62561394  0.09206634  0.62873352  1
  O  O134  1  0.59728603  0.62400921  0.12236607  1
  O  O135  1  0.60907046  0.62470444  0.60749573  1
  O  O136  1  0.38758669  0.38244681  0.38210096  1
  O  O137  1  0.37007133  0.37790235  0.89127270  1
  O  O138  1  0.37361945  0.88755815  0.37245668  1
  O  O139  1  0.36475128  0.90298849  0.88921050  1
  O  O140  1  0.88498826  0.51004016  0.29354950  1
  O  O141  1  0.90263927  0.36324301  0.87376546  1
  O  O142  1  0.90026263  0.81038233  0.35446195  1
  O  O143  1  0.90373161  0.86758052  0.88898819  1
  O  O144  1  0.27098638  -0.00016630  0.34963134  1
  O  O145  1  0.26212760  0.02570179  0.89463737  1
  O  O146  1  0.27075443  0.48410550  0.37805175  1
  O  O147  1  0.26652502  0.50024136  0.87916314  1
  O  O148  1  0.74657739  -0.06376489  0.34273816  1
  O  O149  1  0.69004688  0.07114714  0.86433954  1
  O  O150  1  0.77703056  0.50386055  0.40740595  1
  O  O151  1  0.76457257  0.44966412  0.90074024  1
  O  O152  1  0.19904501  0.56898258  0.11693400  1
  O  O153  1  0.23048033  0.48998216  0.61820989  1
  O  O154  1  0.24937532  1.00935314  0.12968914  1
  O  O155  1  0.28690294  0.93400083  0.61432533  1
  O  O156  1  0.72250388  0.51838647  0.11656564  1
  O  O157  1  0.72890916  0.53634856  0.63298466  1
  O  O158  1  0.74414969  0.96507048  0.15967799  1
  O  O159  1  0.74582212  0.96964847  0.62574696  1
  O  O160  1  -0.00355260  0.37208740  0.24392143  1
  O  O161  1  0.01437950  0.36788839  0.76258354  1
  O  O162  1  0.04045626  0.87385667  0.24166229  1
  O  O163  1  0.00905713  0.89160480  0.77258080  1
  O  O164  1  0.50112153  0.37013016  0.26338882  1
  O  O165  1  0.50735858  0.37952542  0.75743001  1
  O  O166  1  0.48043001  0.85494815  0.22941834  1
  O  O167  1  0.46479414  0.83329237  0.75577204  1
  O  O168  1  0.49532574  0.12453216  0.24367458  1
  O  O169  1  0.46836080  0.11223901  0.72531654  1
  O  O170  1  0.48520376  0.62981421  0.24205923  1
  O  O171  1  0.50413881  0.62594369  0.73433865  1
  O  O172  1  1.02204567  0.14348147  0.24162792  1
  O  O173  1  1.01485033  0.13398130  0.72250553  1
  O  O174  1  0.96765701  0.66539117  0.24272031  1
  O  O175  1  0.98144030  0.61633960  0.74621985  1
  O  O176  1  0.38692376  0.26171711  0.00851836  1
  O  O177  1  0.35902160  0.26460685  0.48858401  1
  O  O178  1  0.37045962  0.78078875  -0.00999218  1
  O  O179  1  0.35770952  0.74626040  0.49155198  1
  O  O180  1  0.88508273  0.23613730  0.01301907  1
  O  O181  1  0.85070337  0.22490190  0.47089334  1
  O  O182  1  0.85070207  0.73340009  0.01360151  1
  O  O183  1  0.88261910  0.75242286  0.51724731  1
  O  O184  1  0.13647745  0.27146185  0.48393902  1
  O  O185  1  0.12898969  0.24661081  1.01272341  1
  O  O186  1  0.13939897  0.72504495  0.53419218  1
  O  O187  1  0.15279568  0.74592622  1.01217370  1
  O  O188  1  0.62743779  0.23068349  0.51556266  1
  O  O189  1  0.65877748  0.20425216  0.99639194  1
  O  O190  1  0.60587331  0.73922011  0.48620758  1
  O  O191  1  0.56157820  0.76403271  0.93310825  1
  O  O192  1  0.50224250  0.25124860  0.12533569  1
  O  O193  1  0.49561274  0.26193353  0.64680227  1
  O  O194  1  0.48763445  0.73399970  0.13619811  1
  O  O195  1  0.49079429  0.73366346  0.61820188  1
  O  O196  1  1.00320891  0.24981375  0.13852785  1
  O  O197  1  0.99448662  0.21928491  0.57779838  1
  O  O198  1  0.99071786  0.76098075  0.06823420  1
  O  O199  1  0.99004360  0.73460894  0.62396412  1
  O  O200  1  0.01558565  0.26284051  0.37238436  1
  O  O201  1  0.01235064  0.25620308  0.88666441  1
  O  O202  1  0.05764081  0.70340743  0.40457215  1
  O  O203  1  0.02105067  0.76637019  0.88382789  1
  O  O204  1  0.49868284  0.26753820  0.38676261  1
  O  O205  1  0.49622585  0.23347038  0.83159547  1
  O  O206  1  0.48458995  0.76345071  0.36673702  1
  O  O207  1  0.50739016  0.72932355  0.88866937  1
  O  O208  1  0.24433310  0.15515391  0.50024459  1
  O  O209  1  0.24328790  0.13954194  0.99766390  1
  O  O210  1  0.24368087  0.63617805  0.50961592  1
  O  O211  1  0.28809754  0.65533752  0.99757060  1
  O  O212  1  0.72679945  0.12471360  0.51061258  1
  O  O213  1  0.74009493  0.10198286  0.90841739  1
  O  O214  1  0.72885559  0.63511249  0.50231872  1
  O  O215  1  0.76368905  0.60193664  0.96133455  1
  O  O216  1  0.26122778  0.37236124  0.00614785  1
  O  O217  1  0.25931230  0.37861471  0.50837833  1
  O  O218  1  0.25514731  0.87715143  0.00957582  1
  O  O219  1  0.23586304  0.84337328  0.49123234  1
  O  O220  1  0.62613510  0.26822509  -0.00509776  1
  O  O221  1  0.73808466  0.34242560  0.48798617  1
  O  O222  1  0.75471255  0.90638202  -0.01519757  1
  O  O223  1  0.75281456  0.87307669  0.49375938  1
  O  O224  1  0.09559347  0.51781334  0.23066939  1
  O  O225  1  0.12251985  0.48063890  0.74004797  1
  O  O226  1  0.14749369  1.01416472  0.24209762  1
  O  O227  1  0.12432728  1.00480488  0.74644745  1
  O  O228  1  0.61344313  0.51801031  0.23333603  1
  O  O229  1  0.61445852  0.50215567  0.73514729  1
  O  O230  1  0.60747739  0.98904136  0.24327398  1
  O  O231  1  0.61162563  0.97977783  0.73988809  1
  O  O232  1  0.37065252  0.02225284  0.23951031  1
  O  O233  1  0.36043697  0.01278340  0.76896839  1
  O  O234  1  0.37863449  0.49959518  0.26281673  1
  O  O235  1  0.37538550  0.48709817  0.76366831  1
  O  O236  1  0.87763440  -0.03198489  0.25141752  1
  O  O237  1  0.89810109  0.02646191  0.75557509  1
  O  O238  1  0.86810226  0.52996240  0.14816242  1
  O  O239  1  0.87520990  0.50739847  0.79534950  1
  O  O240  1  0.12338413  0.39059091  0.37315246  1
  O  O241  1  0.12803180  0.36952534  0.86156664  1
  O  O242  1  0.16385381  0.87142023  0.34482128  1
  O  O243  1  0.11954643  0.89573993  0.86772242  1
  O  O244  1  0.60947111  0.38368206  0.38208457  1
  O  O245  1  0.69160693  0.31383092  0.87277268  1
  O  O246  1  0.59043199  0.86232509  0.38232222  1
  O  O247  1  0.58719394  0.83405952  0.90361096  1
  O  O248  1  0.37270263  0.14967627  0.13289898  1
  O  O249  1  0.34435105  0.10126447  0.63105201  1
  O  O250  1  0.37782714  0.60438544  0.14528353  1
  O  O251  1  0.38853923  0.60673461  0.62656926  1
  O  O252  1  0.90477611  0.13532410  0.13384626  1
  O  O253  1  0.89356492  0.10691101  0.62136402  1
  O  O254  1  0.83684398  0.69105783  0.07510532  1
  O  O255  1  0.87844662  0.63512232  0.63672193  1
  O  O256  1  0.25341736  0.28781001  0.16650313  1
  O  O257  1  0.24134561  0.27112474  0.60759751  1
  O  O258  1  0.26331431  0.76791264  0.11980535  1
  O  O259  1  0.27010361  0.74961083  0.62966060  1
  O  O260  1  0.78178062  0.24213118  0.13925959  1
  O  O261  1  0.75291260  0.24359118  0.61445057  1
  O  O262  1  0.71135113  0.74953336  0.13871219  1
  O  O263  1  0.76297163  0.76177768  0.62762072  1
  O  O264  1  0.23780285  0.27363415  0.38242617  1
  O  O265  1  0.25456426  0.24242772  0.87251046  1
  O  O266  1  0.21731881  0.72156207  0.38470752  1
  O  O267  1  0.25050627  0.76313643  0.88528047  1
  O  O268  1  0.79887822  0.21432692  0.41304785  1
  O  O269  1  0.74498628  0.26572636  0.87777435  1
  O  O270  1  0.71385355  0.76374702  0.36625786  1
  O  O271  1  0.73465322  0.74985019  0.88663563  1
  O  O272  1  0.02086907  0.12734913  0.01878583  1
  O  O273  1  0.02501101  0.09985982  0.49451713  1
  O  O274  1  0.01409737  0.61241703  -0.02470996  1
  O  O275  1  -0.00200852  0.60642712  0.52903728  1
  O  O276  1  0.49594281  0.13170982  -0.00307624  1
  O  O277  1  0.50793132  0.12791605  0.51539243  1
  O  O278  1  0.47361669  0.61587333  0.02110158  1
  O  O279  1  0.49669378  0.61265459  0.50287780  1
  O  O280  1  0.49061478  0.38406007  0.50075752  1
  O  O281  1  0.48595985  0.38923117  1.00110686  1
  O  O282  1  0.48008779  0.86944351  0.49563069  1
  O  O283  1  0.48182016  0.88582060  1.00922658  1
  O  O284  1  0.98467806  0.37362592  0.52706098  1
  O  O285  1  1.02057249  0.37986687  0.98821844  1
  O  O286  1  1.03547742  0.87905611  0.48049101  1
  O  O287  1  1.02439470  0.90580353  0.98425643  1
  O  O288  1  0.49211679  0.48791416  0.38473015  1
  O  O289  1  0.48662008  0.50990095  0.89549383  1
  O  O290  1  0.48235431  0.98085476  0.36861436  1
  O  O291  1  0.47486308  1.02135604  0.88409953  1
  O  O292  1  0.98286713  0.48877904  0.41013257  1
  O  O293  1  1.01358366  0.48098688  0.87953259  1
  O  O294  1  1.00438303  0.99205526  0.35872461  1
  O  O295  1  0.99886677  1.03616120  0.89927901  1
  O  O296  1  0.02456631  0.02216890  0.12513208  1
  O  O297  1  0.01068058  0.00868183  0.62015478  1
  O  O298  1  0.01738065  0.50307451  0.09665276  1
  O  O299  1  -0.00243477  0.49991238  0.63317157  1
  O  O300  1  0.51361050  0.00862826  0.11080299  1
  O  O301  1  0.51451917  -0.02247643  0.61959543  1
  O  O302  1  0.50229290  0.50436974  0.12009239  1
  O  O303  1  0.51158714  0.50806580  0.61450527  1
  O  O304  1  0.25951931  0.34381258  0.21918424  1
  O  O305  1  0.24612952  0.36924248  0.73517291  1
  O  O306  1  0.25334008  0.89318813  0.22688819  1
  O  O307  1  0.23311665  0.89193945  0.75612419  1
  O  O308  1  0.76081630  0.42682509  0.24530586  1
  O  O309  1  0.79074900  0.36936305  0.71387321  1
  O  O310  1  0.74719534  0.80184477  0.17517383  1
  O  O311  1  0.64354113  0.80814027  0.76916640  1
  O  O312  1  0.26247450  0.12463282  0.24865410  1
  O  O313  1  0.24652971  0.12746527  0.76149012  1
  O  O314  1  0.26523560  0.62311336  0.25359164  1
  O  O315  1  0.20261222  0.64222199  0.78109769  1
  O  O316  1  0.76711893  0.08816481  0.26741917  1
  O  O317  1  0.76864501  0.11322163  0.72000478  1
  O  O318  1  0.75265859  0.60459814  0.25187170  1
  O  O319  1  0.77117045  0.63759485  0.76456094  1
  O  O320  1  0.38992787  0.11591541  0.35864718  1
  O  O321  1  0.35989775  0.12966906  0.86416565  1
  O  O322  1  0.38224852  0.60424574  0.36656084  1
  O  O323  1  0.37654058  0.61230155  0.86147721  1
  O  O324  1  0.94129024  0.02523423  0.40955211  1
  O  O325  1  0.87568292  0.15775358  0.84949236  1
  O  O326  1  0.88278081  0.62805110  0.40469221  1
  O  O327  1  0.87399708  0.66163191  0.86921921  1
  O  O328  1  0.13897029  0.40154184  0.12664733  1
  O  O329  1  0.13096704  0.37820793  0.63859777  1
  O  O330  1  0.14575361  0.89076055  0.12732135  1
  O  O331  1  0.10934275  0.85370777  0.65824737  1
  O  O332  1  0.62738147  0.38896531  0.13974283  1
  O  O333  1  0.63019894  0.40240649  0.60788656  1
  O  O334  1  0.62227370  0.89394540  0.09863936  1
  O  O335  1  0.63998282  0.87156380  0.60993938  1
  O  O336  1  0.12165312  0.26204101  0.27035973  1
  O  O337  1  0.12893552  0.25967724  0.74022421  1
  O  O338  1  0.14272373  0.75483368  0.22594225  1
  O  O339  1  0.11564857  0.79104382  0.71411786  1
  O  O340  1  0.66121019  0.24865511  0.24154270  1
  O  O341  1  0.62761621  0.26470294  0.73820272  1
  O  O342  1  0.59314361  0.73786990  0.26682483  1
  O  O343  1  0.62161072  0.74334737  0.74347079  1
  O  O344  1  0.38692063  0.24231740  0.24473268  1
  O  O345  1  0.36040554  0.23123755  0.73637072  1
  O  O346  1  0.37895586  0.72844711  0.26011380  1
  O  O347  1  0.40522803  0.79076004  0.75535740  1
  O  O348  1  0.89900968  0.24964977  0.25285649  1
  O  O349  1  0.88760403  0.22541955  0.71461262  1
  O  O350  1  0.89730352  0.78146664  0.16506729  1
  O  O351  1  0.88682685  0.74886645  0.73697394  1
  O  O352  1  0.38175649  0.49192609  0.49097893  1
  O  O353  1  0.37445994  0.48638921  1.00646541  1
  O  O354  1  0.36434695  1.01609763  0.47903553  1
  O  O355  1  0.38660699  1.00609680  0.99986575  1
  O  O356  1  0.88366801  0.49861489  0.51360545  1
  O  O357  1  0.89855970  0.50183028  0.97686774  1
  O  O358  1  0.89815537  0.97342291  0.43981415  1
  O  O359  1  0.90358351  1.00448324  1.02509440  1
  O  O360  1  0.12702105  0.01923061  0.01297725  1
  O  O361  1  0.17311001  0.01131997  0.49872114  1
  O  O362  1  0.12455458  0.50195144  -0.00630147  1
  O  O363  1  0.10015255  0.48210985  0.53006467  1
  O  O364  1  0.59502670  0.00763806  -0.02411284  1
  O  O365  1  0.62405163  0.00569797  0.50477285  1
  O  O366  1  0.60126899  0.49816572  0.01431053  1
  O  O367  1  0.61675026  0.51716887  0.49407814  1
  O  O368  1  0.38295795  0.35954073  0.11903020  1
  O  O369  1  0.36086732  0.38847281  0.61803070  1
  O  O370  1  0.36446005  0.89450123  0.10979474  1
  O  O371  1  0.35379821  0.90725893  0.61828474  1
  O  O372  1  0.88754659  0.35731757  0.11555268  1
  O  O373  1  0.83957036  0.39482499  0.66539103  1
  O  O374  1  0.93469935  0.81430074  0.11053240  1
  O  O375  1  0.86763712  0.86784215  0.62884825  1
  O  O376  1  0.13324571  0.13745771  0.39311548  1
  O  O377  1  0.13746600  0.13055839  0.89098000  1
  O  O378  1  0.14013756  0.56777639  0.40343728  1
  O  O379  1  0.14966643  0.63226918  0.83219193  1
  O  O380  1  0.61245361  0.11683112  0.39519366  1
  O  O381  1  0.63291321  0.12315089  0.83480917  1
  O  O382  1  0.60910575  0.63753359  0.38455960  1
  O  O383  1  0.65011376  0.60685009  0.86350582  1
