# generated using pymatgen
data_VZnO4
_symmetry_space_group_name_H-M   'P 1'
_cell_length_a   16.89069584
_cell_length_b   16.98084802
_cell_length_c   16.98967506
_cell_angle_alpha   89.72621973
_cell_angle_beta   89.96559052
_cell_angle_gamma   89.85753347
_symmetry_Int_Tables_number   1
_chemical_formula_structural   VZnO4
_chemical_formula_sum   'V64 Zn64 O256'
_cell_volume   4872.87883861
_cell_formula_units_Z   64
loop_
 _symmetry_equiv_pos_site_id
 _symmetry_equiv_pos_as_xyz
  1  'x, y, z'
loop_
 _atom_site_type_symbol
 _atom_site_label
 _atom_site_symmetry_multiplicity
 _atom_site_fract_x
 _atom_site_fract_y
 _atom_site_fract_z
 _atom_site_occupancy
  V  V0  1  0.36384407  -0.00013950  0.86064545  1
  V  V1  1  0.75792890  0.24790753  0.50801319  1
  V  V2  1  0.50473833  0.74770984  0.24551098  1
  V  V3  1  0.12771233  0.48061164  0.63092949  1
  V  V4  1  0.01225922  0.64374728  0.13821828  1
  V  V5  1  0.50000675  -0.00736391  -0.00142978  1
  V  V6  1  0.36525056  0.48846095  0.39204531  1
  V  V7  1  0.86961289  0.01281613  0.37089388  1
  V  V8  1  0.50024987  0.52425398  0.50209279  1
  V  V9  1  0.77326073  0.00814184  0.74691189  1
  V  V10  1  0.73879557  0.49774905  0.76394131  1
  V  V11  1  0.26670630  0.24946589  0.50217206  1
  V  V12  1  0.63537536  0.87163706  0.73151988  1
  V  V13  1  0.36529862  0.73379675  0.11706820  1
  V  V14  1  0.61438187  0.12136285  -0.00182587  1
  V  V15  1  0.35380735  0.50202995  0.87071789  1
  V  V16  1  0.86867491  0.76460440  0.61436781  1
  V  V17  1  0.36468386  0.86736097  -0.00170572  1
  V  V18  1  0.72083578  0.87737266  0.13444358  1
  V  V19  1  0.26452280  0.24221245  0.02890839  1
  V  V20  1  0.75106374  0.61962082  0.35893911  1
  V  V21  1  0.63394671  0.24601503  0.38455864  1
  V  V22  1  0.62195435  0.51068109  0.61706704  1
  V  V23  1  0.01640680  0.38261751  0.36881577  1
  V  V24  1  0.90383972  0.48563273  0.87336963  1
  V  V25  1  0.25495244  0.88619900  0.13836711  1
  V  V26  1  0.87491581  0.49913393  0.36213890  1
  V  V27  1  0.36991863  0.87072204  0.49510837  1
  V  V28  1  0.24600144  0.87309570  0.62641342  1
  V  V29  1  0.87294786  0.63727411  0.75183130  1
  V  V30  1  0.00421228  0.13170225  0.60983771  1
  V  V31  1  0.61945411  0.73930246  0.87209571  1
  V  V32  1  0.00680318  0.23472717  0.25220108  1
  V  V33  1  0.12478432  -0.00027782  0.58448781  1
  V  V34  1  0.12494923  0.64994739  -0.01375445  1
  V  V35  1  0.51213120  -0.00212604  0.50465542  1
  V  V36  1  0.77123866  0.37026817  0.12152593  1
  V  V37  1  0.15253609  0.75082984  0.37360246  1
  V  V38  1  0.13735393  0.22748402  0.38335070  1
  V  V39  1  0.51399069  0.37530150  0.39139812  1
  V  V40  1  0.37414596  0.00382960  0.36611178  1
  V  V41  1  0.60767270  0.73428238  0.37590039  1
  V  V42  1  0.13310917  0.12081137  0.02599024  1
  V  V43  1  0.24605353  0.48293126  0.23958092  1
  V  V44  1  0.00306044  0.64000119  0.61822828  1
  V  V45  1  -0.00287234  -0.01607849  0.00604559  1
  V  V46  1  0.11180274  0.88077624  0.25006926  1
  V  V47  1  0.48491553  0.13993721  0.61351430  1
  V  V48  1  0.86887204  0.86534870  0.02444287  1
  V  V49  1  0.76142921  0.38467079  0.61585022  1
  V  V50  1  0.88727351  0.15347433  0.75749270  1
  V  V51  1  -0.00900651  0.49574157  0.50601503  1
  V  V52  1  0.51412013  0.61087337  0.12188552  1
  V  V53  1  0.74377938  0.73664705  -0.00218422  1
  V  V54  1  0.36765589  0.61494973  0.26533050  1
  V  V55  1  0.50887309  0.49427001  0.00775474  1
  V  V56  1  0.49480737  0.37342616  0.85927290  1
  V  V57  1  0.37425854  0.37047133  0.02250030  1
  V  V58  1  0.40098406  0.14353855  0.25119636  1
  V  V59  1  0.64184220  0.24123530  0.86170817  1
  V  V60  1  0.27436710  0.36601546  0.63711480  1
  V  V61  1  0.24614446  0.12940919  0.85879801  1
  V  V62  1  0.48950661  0.86256534  0.85935311  1
  V  V63  1  0.73999769  0.74866361  0.49976720  1
  Zn  Zn64  1  0.20229825  0.18258962  0.21038334  1
  Zn  Zn65  1  0.21375523  0.15756595  0.64872331  1
  Zn  Zn66  1  0.18493360  0.68794217  0.19337277  1
  Zn  Zn67  1  0.17719367  0.69488282  0.55223642  1
  Zn  Zn68  1  0.59107109  0.19003580  0.20202788  1
  Zn  Zn69  1  0.70143330  0.19290614  0.68735204  1
  Zn  Zn70  1  0.69509908  0.69248296  0.18458653  1
  Zn  Zn71  1  0.69214994  0.68479861  0.69025591  1
  Zn  Zn72  1  0.32091455  0.31233950  0.31633673  1
  Zn  Zn73  1  0.32110443  0.30548933  0.81665093  1
  Zn  Zn74  1  0.33103641  0.81361179  0.31127571  1
  Zn  Zn75  1  0.33962633  0.82019153  0.77621479  1
  Zn  Zn76  1  0.82387538  0.30910224  0.32623260  1
  Zn  Zn77  1  0.81623912  0.31880639  0.81179016  1
  Zn  Zn78  1  0.79031716  0.81858485  0.32318674  1
  Zn  Zn79  1  0.79446767  0.80535284  0.80429288  1
  Zn  Zn80  1  0.18833602  0.43899637  0.46129478  1
  Zn  Zn81  1  0.18674191  0.41334595  0.94060677  1
  Zn  Zn82  1  0.19645640  0.93527894  0.42009075  1
  Zn  Zn83  1  0.18991232  0.94928582  0.95368312  1
  Zn  Zn84  1  0.69131251  0.44763866  0.44434498  1
  Zn  Zn85  1  0.67976879  0.41569846  0.93523910  1
  Zn  Zn86  1  0.66138614  0.92376908  0.42060351  1
  Zn  Zn87  1  0.73614498  0.98315153  0.95818510  1
  Zn  Zn88  1  0.32817420  0.06192667  0.07052644  1
  Zn  Zn89  1  0.31817828  0.05666591  0.55694788  1
  Zn  Zn90  1  0.30090974  0.55228688  0.05538539  1
  Zn  Zn91  1  0.30853588  0.55377387  0.57724294  1
  Zn  Zn92  1  0.71926377  0.08447516  0.12632182  1
  Zn  Zn93  1  0.81318969  0.06867314  0.57502740  1
  Zn  Zn94  1  0.81256996  0.55061157  0.05114069  1
  Zn  Zn95  1  0.80780871  0.57285023  0.56021458  1
  Zn  Zn96  1  0.58239087  0.36790669  0.22233579  1
  Zn  Zn97  1  0.43877017  0.45304601  0.68962484  1
  Zn  Zn98  1  0.44265813  0.93254000  0.18402619  1
  Zn  Zn99  1  0.43590024  0.94360641  0.67718057  1
  Zn  Zn100  1  0.95154180  0.44340764  0.18955460  1
  Zn  Zn101  1  0.92927629  0.45685750  0.68875944  1
  Zn  Zn102  1  0.93646858  0.94903163  0.17841826  1
  Zn  Zn103  1  0.93960206  0.95371407  0.67320565  1
  Zn  Zn104  1  0.06745478  0.05667455  0.31755718  1
  Zn  Zn105  1  0.05869794  0.08184703  0.82925500  1
  Zn  Zn106  1  0.07070663  0.56936446  0.31687040  1
  Zn  Zn107  1  0.06760908  0.57695278  0.80495063  1
  Zn  Zn108  1  0.56934363  0.05962549  0.32743678  1
  Zn  Zn109  1  0.60460912  0.02871324  0.83732357  1
  Zn  Zn110  1  0.56164164  0.54773413  0.30489059  1
  Zn  Zn111  1  0.57404300  0.54138760  0.82985613  1
  Zn  Zn112  1  0.44667769  0.18368066  0.43486373  1
  Zn  Zn113  1  0.42836687  0.18027115  0.93516955  1
  Zn  Zn114  1  0.32562069  0.68499448  0.44987395  1
  Zn  Zn115  1  0.43456402  0.67648526  0.93746970  1
  Zn  Zn116  1  0.94375638  0.20412101  0.43954390  1
  Zn  Zn117  1  0.95101118  0.15330002  0.94258320  1
  Zn  Zn118  1  0.92354196  0.67823702  0.44602489  1
  Zn  Zn119  1  0.92437309  0.66014118  0.95790773  1
  Zn  Zn120  1  0.06578016  0.27123743  0.06497919  1
  Zn  Zn121  1  0.06515003  0.31149698  0.55676115  1
  Zn  Zn122  1  0.07036988  0.80522961  0.07060674  1
  Zn  Zn123  1  0.05600872  0.83489039  0.53951205  1
  Zn  Zn124  1  0.55247766  0.29858054  0.04756866  1
  Zn  Zn125  1  0.56865770  0.32571038  0.56533986  1
  Zn  Zn126  1  0.55427471  0.80452348  0.05368648  1
  Zn  Zn127  1  0.55663980  0.80729753  0.54559510  1
  O  O128  1  0.14514277  0.12272305  0.12394842  1
  O  O129  1  0.11528282  0.10443010  0.62518073  1
  O  O130  1  0.11647664  0.63562855  0.12016178  1
  O  O131  1  0.10360666  0.64262666  0.62624773  1
  O  O132  1  0.59669040  0.12134983  0.09733089  1
  O  O133  1  0.60482871  0.12049460  0.65740893  1
  O  O134  1  0.61165383  0.62127667  0.12893125  1
  O  O135  1  0.63318517  0.61101449  0.62876636  1
  O  O136  1  0.38191817  0.38815694  0.38747717  1
  O  O137  1  0.38573474  0.38192285  0.88052455  1
  O  O138  1  0.37908774  0.88675843  0.38550179  1
  O  O139  1  0.36736949  0.87102520  0.88180103  1
  O  O140  1  0.89112719  0.39314020  0.37609243  1
  O  O141  1  0.87951612  0.38832156  0.87919138  1
  O  O142  1  0.84417255  0.91218509  0.36822583  1
  O  O143  1  0.90882510  0.85179035  0.84182965  1
  O  O144  1  0.27310240  0.00453426  0.36978141  1
  O  O145  1  0.25823839  0.00403146  0.87892445  1
  O  O146  1  0.26461539  0.49561371  0.39395225  1
  O  O147  1  0.25470906  0.48007453  0.88021544  1
  O  O148  1  0.76928840  0.04308853  0.35063162  1
  O  O149  1  0.72451758  0.00237385  0.84371644  1
  O  O150  1  0.76326233  0.50730814  0.37570723  1
  O  O151  1  0.72998577  0.49114011  0.86458161  1
  O  O152  1  0.25576504  0.48943780  0.14024879  1
  O  O153  1  0.23763998  0.47561653  0.62379200  1
  O  O154  1  0.26310494  0.98399880  0.12627315  1
  O  O155  1  0.23048464  0.99789471  0.61301742  1
  O  O156  1  0.76161548  0.47702011  0.12339392  1
  O  O157  1  0.74425127  0.49984176  0.62744585  1
  O  O158  1  0.73987885  0.97687980  0.14059355  1
  O  O159  1  0.75251527  1.00271997  0.64699422  1
  O  O160  1  0.00970751  0.38383437  0.26683934  1
  O  O161  1  0.00533343  0.37819050  0.76010510  1
  O  O162  1  0.01285697  0.88186716  0.23162515  1
  O  O163  1  0.03799688  0.92400861  0.76254387  1
  O  O164  1  0.49270126  0.38792333  0.29027282  1
  O  O165  1  0.50467294  0.38806875  0.76292358  1
  O  O166  1  0.49479666  0.84547292  0.24068626  1
  O  O167  1  0.45901878  0.85615318  0.75980498  1
  O  O168  1  0.50948275  0.12411331  0.25364479  1
  O  O169  1  0.54481626  0.12304018  0.71116964  1
  O  O170  1  0.48385422  0.61464725  0.23249481  1
  O  O171  1  0.50782631  0.69798211  0.67805642  1
  O  O172  1  1.01627874  0.13425625  0.24981762  1
  O  O173  1  0.99266002  0.12798642  0.75098630  1
  O  O174  1  1.00819015  0.62382975  0.23753997  1
  O  O175  1  0.98243352  0.62295305  0.72839679  1
  O  O176  1  0.37589470  0.25520391  0.00461995  1
  O  O177  1  0.36487579  0.25002479  0.48586565  1
  O  O178  1  0.37877861  0.75144611  0.01150857  1
  O  O179  1  0.38447511  0.77101731  0.49411376  1
  O  O180  1  0.85474682  0.18217043  0.03409672  1
  O  O181  1  0.85957628  0.25520201  0.49385142  1
  O  O182  1  0.85791012  0.76133848  -0.01285875  1
  O  O183  1  0.85780202  0.75291346  0.50595801  1
  O  O184  1  0.13306220  0.25406615  0.48543720  1
  O  O185  1  0.15796868  0.23879070  1.00892762  1
  O  O186  1  0.12244619  0.76593720  0.47760386  1
  O  O187  1  0.14168353  0.74873405  1.00081431  1
  O  O188  1  0.64460089  0.26793360  0.49540481  1
  O  O189  1  0.60961244  0.22765799  0.98321994  1
  O  O190  1  0.62283079  0.73355717  0.48637732  1
  O  O191  1  0.62988776  0.75086456  0.98232341  1
  O  O192  1  0.54079774  0.28477268  0.15516014  1
  O  O193  1  0.50415251  0.23897489  0.60548283  1
  O  O194  1  0.49223721  0.72983793  0.12799044  1
  O  O195  1  0.47729762  0.73000405  0.61984576  1
  O  O196  1  1.00632114  0.26801300  0.15588466  1
  O  O197  1  1.01521147  0.23177082  0.62028027  1
  O  O198  1  0.99086628  0.74266921  0.12815387  1
  O  O199  1  0.98178262  0.74495591  0.60861158  1
  O  O200  1  0.02114192  0.26643140  0.37675037  1
  O  O201  1  0.00494212  0.26316654  0.88648909  1
  O  O202  1  -0.04568968  0.76336380  0.35618246  1
  O  O203  1  -0.03104192  0.80845398  0.83910510  1
  O  O204  1  0.51820328  0.26832067  0.40133807  1
  O  O205  1  0.47725620  0.25842922  0.85525724  1
  O  O206  1  0.50414107  0.72490309  0.35435434  1
  O  O207  1  0.50200177  0.75364698  0.88239444  1
  O  O208  1  0.25071059  0.14776179  0.52680299  1
  O  O209  1  0.25417590  0.12968230  1.00792421  1
  O  O210  1  0.25566331  0.62693868  0.51307838  1
  O  O211  1  0.21073881  0.59432118  1.00221110  1
  O  O212  1  0.74743180  0.14903843  0.52759907  1
  O  O213  1  0.71687170  0.08946318  1.00664396  1
  O  O214  1  0.75249526  0.63705062  0.48265481  1
  O  O215  1  0.75275360  0.63812263  1.00517023  1
  O  O216  1  0.26452029  0.35319684  0.00315250  1
  O  O217  1  0.24806959  0.35981548  0.52004980  1
  O  O218  1  0.26039847  0.87716900  0.01472155  1
  O  O219  1  0.26387808  0.88181876  0.49912743  1
  O  O220  1  0.75302966  0.37719956  0.01724320  1
  O  O221  1  0.75777376  0.38352722  0.51312854  1
  O  O222  1  0.75683468  0.87707254  0.01342063  1
  O  O223  1  0.73130715  0.84811424  0.47934936  1
  O  O224  1  0.15035005  0.50891840  0.26329793  1
  O  O225  1  0.11829051  0.51520006  0.72470939  1
  O  O226  1  0.12986200  0.98008061  0.26319117  1
  O  O227  1  0.09273377  0.97448414  0.76994076  1
  O  O228  1  0.61363956  0.47380375  0.23824226  1
  O  O229  1  0.63447603  0.50708399  0.74129645  1
  O  O230  1  0.65679636  0.98750450  0.32728952  1
  O  O231  1  0.59545044  0.96470454  0.74220483  1
  O  O232  1  0.39965197  -0.00556684  0.26646889  1
  O  O233  1  0.37074983  -0.00716072  0.76276817  1
  O  O234  1  0.36193305  0.50677825  0.27369251  1
  O  O235  1  0.37510815  0.49999609  0.77174083  1
  O  O236  1  0.88279483  0.00825431  0.26562555  1
  O  O237  1  0.87251549  -0.00987594  0.75847830  1
  O  O238  1  0.88413281  0.50245229  0.26410296  1
  O  O239  1  0.86827348  0.51354918  0.77078990  1
  O  O240  1  0.11502656  0.39147188  0.38415044  1
  O  O241  1  0.11109632  0.34391909  0.88233620  1
  O  O242  1  0.12804785  0.86322599  0.36096183  1
  O  O243  1  0.11484137  0.87627786  0.90070793  1
  O  O244  1  0.61722205  0.38629028  0.38586907  1
  O  O245  1  0.59945633  0.34695633  0.88728759  1
  O  O246  1  0.61645934  0.83243034  0.36591781  1
  O  O247  1  0.59491821  0.86004227  0.84936716  1
  O  O248  1  0.38729158  0.12084919  0.14699919  1
  O  O249  1  0.38526890  0.12788925  0.62840274  1
  O  O250  1  0.37376434  0.62916253  0.11903961  1
  O  O251  1  0.37074335  0.61282447  0.66503482  1
  O  O252  1  0.84979371  0.15715247  0.10217578  1
  O  O253  1  0.89944899  0.11180222  0.63900875  1
  O  O254  1  0.90623820  0.58593773  0.11811500  1
  O  O255  1  0.87877704  0.63699148  0.62844620  1
  O  O256  1  0.26251727  0.24566910  0.12646276  1
  O  O257  1  0.25596841  0.26013188  0.61875530  1
  O  O258  1  0.26613545  0.75148129  0.13011201  1
  O  O259  1  0.23612379  0.77476741  0.61328633  1
  O  O260  1  0.80056117  0.27332092  0.10254623  1
  O  O261  1  0.74511760  0.27573582  0.61977453  1
  O  O262  1  0.73709009  0.75817258  0.10080714  1
  O  O263  1  0.75304851  0.74591510  0.60781877  1
  O  O264  1  0.24388434  0.25158533  0.38749241  1
  O  O265  1  0.26409731  0.22802180  0.88184411  1
  O  O266  1  0.25697641  0.74729453  0.37416388  1
  O  O267  1  0.15926697  0.82797082  0.85139856  1
  O  O268  1  0.74534399  0.26182405  0.39290621  1
  O  O269  1  0.73864812  0.26345673  0.87857934  1
  O  O270  1  0.73860605  0.73349364  0.37841843  1
  O  O271  1  0.73260071  0.75710786  0.88596758  1
  O  O272  1  0.03458856  0.16169155  0.01852977  1
  O  O273  1  -0.00556885  0.12859089  0.51015087  1
  O  O274  1  0.01802299  0.63455137  0.01283780  1
  O  O275  1  -0.00477243  0.61671477  0.51115564  1
  O  O276  1  0.49617123  0.09995061  -0.01780965  1
  O  O277  1  0.50230871  0.11365693  0.50860392  1
  O  O278  1  0.49745975  0.60599175  0.01053987  1
  O  O279  1  0.49821771  0.61998295  0.50304893  1
  O  O280  1  0.50286328  0.39777877  0.49696124  1
  O  O281  1  0.48861007  0.37888076  0.99728113  1
  O  O282  1  0.48426090  0.88857143  0.51498362  1
  O  O283  1  0.48555154  0.87323394  0.98431833  1
  O  O284  1  1.00173910  0.39119255  0.49419575  1
  O  O285  1  1.04315115  0.32068441  0.92102824  1
  O  O286  1  0.96641217  0.87940116  0.49544125  1
  O  O287  1  0.99324320  0.87765923  1.01704834  1
  O  O288  1  0.49244587  0.50366355  0.39161355  1
  O  O289  1  0.49473316  0.48638476  0.88745224  1
  O  O290  1  0.49624672  1.00226129  0.39733878  1
  O  O291  1  0.48012117  0.97464445  0.87420940  1
  O  O292  1  0.99640865  0.50113040  0.38695123  1
  O  O293  1  1.00287801  0.49542670  0.86298651  1
  O  O294  1  0.97407090  0.99651638  0.37593958  1
  O  O295  1  0.98996592  1.04048455  0.91818002  1
  O  O296  1  -0.03115888  0.02157571  0.09417942  1
  O  O297  1  0.01808008  0.00222865  0.61234213  1
  O  O298  1  -0.03116973  0.53045273  0.11358151  1
  O  O299  1  0.00193232  0.50909473  0.61709410  1
  O  O300  1  0.49946750  -0.01800459  0.09753090  1
  O  O301  1  0.49189424  0.01460472  0.61123060  1
  O  O302  1  0.50007681  0.50303494  0.11350812  1
  O  O303  1  0.51130596  0.50463205  0.61753571  1
  O  O304  1  0.25437367  0.38504654  0.26193497  1
  O  O305  1  0.25848797  0.35632350  0.73737101  1
  O  O306  1  0.26734603  0.87377354  0.23784847  1
  O  O307  1  0.25437295  0.87598095  0.72809621  1
  O  O308  1  0.78234340  0.35743612  0.22319844  1
  O  O309  1  0.75683195  0.39705037  0.74207071  1
  O  O310  1  0.73950744  0.84013772  0.22792043  1
  O  O311  1  0.73922050  0.88600541  0.74333521  1
  O  O312  1  0.29180190  0.11928736  0.24114925  1
  O  O313  1  0.23446989  0.13030687  0.76050766  1
  O  O314  1  0.26729062  0.61917338  0.24395406  1
  O  O315  1  0.32743148  0.66856551  0.69949534  1
  O  O316  1  0.70423903  0.16189970  0.20142656  1
  O  O317  1  0.77765832  0.11980745  0.74060999  1
  O  O318  1  0.75933433  0.63379851  0.25937899  1
  O  O319  1  0.76482342  0.60942791  0.74700638  1
  O  O320  1  0.39024089  0.11446562  0.36167659  1
  O  O321  1  0.36285753  0.10574410  0.87409537  1
  O  O322  1  0.37633668  0.62038331  0.36622430  1
  O  O323  1  0.36540769  0.60049038  0.89454677  1
  O  O324  1  0.89126181  0.11512779  0.37393799  1
  O  O325  1  0.87815797  0.14973613  0.85903750  1
  O  O326  1  0.86599789  0.61182108  0.37509402  1
  O  O327  1  0.88981517  0.65475859  0.84872468  1
  O  O328  1  0.06041991  0.39663839  0.06625617  1
  O  O329  1  0.11416362  0.38118524  0.63481717  1
  O  O330  1  0.14639305  0.86673915  0.14061304  1
  O  O331  1  0.13059409  0.89189260  0.60862097  1
  O  O332  1  0.66837603  0.35557611  0.13422520  1
  O  O333  1  0.63938152  0.39996716  0.62374093  1
  O  O334  1  0.62117863  0.86876116  0.11912833  1
  O  O335  1  0.61061256  0.84501965  0.63872961  1
  O  O336  1  0.12674150  0.24543082  0.27412385  1
  O  O337  1  0.02690636  0.31079023  0.74343753  1
  O  O338  1  0.13598600  0.76508856  0.26325806  1
  O  O339  1  0.12079975  0.77912886  0.81142385  1
  O  O340  1  0.62781532  0.27398002  0.28390712  1
  O  O341  1  0.63378164  0.24833730  0.76265612  1
  O  O342  1  0.60801493  0.72936323  0.25121209  1
  O  O343  1  0.64092702  0.75741711  0.76375926  1
  O  O344  1  0.39385156  0.24204686  0.26541578  1
  O  O345  1  0.42276068  0.24517399  0.79229758  1
  O  O346  1  0.38497766  0.73164770  0.23895098  1
  O  O347  1  0.36529341  0.70553282  0.75961236  1
  O  O348  1  0.90648281  0.24638028  0.27951534  1
  O  O349  1  0.87513239  0.25145286  0.74040292  1
  O  O350  1  0.90438168  0.77280903  0.30097494  1
  O  O351  1  0.85270804  0.74122650  0.72725123  1
  O  O352  1  0.38605840  0.51065072  0.49838174  1
  O  O353  1  0.37742611  0.48132980  0.99640533  1
  O  O354  1  0.38213794  0.99534789  0.48612033  1
  O  O355  1  0.38143078  0.98573580  0.98978843  1
  O  O356  1  0.88855713  0.50537999  0.49922662  1
  O  O357  1  0.87544485  0.53797882  0.95719693  1
  O  O358  1  0.85439204  1.01353403  0.47304248  1
  O  O359  1  0.87830266  0.95732366  0.97909398  1
  O  O360  1  0.10939148  0.01061446  0.01288646  1
  O  O361  1  0.12511356  0.00073048  0.48557267  1
  O  O362  1  0.09737818  0.44655089  0.02240308  1
  O  O363  1  0.11267297  0.50386166  0.52314271  1
  O  O364  1  0.60258814  -0.00140255  -0.03208117  1
  O  O365  1  0.61196826  -0.01661100  0.50403918  1
  O  O366  1  0.60793634  0.48472179  -0.00413776  1
  O  O367  1  0.61644617  0.51147487  0.50935612  1
  O  O368  1  0.38080378  0.37347359  0.11661411  1
  O  O369  1  0.37259110  0.38196106  0.62908562  1
  O  O370  1  0.37177753  0.85930501  0.11737112  1
  O  O371  1  0.35703720  0.88756113  0.61027528  1
  O  O372  1  0.87604729  0.39485065  0.11140662  1
  O  O373  1  0.86218557  0.38958417  0.63046476  1
  O  O374  1  0.86605213  0.87429597  0.12456837  1
  O  O375  1  0.88058006  0.86125418  0.63346947  1
  O  O376  1  0.12722417  0.12903577  0.38421333  1
  O  O377  1  0.14616660  0.11555460  0.89552313  1
  O  O378  1  0.11626168  0.65705036  0.37159130  1
  O  O379  1  0.11056053  0.63979761  0.88515773  1
  O  O380  1  0.62647093  0.14798815  0.38286539  1
  O  O381  1  0.61831183  0.13552808  0.87552784  1
  O  O382  1  0.63930639  0.61946623  0.36184826  1
  O  O383  1  0.60941911  0.64088824  0.86431504  1
