# generated using pymatgen
data_VZnO4
_symmetry_space_group_name_H-M   'P 1'
_cell_length_a   16.98278337
_cell_length_b   17.03115235
_cell_length_c   16.91416508
_cell_angle_alpha   90.15128327
_cell_angle_beta   90.00362636
_cell_angle_gamma   90.56605352
_symmetry_Int_Tables_number   1
_chemical_formula_structural   VZnO4
_chemical_formula_sum   'V64 Zn64 O256'
_cell_volume   4891.93590502
_cell_formula_units_Z   64
loop_
 _symmetry_equiv_pos_site_id
 _symmetry_equiv_pos_as_xyz
  1  'x, y, z'
loop_
 _atom_site_type_symbol
 _atom_site_label
 _atom_site_symmetry_multiplicity
 _atom_site_fract_x
 _atom_site_fract_y
 _atom_site_fract_z
 _atom_site_occupancy
  V  V0  1  0.88547127  0.49716990  0.39291876  1
  V  V1  1  0.38002530  0.50182358  0.38448354  1
  V  V2  1  0.10748382  0.50460790  0.61642438  1
  V  V3  1  0.85426964  0.01605473  0.87812206  1
  V  V4  1  0.62543899  0.25736006  0.86453936  1
  V  V5  1  0.23861227  0.87597546  0.11725295  1
  V  V6  1  0.11792674  0.21563578  0.39658625  1
  V  V7  1  0.01248856  0.00389060  -0.01482565  1
  V  V8  1  0.48933847  0.88198409  0.37242336  1
  V  V9  1  0.51626600  0.87396809  0.87687441  1
  V  V10  1  0.25359404  0.00187919  0.26068885  1
  V  V11  1  0.10780962  0.86676310  0.76161631  1
  V  V12  1  0.62053780  0.00472252  0.12663948  1
  V  V13  1  0.11866505  0.36848874  0.74481349  1
  V  V14  1  0.89176336  0.61497461  0.25340158  1
  V  V15  1  0.87977979  0.86664757  -0.00871540  1
  V  V16  1  0.24713379  0.64163427  0.38403386  1
  V  V17  1  0.37379042  0.24443225  0.15132620  1
  V  V18  1  0.01404519  0.62926763  0.11775304  1
  V  V19  1  0.36684915  0.48253403  0.88388508  1
  V  V20  1  0.51486237  0.14312759  0.63171456  1
  V  V21  1  0.50127862  0.62918135  0.60567373  1
  V  V22  1  0.49604736  0.74939033  0.24768247  1
  V  V23  1  0.25401471  0.49169707  0.73826439  1
  V  V24  1  0.38111485  0.01506883  0.87068303  1
  V  V25  1  0.13028719  0.02705575  0.11987128  1
  V  V26  1  -0.02712394  0.23400887  0.74053321  1
  V  V27  1  0.62340296  0.74360089  0.37383902  1
  V  V28  1  0.61598880  0.49737606  0.58763628  1
  V  V29  1  0.10429167  0.74774128  0.35399620  1
  V  V30  1  0.49597563  0.48251292  -0.00165103  1
  V  V31  1  0.50951384  0.00259707  0.51956002  1
  V  V32  1  0.10320428  0.00117773  0.61746731  1
  V  V33  1  0.64306450  0.86931070  0.24981188  1
  V  V34  1  0.37732272  0.13791567  0.74118330  1
  V  V35  1  0.37785663  0.89469655  -0.00593348  1
  V  V36  1  0.24330393  0.49263204  0.24493791  1
  V  V37  1  0.74922165  0.00837343  0.72976555  1
  V  V38  1  0.74676834  0.02856268  0.26116654  1
  V  V39  1  -0.02138079  0.12688710  0.12784933  1
  V  V40  1  0.00604216  0.48408784  -0.00996259  1
  V  V41  1  0.88570667  0.86895065  0.48101875  1
  V  V42  1  0.26699211  0.25113017  0.00163796  1
  V  V43  1  0.63086064  0.87552948  0.72948621  1
  V  V44  1  0.24451653  0.63614312  0.88317407  1
  V  V45  1  0.75943368  0.38474099  0.62550900  1
  V  V46  1  0.25236651  -0.01125414  0.74266664  1
  V  V47  1  -0.02432313  0.62809784  0.63370139  1
  V  V48  1  0.36561832  0.62871808  0.24337617  1
  V  V49  1  0.36535820  0.75014483  0.10715916  1
  V  V50  1  0.62026138  0.38531119  0.24052660  1
  V  V51  1  0.37111831  0.86732016  0.51553470  1
  V  V52  1  0.74786497  0.62029788  0.36564284  1
  V  V53  1  0.02442876  0.37718158  0.37929210  1
  V  V54  1  0.87004547  0.75182646  0.13565800  1
  V  V55  1  0.88198442  0.01992458  0.37570642  1
  V  V56  1  0.74744968  0.75233532  0.49883251  1
  V  V57  1  0.85546237  0.50174546  0.88421510  1
  V  V58  1  0.38141699  0.63984393  0.75178817  1
  V  V59  1  0.50528439  0.62778617  0.10597900  1
  V  V60  1  0.12632904  0.47556753  0.12318023  1
  V  V61  1  0.86287870  0.76025220  0.63925373  1
  V  V62  1  0.75763109  0.25292230  0.48221787  1
  V  V63  1  0.13036805  0.24378305  0.87366385  1
  Zn  Zn64  1  0.20877381  0.18990658  0.19651856  1
  Zn  Zn65  1  0.17401088  0.16085663  0.71759168  1
  Zn  Zn66  1  0.18456721  0.69388997  0.18709491  1
  Zn  Zn67  1  0.16276042  0.66633781  0.73017689  1
  Zn  Zn68  1  0.65918899  0.18664129  0.19842611  1
  Zn  Zn69  1  0.70904826  0.18570783  0.67936836  1
  Zn  Zn70  1  0.69031258  0.69495573  0.06050169  1
  Zn  Zn71  1  0.65030356  0.70419888  0.66647317  1
  Zn  Zn72  1  0.31127889  0.31803403  0.32054517  1
  Zn  Zn73  1  0.30401279  0.30895594  0.80968751  1
  Zn  Zn74  1  0.30721216  0.82306615  0.30464566  1
  Zn  Zn75  1  0.31067336  0.81396220  0.81700141  1
  Zn  Zn76  1  0.80593134  0.32846932  0.30670003  1
  Zn  Zn77  1  0.81187350  0.33923489  0.80469109  1
  Zn  Zn78  1  0.82042769  0.79601069  0.30955187  1
  Zn  Zn79  1  0.79009603  0.81767999  0.81599776  1
  Zn  Zn80  1  0.19473636  0.45695046  0.43681479  1
  Zn  Zn81  1  0.18810775  0.42846286  0.93394694  1
  Zn  Zn82  1  0.17968750  0.92412790  0.44557837  1
  Zn  Zn83  1  0.19530373  0.94376581  0.93219829  1
  Zn  Zn84  1  0.69568781  0.43795165  0.43617749  1
  Zn  Zn85  1  0.69947444  0.51777154  0.99075960  1
  Zn  Zn86  1  0.68837467  0.93617357  0.43265179  1
  Zn  Zn87  1  0.68428362  0.88445201  0.98553967  1
  Zn  Zn88  1  0.31203877  0.07757312  0.06286502  1
  Zn  Zn89  1  0.34133129  0.03634922  0.57906524  1
  Zn  Zn90  1  0.30445581  0.55828164  0.05748519  1
  Zn  Zn91  1  0.31414961  0.57644339  0.56542433  1
  Zn  Zn92  1  0.81554359  0.01556963  0.07266548  1
  Zn  Zn93  1  0.81026963  0.05498867  0.54452391  1
  Zn  Zn94  1  0.83040127  0.54577891  0.07938753  1
  Zn  Zn95  1  0.80246598  0.56816136  0.55868362  1
  Zn  Zn96  1  0.42888815  0.44314619  0.18008695  1
  Zn  Zn97  1  0.44409616  0.46679421  0.69029380  1
  Zn  Zn98  1  0.42831847  0.93328165  0.18523015  1
  Zn  Zn99  1  0.44504897  0.93073250  0.69711539  1
  Zn  Zn100  1  0.95806019  0.44039011  0.20743485  1
  Zn  Zn101  1  0.93716095  0.43286120  0.69828645  1
  Zn  Zn102  1  0.93041639  0.93515159  0.22681105  1
  Zn  Zn103  1  0.92870838  0.93433093  0.69878046  1
  Zn  Zn104  1  0.06248776  0.05496076  0.30085400  1
  Zn  Zn105  1  0.05713682  0.06308816  0.79414080  1
  Zn  Zn106  1  0.06721109  0.56191970  0.31744851  1
  Zn  Zn107  1  0.05971398  0.56015433  0.80788158  1
  Zn  Zn108  1  0.52979872  0.03827952  0.26913227  1
  Zn  Zn109  1  0.56758367  0.06151669  0.81125659  1
  Zn  Zn110  1  0.55643281  0.56917267  0.30432739  1
  Zn  Zn111  1  0.55406174  0.57219550  0.83712218  1
  Zn  Zn112  1  0.63749333  0.12011609  0.50343568  1
  Zn  Zn113  1  0.44208369  0.19367025  0.94112492  1
  Zn  Zn114  1  0.42727778  0.69229743  0.43329228  1
  Zn  Zn115  1  0.43069547  0.69392667  0.92482064  1
  Zn  Zn116  1  0.93219319  0.21782660  0.43403142  1
  Zn  Zn117  1  0.96419958  0.17519271  0.91612866  1
  Zn  Zn118  1  0.94265629  0.68031404  0.45240656  1
  Zn  Zn119  1  0.83163017  0.67352635  0.94464177  1
  Zn  Zn120  1  0.06219719  0.30031204  0.05967551  1
  Zn  Zn121  1  0.05768887  0.31214296  0.56252378  1
  Zn  Zn122  1  0.02805925  0.84335172  0.11629249  1
  Zn  Zn123  1  0.04230880  0.82746057  0.59637080  1
  Zn  Zn124  1  0.56307209  0.28402581  0.06018869  1
  Zn  Zn125  1  0.60698818  0.29430958  0.57252439  1
  Zn  Zn126  1  0.55209023  0.81831790  0.06567577  1
  Zn  Zn127  1  0.55670831  0.81151208  0.55692299  1
  O  O128  1  0.13723968  0.12540177  0.12218008  1
  O  O129  1  0.12485376  0.10008207  0.63711616  1
  O  O130  1  0.11542152  0.62523103  0.12752181  1
  O  O131  1  0.13115116  0.60207790  0.63920420  1
  O  O132  1  0.62154322  0.10451117  0.13048136  1
  O  O133  1  0.61628564  0.12723450  0.62967095  1
  O  O134  1  0.60310407  0.63476428  0.11709876  1
  O  O135  1  0.61440493  0.60414363  0.62891850  1
  O  O136  1  0.36790883  0.40188569  0.37007997  1
  O  O137  1  0.36746828  0.38509458  0.87113254  1
  O  O138  1  0.38829235  0.86505290  0.37978123  1
  O  O139  1  0.37986053  0.88467534  0.88604502  1
  O  O140  1  0.86274258  0.40067129  0.37162279  1
  O  O141  1  0.87252620  0.29876105  0.93071191  1
  O  O142  1  0.88161614  0.86383291  0.37904558  1
  O  O143  1  0.86432293  0.86998868  0.89044761  1
  O  O144  1  0.22837286  -0.02367585  0.35446520  1
  O  O145  1  0.27246690  0.00246790  0.86384882  1
  O  O146  1  0.25427246  0.52033004  0.35984862  1
  O  O147  1  0.25712905  0.50307081  0.86827243  1
  O  O148  1  0.75917069  0.00242870  0.36775636  1
  O  O149  1  0.75842508  0.00791099  0.89127379  1
  O  O150  1  0.76184470  0.51840826  0.38348487  1
  O  O151  1  0.75845849  0.48017152  0.89776370  1
  O  O152  1  0.23697615  0.50303413  0.13367268  1
  O  O153  1  0.25721584  0.50392013  0.63721864  1
  O  O154  1  0.24137015  0.99281609  0.11670251  1
  O  O155  1  0.25466538  1.00009127  0.63978967  1
  O  O156  1  0.75019780  0.46895983  0.08048167  1
  O  O157  1  0.72829786  0.49277524  0.60373882  1
  O  O158  1  0.73548469  1.00104992  0.15496118  1
  O  O159  1  0.76441162  0.99696133  0.63096506  1
  O  O160  1  -0.00674447  0.36628712  0.27987177  1
  O  O161  1  0.01727137  0.36567761  0.74885069  1
  O  O162  1  0.02305910  0.88404775  0.22085497  1
  O  O163  1  0.00717595  0.87660156  0.76125815  1
  O  O164  1  0.51568658  0.39318581  0.24857607  1
  O  O165  1  0.53525389  0.42437451  0.75930288  1
  O  O166  1  0.49338024  0.86106596  0.26032772  1
  O  O167  1  0.52331423  0.88553573  0.76541899  1
  O  O168  1  0.41956651  0.11348036  0.30226015  1
  O  O169  1  0.49308158  0.11742075  0.73757727  1
  O  O170  1  0.48671021  0.63371421  0.23335437  1
  O  O171  1  0.48402219  0.61987335  0.76003657  1
  O  O172  1  1.00395900  0.12001586  0.22592028  1
  O  O173  1  0.97985806  0.13215422  0.74622925  1
  O  O174  1  0.99718521  0.61675102  0.24048878  1
  O  O175  1  1.00596094  0.62518542  0.73353250  1
  O  O176  1  0.36674380  0.26140304  -0.01103145  1
  O  O177  1  0.37748941  0.25787496  0.45691705  1
  O  O178  1  0.37334697  0.76047528  0.00651827  1
  O  O179  1  0.38272269  0.76723791  0.50319523  1
  O  O180  1  0.78707251  0.18489202  0.02093078  1
  O  O181  1  0.85751166  0.25328203  0.50752884  1
  O  O182  1  0.87445071  0.76128541  0.01017899  1
  O  O183  1  0.86331408  0.75695686  0.50152151  1
  O  O184  1  0.12546062  0.24241102  0.49431609  1
  O  O185  1  0.10799389  0.23817483  0.97135786  1
  O  O186  1  0.17344918  0.75473262  0.55633620  1
  O  O187  1  0.07343486  0.74663919  0.93982418  1
  O  O188  1  0.63874594  0.23421881  0.48430947  1
  O  O189  1  0.63713004  0.28308840  0.96549428  1
  O  O190  1  0.63604528  0.75533594  0.48457084  1
  O  O191  1  0.64199671  0.78233334  1.01332763  1
  O  O192  1  0.48168592  0.26361527  0.13652450  1
  O  O193  1  0.51239989  0.24169418  0.62319318  1
  O  O194  1  0.48359243  0.74558542  0.12852536  1
  O  O195  1  0.52930632  0.72755871  0.62821651  1
  O  O196  1  0.99060180  0.22555060  0.10395241  1
  O  O197  1  1.00106645  0.25466998  0.64430765  1
  O  O198  1  0.99217860  0.73087890  0.11379538  1
  O  O199  1  0.97133906  0.74335721  0.63481119  1
  O  O200  1  0.02093227  0.25330916  0.37347004  1
  O  O201  1  0.01554563  0.24867117  0.84634481  1
  O  O202  1  0.00701717  0.72923903  0.37215630  1
  O  O203  1  0.01654647  0.74725949  0.89585977  1
  O  O204  1  0.57493106  0.18019852  0.35286340  1
  O  O205  1  0.51952884  0.25161482  0.87355792  1
  O  O206  1  0.50618565  0.74825038  0.36502445  1
  O  O207  1  0.49575280  0.77537708  0.87901047  1
  O  O208  1  0.34054738  0.21768029  0.50500997  1
  O  O209  1  0.25005136  0.14767305  0.99849945  1
  O  O210  1  0.25629791  0.63316945  0.48304927  1
  O  O211  1  0.24458675  0.61836079  0.98247396  1
  O  O212  1  0.75134061  0.14116732  0.51121776  1
  O  O213  1  0.74771440  0.12327567  1.02215908  1
  O  O214  1  0.75856997  0.64334813  0.48017584  1
  O  O215  1  0.75962968  0.61652162  1.01544740  1
  O  O216  1  0.22618876  0.34724537  0.00107724  1
  O  O217  1  0.27236817  0.37300712  0.49995483  1
  O  O218  1  0.26841100  0.88308159  0.00573486  1
  O  O219  1  0.27532454  0.88834939  0.50054862  1
  O  O220  1  0.84842575  0.32829376  -0.00675730  1
  O  O221  1  0.73960691  0.36177633  0.50317503  1
  O  O222  1  0.78891747  0.90142230  0.02944193  1
  O  O223  1  0.75919418  0.85783036  0.48634091  1
  O  O224  1  0.13682576  0.50565982  0.24037492  1
  O  O225  1  0.13854841  0.48665392  0.74433372  1
  O  O226  1  0.13473945  1.00052274  0.22246755  1
  O  O227  1  0.14240441  0.99197318  0.75006273  1
  O  O228  1  0.62180430  0.49175495  0.24309470  1
  O  O229  1  0.59338656  0.46817834  0.77655426  1
  O  O230  1  0.64059704  0.98405614  0.26324415  1
  O  O231  1  0.64151059  0.99792304  0.75098588  1
  O  O232  1  0.35511597  -0.01346138  0.25078147  1
  O  O233  1  0.37430063  0.00260385  0.75846363  1
  O  O234  1  0.36163466  0.51486493  0.24410062  1
  O  O235  1  0.36576964  0.50141415  0.76173309  1
  O  O236  1  0.85500659  0.00745278  0.26189024  1
  O  O237  1  0.85641786  -0.01282936  0.77076565  1
  O  O238  1  0.87951059  0.51159951  0.25719494  1
  O  O239  1  0.88068039  0.43835254  0.80397221  1
  O  O240  1  0.12473130  0.38644540  0.38028265  1
  O  O241  1  0.13201662  0.36104943  0.85417167  1
  O  O242  1  0.12856912  0.82805731  0.41021572  1
  O  O243  1  0.13720390  0.87953663  0.85929448  1
  O  O244  1  0.63422084  0.39292236  0.34634810  1
  O  O245  1  0.60469162  0.34865247  0.82762077  1
  O  O246  1  0.61449961  0.86281643  0.36444768  1
  O  O247  1  0.61438849  0.88530188  0.89002581  1
  O  O248  1  0.38156824  0.14526802  0.12214631  1
  O  O249  1  0.39136972  0.12475484  0.63462804  1
  O  O250  1  0.36873418  0.64060435  0.12339808  1
  O  O251  1  0.39276945  0.62242983  0.63845817  1
  O  O252  1  0.88194033  0.09926282  0.12002079  1
  O  O253  1  0.92066721  0.11651016  0.58686897  1
  O  O254  1  0.88903259  0.62301388  0.13933485  1
  O  O255  1  0.87057243  0.63223008  0.62934004  1
  O  O256  1  0.26633647  0.25046159  0.11682940  1
  O  O257  1  0.25316577  0.33238078  0.55787969  1
  O  O258  1  0.26092804  0.76126160  0.12378916  1
  O  O259  1  0.22991639  0.75285343  0.60179016  1
  O  O260  1  0.66417107  0.26041099  0.11560448  1
  O  O261  1  0.72650833  0.27590298  0.61642633  1
  O  O262  1  0.77231767  0.74005271  0.13257500  1
  O  O263  1  0.74999818  0.73977115  0.60560572  1
  O  O264  1  0.22003680  0.24607168  0.35510269  1
  O  O265  1  0.23807317  0.25041122  0.88205213  1
  O  O266  1  0.25240847  0.74093398  0.36443707  1
  O  O267  1  0.25678977  0.73579402  0.87738658  1
  O  O268  1  0.76392453  0.25513515  0.37964887  1
  O  O269  1  0.72952033  0.27148305  0.86427571  1
  O  O270  1  0.74143832  0.74075301  0.37681631  1
  O  O271  1  0.74311432  0.72781682  0.88012841  1
  O  O272  1  -0.00146150  0.10735480  0.00251657  1
  O  O273  1  -0.02504281  0.13088276  0.53964024  1
  O  O274  1  0.00053606  0.59831030  0.02091486  1
  O  O275  1  0.00602116  0.63395781  0.53519330  1
  O  O276  1  0.52628589  0.18497066  0.01324431  1
  O  O277  1  0.50278882  0.10821207  0.52282744  1
  O  O278  1  0.48856619  0.63860284  0.00671158  1
  O  O279  1  0.49311264  0.63292902  0.50721535  1
  O  O280  1  0.43303385  0.36879090  0.54912812  1
  O  O281  1  0.50846758  0.38685357  1.01275081  1
  O  O282  1  0.50223369  0.88140503  0.48530731  1
  O  O283  1  0.48413936  0.88203548  0.99572891  1
  O  O284  1  0.99484266  0.36058034  0.47747427  1
  O  O285  1  1.00644557  0.38544691  1.00650893  1
  O  O286  1  0.98235526  0.86124201  0.50416813  1
  O  O287  1  0.98537916  0.89161974  1.01418852  1
  O  O288  1  0.47824750  0.52105927  0.36875136  1
  O  O289  1  0.47415466  0.50351062  0.88762508  1
  O  O290  1  0.49980776  0.98116102  0.36386457  1
  O  O291  1  0.48739412  0.99282844  0.87162810  1
  O  O292  1  0.99507852  0.49140888  0.37709869  1
  O  O293  1  1.01813287  0.49691783  0.89086871  1
  O  O294  1  0.97694757  0.99430870  0.35374789  1
  O  O295  1  1.00847554  1.00462712  0.88336155  1
  O  O296  1  0.02228221  0.01634998  0.11074749  1
  O  O297  1  0.00232197  -0.00622677  0.63345913  1
  O  O298  1  0.01671910  0.49947306  0.12835407  1
  O  O299  1  0.00071181  0.50943183  0.63198511  1
  O  O300  1  0.51570712  0.00037820  0.16183246  1
  O  O301  1  0.51186981  -0.00912478  0.61858456  1
  O  O302  1  0.48260545  0.52011774  0.10738815  1
  O  O303  1  0.50676726  0.51503164  0.61250716  1
  O  O304  1  0.25108607  0.39648379  0.25453312  1
  O  O305  1  0.25185778  0.38887521  0.74498306  1
  O  O306  1  0.24948908  0.88075635  0.22267587  1
  O  O307  1  0.26098839  0.88855229  0.74940607  1
  O  O308  1  0.72441479  0.37954323  0.23443255  1
  O  O309  1  0.74085997  0.38582836  0.72496516  1
  O  O310  1  0.74114531  0.86097279  0.25531166  1
  O  O311  1  0.73550295  0.89304942  0.75454731  1
  O  O312  1  0.25024224  0.10206813  0.25507332  1
  O  O313  1  0.27508850  0.11101016  0.74573796  1
  O  O314  1  0.25709416  0.62572837  0.24898864  1
  O  O315  1  0.26711094  0.61244695  0.75361408  1
  O  O316  1  0.73640326  0.12706669  0.25757025  1
  O  O317  1  0.75826040  0.10851003  0.74121539  1
  O  O318  1  0.77397611  0.62676709  0.26750241  1
  O  O319  1  0.70157655  0.66827956  0.83504189  1
  O  O320  1  0.41346675  0.12777695  0.37341586  1
  O  O321  1  0.39433242  0.11856569  0.86534036  1
  O  O322  1  0.36288811  0.62577585  0.36098898  1
  O  O323  1  0.36321634  0.61962764  0.86603209  1
  O  O324  1  0.88738525  0.11674590  0.39254311  1
  O  O325  1  0.87288552  0.11452440  0.88226573  1
  O  O326  1  0.88105448  0.61566525  0.36931011  1
  O  O327  1  0.86725406  0.59968530  0.86468750  1
  O  O328  1  0.11985523  0.37812065  0.13114796  1
  O  O329  1  0.11737684  0.39284087  0.63270787  1
  O  O330  1  0.14249406  0.86422380  0.10011698  1
  O  O331  1  0.12045073  0.89146234  0.64664415  1
  O  O332  1  0.61510573  0.38907168  0.13763796  1
  O  O333  1  0.60871752  0.39869004  0.61373072  1
  O  O334  1  0.61551678  0.87866359  0.15111045  1
  O  O335  1  0.62335113  0.87474534  0.62973519  1
  O  O336  1  0.16197761  0.24841980  0.29010606  1
  O  O337  1  0.14714697  0.26955788  0.73530240  1
  O  O338  1  0.12188769  0.75888371  0.25478998  1
  O  O339  1  0.12801163  0.77010309  0.74085254  1
  O  O340  1  0.60789385  0.28285177  0.25486002  1
  O  O341  1  0.63228648  0.22762772  0.76217073  1
  O  O342  1  0.61068373  0.75985768  0.25676318  1
  O  O343  1  0.63924489  0.77596846  0.75155630  1
  O  O344  1  0.35771353  0.24324369  0.25159604  1
  O  O345  1  0.37295779  0.23618030  0.75415014  1
  O  O346  1  0.37926478  0.74595949  0.23915791  1
  O  O347  1  0.37294311  0.73789224  0.75398368  1
  O  O348  1  0.84771371  0.29161626  0.19887566  1
  O  O349  1  0.87646274  0.25987851  0.75450509  1
  O  O350  1  0.88523094  0.73151513  0.24297962  1
  O  O351  1  0.84595075  0.75682802  0.73618693  1
  O  O352  1  0.36350733  0.51207423  0.48359986  1
  O  O353  1  0.37326878  0.49439767  0.99110317  1
  O  O354  1  0.40231444  0.98773951  0.49795455  1
  O  O355  1  0.37405188  1.00038317  0.98883239  1
  O  O356  1  0.87843142  0.51038991  0.49109937  1
  O  O357  1  0.89422382  0.49114254  0.98739820  1
  O  O358  1  0.86986677  0.97997403  0.48083339  1
  O  O359  1  0.89244659  0.99344489  0.98288091  1
  O  O360  1  0.11988471  -0.00444694  0.00467118  1
  O  O361  1  0.12107174  -0.01288686  0.51928222  1
  O  O362  1  0.12275885  0.49097862  0.01696933  1
  O  O363  1  0.13125474  0.49929062  0.51889628  1
  O  O364  1  0.62953353  -0.01942805  0.03052377  1
  O  O365  1  0.61183418  0.00594973  0.48299705  1
  O  O366  1  0.59024679  0.51659139  -0.02186357  1
  O  O367  1  0.61556025  0.50205735  0.48833108  1
  O  O368  1  0.38142310  0.35427984  0.13413273  1
  O  O369  1  0.40437985  0.37001599  0.61714107  1
  O  O370  1  0.37187101  0.86725405  0.10998395  1
  O  O371  1  0.38709249  0.87802246  0.61603871  1
  O  O372  1  0.87247303  0.34718316  0.15501145  1
  O  O373  1  0.85900125  0.39426842  0.62346209  1
  O  O374  1  0.88749425  0.85293020  0.14009966  1
  O  O375  1  0.87074294  0.86106090  0.61784862  1
  O  O376  1  0.10750722  0.11668415  0.38826019  1
  O  O377  1  0.13032052  0.14672867  0.83291314  1
  O  O378  1  0.13825232  0.63842026  0.37051435  1
  O  O379  1  0.14657938  0.62527211  0.84684961  1
  O  O380  1  0.57057926  0.14995142  0.28413108  1
  O  O381  1  0.62058681  0.15084903  0.87596018  1
  O  O382  1  0.63782063  0.63185209  0.35778581  1
  O  O383  1  0.64841390  0.63157447  0.88104587  1
