# generated using pymatgen
data_VZnO4
_symmetry_space_group_name_H-M   'P 1'
_cell_length_a   17.13702112
_cell_length_b   17.04869487
_cell_length_c   16.97877611
_cell_angle_alpha   89.96606485
_cell_angle_beta   90.09671827
_cell_angle_gamma   89.89794992
_symmetry_Int_Tables_number   1
_chemical_formula_structural   VZnO4
_chemical_formula_sum   'V64 Zn64 O256'
_cell_volume   4960.56867850
_cell_formula_units_Z   64
loop_
 _symmetry_equiv_pos_site_id
 _symmetry_equiv_pos_as_xyz
  1  'x, y, z'
loop_
 _atom_site_type_symbol
 _atom_site_label
 _atom_site_symmetry_multiplicity
 _atom_site_fract_x
 _atom_site_fract_y
 _atom_site_fract_z
 _atom_site_occupancy
  V  V0  1  0.86919290  0.21577392  0.13878070  1
  V  V1  1  0.26064068  0.89253301  0.63817788  1
  V  V2  1  0.01042410  0.22053566  0.25795296  1
  V  V3  1  0.73473229  0.87936288  0.63706694  1
  V  V4  1  0.14555084  0.63011957  -0.01165088  1
  V  V5  1  0.37565186  0.36440584  0.00402811  1
  V  V6  1  0.88201185  0.75181699  0.62324749  1
  V  V7  1  0.59378273  0.13111097  0.50723398  1
  V  V8  1  0.04569149  -0.03011457  0.48583284  1
  V  V9  1  0.40304559  0.27520161  0.64115031  1
  V  V10  1  0.89432076  0.51811144  0.37109216  1
  V  V11  1  0.13032907  0.86274727  0.26276691  1
  V  V12  1  0.50045149  0.02927713  0.00525777  1
  V  V13  1  -0.00428708  0.53378969  0.01217473  1
  V  V14  1  0.87698848  0.65816808  0.77986629  1
  V  V15  1  0.83326244  0.86653345  0.48907313  1
  V  V16  1  0.63141060  0.61574033  -0.00458749  1
  V  V17  1  0.39787098  0.87229301  -0.01566309  1
  V  V18  1  0.52179938  0.61933227  0.65825939  1
  V  V19  1  0.37802792  0.74707087  0.11261200  1
  V  V20  1  0.09803088  0.76050441  0.86499111  1
  V  V21  1  0.48059478  0.87204077  0.39900801  1
  V  V22  1  0.36089431  0.62259368  0.76401620  1
  V  V23  1  0.61295887  0.00462589  0.14412180  1
  V  V24  1  0.74630744  0.00535082  0.26665170  1
  V  V25  1  0.25935453  0.00335066  0.26976914  1
  V  V26  1  0.50864592  0.61183351  0.11574694  1
  V  V27  1  0.73156803  0.40801487  0.13943605  1
  V  V28  1  0.35040290  0.49446269  0.88403210  1
  V  V29  1  0.26478022  0.75688538  -0.03209526  1
  V  V30  1  0.10739215  0.87149354  0.73294527  1
  V  V31  1  0.24248833  0.25999264  0.50989761  1
  V  V32  1  0.24958571  0.14126261  0.85829397  1
  V  V33  1  0.75061848  0.87691383  0.12930754  1
  V  V34  1  0.68537639  0.50179615  0.65481825  1
  V  V35  1  0.62546309  0.74331163  0.38883212  1
  V  V36  1  0.58988103  0.37088521  0.25559959  1
  V  V37  1  0.25349266  0.88214707  0.11313916  1
  V  V38  1  0.61868545  0.74647000  0.86334966  1
  V  V39  1  0.39880327  0.14686345  0.74752510  1
  V  V40  1  0.60719962  0.25821130  0.84658077  1
  V  V41  1  0.74773679  0.24709434  0.48403565  1
  V  V42  1  0.24422479  0.62507672  0.39224336  1
  V  V43  1  0.08963200  0.50165474  0.63062677  1
  V  V44  1  0.88154115  0.37454372  0.03663651  1
  V  V45  1  0.88894099  0.00956642  0.38622948  1
  V  V46  1  0.25405150  0.39752635  0.64697302  1
  V  V47  1  0.25848208  0.74676805  0.53301664  1
  V  V48  1  0.38923569  0.00359673  0.85937712  1
  V  V49  1  0.10123664  0.36871753  0.77455392  1
  V  V50  1  0.39166848  0.37860833  0.50012580  1
  V  V51  1  0.37119586  0.61759536  0.24218355  1
  V  V52  1  0.61478905  0.89836225  0.75741858  1
  V  V53  1  0.87221064  0.47430943  0.88838757  1
  V  V54  1  0.84917534  0.63842623  0.24054228  1
  V  V55  1  0.23698830  0.24308440  0.01082984  1
  V  V56  1  0.01527381  0.10082593  0.11437007  1
  V  V57  1  0.37990378  0.49015033  0.36235277  1
  V  V58  1  0.87813398  0.11488249  0.73175527  1
  V  V59  1  0.50390167  0.75857210  0.24505449  1
  V  V60  1  0.74420489  0.23225263  0.01272667  1
  V  V61  1  0.75195789  0.76113135  -0.00647647  1
  V  V62  1  0.50497159  0.52215527  0.49856583  1
  V  V63  1  0.12333743  0.41444942  0.17902119  1
  Zn  Zn64  1  0.18479313  0.17217548  0.19028209  1
  Zn  Zn65  1  0.20308373  0.20969634  0.68555692  1
  Zn  Zn66  1  0.19443808  0.68213246  0.17950921  1
  Zn  Zn67  1  0.17630176  0.67783104  0.69906989  1
  Zn  Zn68  1  0.67415402  0.18752976  0.19760320  1
  Zn  Zn69  1  0.67797450  0.17149571  0.67348868  1
  Zn  Zn70  1  0.68262535  0.69235368  0.18026507  1
  Zn  Zn71  1  0.70410618  0.68771043  0.68159591  1
  Zn  Zn72  1  0.17343195  0.31677756  0.32753629  1
  Zn  Zn73  1  0.31811204  0.31923819  0.82281818  1
  Zn  Zn74  1  0.31162753  0.80363659  0.30269731  1
  Zn  Zn75  1  0.34277362  0.81778454  0.77612370  1
  Zn  Zn76  1  0.74790241  0.36034269  0.35173108  1
  Zn  Zn77  1  0.86158984  0.27204880  0.85773283  1
  Zn  Zn78  1  0.80342568  0.81225482  0.30669217  1
  Zn  Zn79  1  0.80553871  0.82171000  0.81251016  1
  Zn  Zn80  1  0.20845058  0.44986504  0.45910896  1
  Zn  Zn81  1  0.17143270  0.42083493  0.96946467  1
  Zn  Zn82  1  0.21351006  0.91454559  0.44189847  1
  Zn  Zn83  1  0.21123999  0.94643955  0.83378587  1
  Zn  Zn84  1  0.60691852  0.36945978  0.46766844  1
  Zn  Zn85  1  0.69682449  0.41928766  0.94996281  1
  Zn  Zn86  1  0.65460330  0.92711047  0.43925508  1
  Zn  Zn87  1  0.64558431  0.91343534  0.96195949  1
  Zn  Zn88  1  0.28744542  0.03977729  0.01024163  1
  Zn  Zn89  1  0.19796934  0.07380055  0.56992350  1
  Zn  Zn90  1  0.32380189  0.56171695  0.04928543  1
  Zn  Zn91  1  0.33159139  0.57395900  0.56805540  1
  Zn  Zn92  1  0.80609773  0.04821002  0.07190822  1
  Zn  Zn93  1  0.78755338  0.05918312  0.54682140  1
  Zn  Zn94  1  0.80977122  0.57016369  0.06234798  1
  Zn  Zn95  1  0.88127825  0.53865242  0.58671519  1
  Zn  Zn96  1  0.43863076  0.42769202  0.16800259  1
  Zn  Zn97  1  0.42681958  0.47462020  0.68055308  1
  Zn  Zn98  1  0.42928585  0.93966070  0.17939551  1
  Zn  Zn99  1  0.43860730  0.93961624  0.68141062  1
  Zn  Zn100  1  0.94844968  0.45298701  0.19709540  1
  Zn  Zn101  1  0.96193755  0.45123690  0.72809841  1
  Zn  Zn102  1  0.96176663  0.89502508  0.14738114  1
  Zn  Zn103  1  0.94373387  0.93739078  0.64623882  1
  Zn  Zn104  1  0.04178612  0.00702437  0.26353049  1
  Zn  Zn105  1  0.09373106  0.08166762  0.74683667  1
  Zn  Zn106  1  0.09822198  0.50671340  0.32193079  1
  Zn  Zn107  1  0.04428533  0.56885741  0.82425649  1
  Zn  Zn108  1  0.56947328  0.03994507  0.35201777  1
  Zn  Zn109  1  0.57397951  0.08044997  0.82874907  1
  Zn  Zn110  1  0.56233441  0.56287367  0.30772890  1
  Zn  Zn111  1  0.71690283  0.56969987  0.82911355  1
  Zn  Zn112  1  0.38504683  0.14230238  0.51964874  1
  Zn  Zn113  1  0.44128648  0.19923922  0.93163647  1
  Zn  Zn114  1  0.43042957  0.69438902  0.42998806  1
  Zn  Zn115  1  0.44794352  0.67517864  0.92660537  1
  Zn  Zn116  1  0.87658199  0.22187949  0.38102097  1
  Zn  Zn117  1  0.93890739  0.09339225  0.92270670  1
  Zn  Zn118  1  0.89047362  0.67037829  0.44986132  1
  Zn  Zn119  1  0.92756823  0.71425384  1.07817294  1
  Zn  Zn120  1  0.05946615  0.29136078  0.06619219  1
  Zn  Zn121  1  0.04352591  0.42350047  0.45637351  1
  Zn  Zn122  1  0.09464287  0.77636048  0.08772352  1
  Zn  Zn123  1  0.05830559  0.76489371  0.52221207  1
  Zn  Zn124  1  0.56944019  0.30904509  0.08629545  1
  Zn  Zn125  1  0.61368619  0.31675361  0.64673945  1
  Zn  Zn126  1  0.57111897  0.80691774  0.06762008  1
  Zn  Zn127  1  0.55821069  0.80037480  0.56874470  1
  O  O128  1  0.11375388  0.10744580  0.12611099  1
  O  O129  1  0.13912567  0.12389064  0.65218375  1
  O  O130  1  0.12481812  0.65983200  0.08650769  1
  O  O131  1  0.11969356  0.59533688  0.64156865  1
  O  O132  1  0.62050693  0.10271767  0.13098821  1
  O  O133  1  0.61294702  0.11211203  0.60612859  1
  O  O134  1  0.61252117  0.62850417  0.11401102  1
  O  O135  1  0.63559064  0.60040775  0.64043002  1
  O  O136  1  0.37440238  0.38950455  0.39126296  1
  O  O137  1  0.38077950  0.38450771  0.89451668  1
  O  O138  1  0.38386884  0.84789780  0.37538547  1
  O  O139  1  0.38186238  0.89745238  0.86733460  1
  O  O140  1  0.83117653  0.44272999  0.36997656  1
  O  O141  1  0.87183656  0.37406838  0.91152966  1
  O  O142  1  0.86152413  0.87212196  0.39015333  1
  O  O143  1  0.86787878  0.90529497  0.88397504  1
  O  O144  1  0.26659234  -0.01739688  0.36799059  1
  O  O145  1  0.27894486  0.02021338  0.88405775  1
  O  O146  1  0.27794871  0.51454514  0.38610202  1
  O  O147  1  0.25393385  0.49115767  0.89478559  1
  O  O148  1  0.71996657  -0.01602028  0.36036382  1
  O  O149  1  0.82515237  -0.04164381  0.91905002  1
  O  O150  1  0.71964866  0.56511212  0.44552772  1
  O  O151  1  0.77252663  0.50265613  0.90620528  1
  O  O152  1  0.28223480  0.47058189  0.11118275  1
  O  O153  1  0.26913518  0.49477860  0.62449902  1
  O  O154  1  0.26365808  0.98151611  0.10166790  1
  O  O155  1  0.26232515  0.98951743  0.62407440  1
  O  O156  1  0.75025922  0.50464191  0.13465126  1
  O  O157  1  0.77922120  0.50383720  0.61944091  1
  O  O158  1  0.73138115  0.99500046  0.14092998  1
  O  O159  1  0.74302132  0.97696099  0.61200878  1
  O  O160  1  0.03312741  0.37532321  0.21394022  1
  O  O161  1  0.00171769  0.35045846  0.76635944  1
  O  O162  1  0.03009566  0.88561504  0.25412398  1
  O  O163  1  0.01010804  0.88027458  0.71777993  1
  O  O164  1  0.48867158  0.36683600  0.24619017  1
  O  O165  1  0.52883760  0.42052913  0.76960227  1
  O  O166  1  0.48355988  0.85600280  0.23805917  1
  O  O167  1  0.51688123  0.88678576  0.74139861  1
  O  O168  1  0.49142630  0.12465947  0.27665378  1
  O  O169  1  0.49557556  0.13122746  0.75656883  1
  O  O170  1  0.49058912  0.63147527  0.23008687  1
  O  O171  1  0.51910610  0.60703288  0.75427908  1
  O  O172  1  1.00691743  0.11982109  0.25984535  1
  O  O173  1  0.97975821  0.11376226  0.73430397  1
  O  O174  1  1.02156981  0.67137138  0.30623162  1
  O  O175  1  0.96246689  0.61057081  0.75261983  1
  O  O176  1  0.36896446  0.26071123  -0.00368208  1
  O  O177  1  0.38254579  0.27371681  0.52241675  1
  O  O178  1  0.37804463  0.74975620  -0.00773141  1
  O  O179  1  0.35444551  0.73405053  0.49999461  1
  O  O180  1  0.86785220  0.26270332  0.03952265  1
  O  O181  1  0.84234716  0.25016825  0.50822430  1
  O  O182  1  0.84819309  0.75260419  0.00330930  1
  O  O183  1  0.86037728  0.76343145  0.50570007  1
  O  O184  1  0.15113448  0.26339952  0.53723826  1
  O  O185  1  0.13897614  0.24865328  0.99641837  1
  O  O186  1  0.16360954  0.74297827  0.49591725  1
  O  O187  1  0.15332146  0.75206038  0.97078262  1
  O  O188  1  0.62014897  0.24153795  0.50584739  1
  O  O189  1  0.64548191  0.25041714  1.02451510  1
  O  O190  1  0.61850077  0.74188675  0.48928199  1
  O  O191  1  0.63054208  0.74835901  0.98733948  1
  O  O192  1  0.39369160  0.22889574  0.18051558  1
  O  O193  1  0.49958290  0.28660805  0.63772639  1
  O  O194  1  0.49147370  0.74321700  0.12487004  1
  O  O195  1  0.52163872  0.71660318  0.63613604  1
  O  O196  1  1.00055948  0.21644732  0.13447879  1
  O  O197  1  0.98436045  0.33086470  0.50916731  1
  O  O198  1  0.98975620  0.80185650  0.09451833  1
  O  O199  1  0.98037188  0.76174724  0.60648110  1
  O  O200  1  -0.01825771  0.25032472  0.35123255  1
  O  O201  1  -0.05941857  0.19952002  0.88661525  1
  O  O202  1  0.02747104  0.72126150  0.35976272  1
  O  O203  1  0.00602855  0.77127941  0.88154661  1
  O  O204  1  0.49766371  0.19488005  0.29273614  1
  O  O205  1  0.50885152  0.26380930  0.86934231  1
  O  O206  1  0.49904603  0.74935391  0.35498643  1
  O  O207  1  0.52049065  0.74176833  0.87160467  1
  O  O208  1  0.27037612  0.15344560  0.52138310  1
  O  O209  1  0.25779909  0.13960899  0.97541968  1
  O  O210  1  0.25576568  0.62465955  0.49676402  1
  O  O211  1  0.24960545  0.63607920  0.99140017  1
  O  O212  1  0.72887829  0.13867763  0.49711508  1
  O  O213  1  0.75666887  0.13270761  1.01461800  1
  O  O214  1  0.72974117  0.62070079  0.48923908  1
  O  O215  1  0.73398843  0.64574102  1.01686745  1
  O  O216  1  0.26262057  0.35192331  -0.00206260  1
  O  O217  1  0.27096334  0.37774444  0.52092194  1
  O  O218  1  0.27636768  0.86029610  -0.00752289  1
  O  O219  1  0.26108996  0.85882793  0.53112408  1
  O  O220  1  0.76002772  0.36727804  0.03529280  1
  O  O221  1  0.71911558  0.35220664  0.46734226  1
  O  O222  1  0.73948276  0.86904139  0.00641309  1
  O  O223  1  0.73405451  0.86882913  0.50279831  1
  O  O224  1  0.12612464  0.51134414  0.21174117  1
  O  O225  1  0.07940678  0.48685342  0.74785546  1
  O  O226  1  0.15304930  0.97080113  0.24646523  1
  O  O227  1  0.12765437  0.97334265  0.75390368  1
  O  O228  1  0.60289742  0.47314959  0.25770918  1
  O  O229  1  0.68399538  0.48890228  0.75416432  1
  O  O230  1  0.61351950  0.99570839  0.24543642  1
  O  O231  1  0.62398637  0.99606734  0.76946637  1
  O  O232  1  0.35439682  -0.00186298  0.23446961  1
  O  O233  1  0.39097350  0.01851793  0.75690872  1
  O  O234  1  0.38476422  0.50540907  0.25483594  1
  O  O235  1  0.38030791  0.50287770  0.77932501  1
  O  O236  1  0.85299578  -0.00298416  0.28721754  1
  O  O237  1  0.88129299  0.00952359  0.71581284  1
  O  O238  1  0.90314515  0.53612291  0.25823755  1
  O  O239  1  0.87159863  0.47925491  0.78796995  1
  O  O240  1  0.13256377  0.40952968  0.38347078  1
  O  O241  1  0.12261605  0.38837594  0.87115981  1
  O  O242  1  0.15434741  0.85314883  0.35923117  1
  O  O243  1  0.13101805  0.86059196  0.85246109  1
  O  O244  1  0.61105677  0.34396398  0.35055664  1
  O  O245  1  0.64769192  0.34575746  0.88156618  1
  O  O246  1  0.59114749  0.85368563  0.37865148  1
  O  O247  1  0.62482566  0.86327429  0.86036533  1
  O  O248  1  0.40449382  0.16254619  0.15545342  1
  O  O249  1  0.39195269  0.16287991  0.63980081  1
  O  O250  1  0.38953590  0.62952373  0.11706533  1
  O  O251  1  0.39848751  0.60302103  0.65942078  1
  O  O252  1  0.88486382  0.11510844  0.12842127  1
  O  O253  1  0.87213652  0.11948907  0.62456457  1
  O  O254  1  0.87491860  0.63223383  0.13529815  1
  O  O255  1  0.87011870  0.65289675  0.61821390  1
  O  O256  1  0.24504904  0.22688753  0.10973873  1
  O  O257  1  0.27499128  0.28164776  0.63067751  1
  O  O258  1  0.27102991  0.75365625  0.10656064  1
  O  O259  1  0.25365743  0.73275013  0.63272151  1
  O  O260  1  0.76660690  0.22923117  0.13845535  1
  O  O261  1  0.70429891  0.25809456  0.59779194  1
  O  O262  1  0.73599141  0.77255930  0.11766551  1
  O  O263  1  0.76251606  0.77115701  0.63059052  1
  O  O264  1  0.23830758  0.27008946  0.40793177  1
  O  O265  1  0.25464956  0.24319809  0.87629664  1
  O  O266  1  0.25353004  0.71831789  0.35523005  1
  O  O267  1  0.27353124  0.75737744  0.87186759  1
  O  O268  1  0.76769783  0.24543649  0.37311685  1
  O  O269  1  0.76740503  0.25027805  0.91555628  1
  O  O270  1  0.72135688  0.76171791  0.36614335  1
  O  O271  1  0.74164805  0.76231228  0.88773804  1
  O  O272  1  0.00040027  0.09851517  0.01635488  1
  O  O273  1  0.06000817  0.14764266  0.45633427  1
  O  O274  1  -0.01343110  0.63179025  0.00982545  1
  O  O275  1  0.00718917  0.69186955  0.44028837  1
  O  O276  1  0.48681117  0.12619374  0.01081028  1
  O  O277  1  0.49502645  0.14365672  0.49815400  1
  O  O278  1  0.51739677  0.62758296  0.00641493  1
  O  O279  1  0.49456899  0.62180836  0.49470605  1
  O  O280  1  0.49194745  0.38511155  0.49921001  1
  O  O281  1  0.46634198  0.35863140  1.05700136  1
  O  O282  1  0.48921503  0.86173539  0.50054346  1
  O  O283  1  0.49643084  0.86713132  0.99316194  1
  O  O284  1  0.99202331  0.31522744  0.58074684  1
  O  O285  1  0.97873594  0.36360882  1.02545520  1
  O  O286  1  1.03883276  0.87190911  0.48384847  1
  O  O287  1  1.02603933  0.93900830  0.96039370  1
  O  O288  1  0.47879929  0.51400996  0.38156399  1
  O  O289  1  0.53694288  0.44917040  0.83541485  1
  O  O290  1  0.48487778  0.96937981  0.37257106  1
  O  O291  1  0.49042018  1.02016684  0.88795511  1
  O  O292  1  0.99344214  0.48290278  0.37246075  1
  O  O293  1  0.97710700  0.50764376  0.90209387  1
  O  O294  1  0.99505441  0.99754861  0.38898089  1
  O  O295  1  1.01347108  1.02678200  0.85952345  1
  O  O296  1  -0.00591908  0.00433813  0.15167847  1
  O  O297  1  -0.00075511  0.00000047  0.56863602  1
  O  O298  1  0.00303261  0.50711709  0.10706436  1
  O  O299  1  -0.01635941  0.49138818  0.62107768  1
  O  O300  1  0.50465934  -0.00371449  0.11184327  1
  O  O301  1  0.46337060  0.00510651  0.58414826  1
  O  O302  1  0.49753040  0.51540014  0.12129644  1
  O  O303  1  0.50767480  0.51632193  0.60854880  1
  O  O304  1  0.19734657  0.36517243  0.22600601  1
  O  O305  1  0.27439793  0.38855840  0.74487765  1
  O  O306  1  0.25555078  0.87224610  0.22299977  1
  O  O307  1  0.24693191  0.87526524  0.74798397  1
  O  O308  1  0.73104907  0.37364472  0.23701108  1
  O  O309  1  0.78535603  0.33293166  0.76006762  1
  O  O310  1  0.74617747  0.88552449  0.23569242  1
  O  O311  1  0.73795016  0.88463672  0.74295625  1
  O  O312  1  0.23811636  0.10150360  0.26063011  1
  O  O313  1  0.28190327  0.14039532  0.75515588  1
  O  O314  1  0.27354098  0.61559067  0.22128115  1
  O  O315  1  0.26357134  0.62334886  0.75484796  1
  O  O316  1  0.73352665  0.10379384  0.25517861  1
  O  O317  1  0.77331823  0.12529620  0.72248383  1
  O  O318  1  0.75107021  0.62751630  0.23855414  1
  O  O319  1  0.77830041  0.62899234  0.75227340  1
  O  O320  1  0.36552402  0.12532792  0.37755676  1
  O  O321  1  0.37922791  0.12694850  0.86191688  1
  O  O322  1  0.36840008  0.62062380  0.34940137  1
  O  O323  1  0.37569495  0.60397587  0.87743666  1
  O  O324  1  0.88060701  0.10590524  0.39799261  1
  O  O325  1  0.86062933  0.08904794  0.83116300  1
  O  O326  1  0.85563414  0.62157095  0.35396052  1
  O  O327  1  0.87399477  0.65166482  0.87595923  1
  O  O328  1  0.12659367  0.39092640  0.07686107  1
  O  O329  1  0.14661528  0.40329202  0.65674310  1
  O  O330  1  0.15738499  0.87149962  0.09454658  1
  O  O331  1  0.14924117  0.86424618  0.63830469  1
  O  O332  1  0.63249314  0.40340343  0.11812811  1
  O  O333  1  0.63666345  0.42130913  0.61793888  1
  O  O334  1  0.63114362  0.89673604  0.10842420  1
  O  O335  1  0.62966143  0.86660992  0.64204150  1
  O  O336  1  0.11332365  0.23638362  0.26039768  1
  O  O337  1  0.14310053  0.28002552  0.75272228  1
  O  O338  1  0.13408527  0.76921030  0.21616943  1
  O  O339  1  0.11143692  0.75198670  0.75707581  1
  O  O340  1  0.60154176  0.27343200  0.19639976  1
  O  O341  1  0.62718643  0.25272405  0.74233046  1
  O  O342  1  0.60285379  0.75239523  0.23709754  1
  O  O343  1  0.63957084  0.74332792  0.76463571  1
  O  O344  1  0.35141282  0.18208663  0.33519201  1
  O  O345  1  0.38932625  0.25775667  0.74993085  1
  O  O346  1  0.38161895  0.73294693  0.23088341  1
  O  O347  1  0.39122190  0.71796571  0.77148169  1
  O  O348  1  0.89760892  0.24882809  0.23107588  1
  O  O349  1  0.88373099  0.21778500  0.74361844  1
  O  O350  1  0.86954849  0.73773359  0.25234003  1
  O  O351  1  0.87779696  0.76171472  0.74138009  1
  O  O352  1  0.38971399  0.49494453  0.49823970  1
  O  O353  1  0.38568641  0.48990523  0.98556055  1
  O  O354  1  0.40680774  1.01438136  0.53589880  1
  O  O355  1  0.39413735  0.99007498  0.99080838  1
  O  O356  1  0.89558134  0.55342139  0.47469086  1
  O  O357  1  0.88445157  0.49262252  1.01109721  1
  O  O358  1  0.85203828  0.98173974  0.48428189  1
  O  O359  1  0.86680192  1.00690768  0.97158684  1
  O  O360  1  0.06100123  -0.01527375  -0.08543039  1
  O  O361  1  0.14493561  -0.00167817  0.49239173  1
  O  O362  1  0.11095122  0.53149053  -0.01005281  1
  O  O363  1  0.11332873  0.48100833  0.52971893  1
  O  O364  1  0.60043112  0.01138423  -0.00887895  1
  O  O365  1  0.60558606  0.02533908  0.47094898  1
  O  O366  1  0.63889589  0.51820994  -0.01029304  1
  O  O367  1  0.59609061  0.49278003  0.47382126  1
  O  O368  1  0.33744071  0.41099002  0.11085079  1
  O  O369  1  0.38261289  0.38529791  0.62352694  1
  O  O370  1  0.37577491  0.86327518  0.10271969  1
  O  O371  1  0.36057924  0.86356017  0.65915557  1
  O  O372  1  0.86600560  0.39201149  0.13700266  1
  O  O373  1  0.81705088  0.34947066  0.69667460  1
  O  O374  1  0.84777905  0.89605023  0.11658070  1
  O  O375  1  0.86080422  0.87291463  0.60166726  1
  O  O376  1  0.11342245  0.15180823  0.40853905  1
  O  O377  1  0.15497323  0.12025167  0.84030147  1
  O  O378  1  0.15171755  0.59777478  0.36966367  1
  O  O379  1  0.11019142  0.64531407  0.88374161  1
  O  O380  1  0.61501278  0.13456587  0.39141366  1
  O  O381  1  0.63285701  0.16319091  0.87464574  1
  O  O382  1  0.61336222  0.64511384  0.36067374  1
  O  O383  1  0.63922675  0.63591828  0.88768085  1
