# generated using pymatgen
data_VZnO4
_symmetry_space_group_name_H-M   'P 1'
_cell_length_a   17.05249682
_cell_length_b   17.02119767
_cell_length_c   17.06365702
_cell_angle_alpha   90.57678233
_cell_angle_beta   89.91304865
_cell_angle_gamma   89.56667792
_symmetry_Int_Tables_number   1
_chemical_formula_structural   VZnO4
_chemical_formula_sum   'V64 Zn64 O256'
_cell_volume   4952.39444398
_cell_formula_units_Z   64
loop_
 _symmetry_equiv_pos_site_id
 _symmetry_equiv_pos_as_xyz
  1  'x, y, z'
loop_
 _atom_site_type_symbol
 _atom_site_label
 _atom_site_symmetry_multiplicity
 _atom_site_fract_x
 _atom_site_fract_y
 _atom_site_fract_z
 _atom_site_occupancy
  V  V0  1  0.36810581  0.36872767  0.50856173  1
  V  V1  1  0.87016270  0.40069065  -0.01261448  1
  V  V2  1  0.65543671  0.87854721  0.74701652  1
  V  V3  1  0.63031691  0.24527250  0.36191429  1
  V  V4  1  0.12998497  0.10737987  0.50883711  1
  V  V5  1  0.50188169  -0.00970804  -0.01111504  1
  V  V6  1  0.72994296  0.38701867  0.11726073  1
  V  V7  1  0.49680336  0.37683805  0.37281209  1
  V  V8  1  0.27557678  0.76754079  0.50505526  1
  V  V9  1  0.49983353  0.74873722  0.22852083  1
  V  V10  1  0.75346637  0.37518058  0.63927731  1
  V  V11  1  0.51315390  0.00128652  0.50656475  1
  V  V12  1  0.61800270  0.74387707  0.87072705  1
  V  V13  1  0.25815587  0.76116235  0.01687289  1
  V  V14  1  0.11435611  0.73451989  0.37113785  1
  V  V15  1  0.59899233  0.37745221  0.74891089  1
  V  V16  1  0.11466238  -0.02485978  0.62550034  1
  V  V17  1  0.13047566  0.85914528  0.76484100  1
  V  V18  1  0.74250665  0.23129695  0.51235399  1
  V  V19  1  0.16689094  0.87609837  0.26017049  1
  V  V20  1  0.71622767  0.53201574  0.75091408  1
  V  V21  1  0.75341177  0.25525917  -0.01479791  1
  V  V22  1  0.12959635  0.37662434  0.26527408  1
  V  V23  1  0.49831283  0.85666023  0.39182397  1
  V  V24  1  0.07907378  0.33135030  0.70156247  1
  V  V25  1  0.91898957  0.12496759  0.73067966  1
  V  V26  1  0.37489837  0.00721629  0.37218917  1
  V  V27  1  0.13969870  0.21931743  0.89855681  1
  V  V28  1  0.87613140  0.25284327  0.12788192  1
  V  V29  1  0.60629266  0.25569176  0.86978388  1
  V  V30  1  0.25090483  0.50314007  0.74472957  1
  V  V31  1  0.12320729  0.23239576  0.38265133  1
  V  V32  1  0.48865306  0.76940026  0.73929827  1
  V  V33  1  0.11385737  0.51746542  0.63486568  1
  V  V34  1  0.00185575  0.01999036  -0.01833773  1
  V  V35  1  0.35641616  0.00977760  0.86507928  1
  V  V36  1  0.49217065  0.14136546  0.61667219  1
  V  V37  1  0.62979146  0.12269636  -0.00727627  1
  V  V38  1  0.61459326  0.61853633  0.00341848  1
  V  V39  1  0.63098742  0.87334332  0.26103111  1
  V  V40  1  0.73895439  0.75448851  0.52276180  1
  V  V41  1  0.03503172  0.40006334  0.89547689  1
  V  V42  1  0.73133226  0.49249749  0.26185658  1
  V  V43  1  0.36558821  0.37422785  0.01912975  1
  V  V44  1  0.37075075  0.63443092  0.71250224  1
  V  V45  1  -0.00969719  0.37924370  0.37864705  1
  V  V46  1  0.08611457  0.61607235  0.49646865  1
  V  V47  1  0.87165296  0.86146516  0.49538198  1
  V  V48  1  0.38959737  0.61598834  0.26557801  1
  V  V49  1  0.15164812  0.10295481  0.05241416  1
  V  V50  1  0.86580934  0.63253029  0.24270916  1
  V  V51  1  0.50356491  0.12247368  0.12386500  1
  V  V52  1  -0.00946111  0.75853473  0.72211498  1
  V  V53  1  0.74632407  0.10681582  0.34214238  1
  V  V54  1  0.73914036  0.89515714  0.10109988  1
  V  V55  1  0.25990687  0.23458743  0.51239664  1
  V  V56  1  0.74096459  0.65225496  0.37561646  1
  V  V57  1  0.10405554  0.65059789  0.02310371  1
  V  V58  1  0.50153195  0.49466346  0.51252814  1
  V  V59  1  -0.00752268  -0.00560514  0.48691680  1
  V  V60  1  0.75351532  0.74340744  -0.00478038  1
  V  V61  1  0.76575367  0.02778477  0.75554810  1
  V  V62  1  0.48936843  0.23971689  0.24851118  1
  V  V63  1  0.85413975  0.38474005  0.48779852  1
  Zn  Zn64  1  0.07426015  0.22905863  0.16996924  1
  Zn  Zn65  1  0.18671273  0.17409931  0.67272638  1
  Zn  Zn66  1  0.21032263  0.68669562  0.18584688  1
  Zn  Zn67  1  0.18599687  0.69085538  0.68052643  1
  Zn  Zn68  1  0.68918500  0.19411087  0.17544012  1
  Zn  Zn69  1  0.68330017  0.19161524  0.69507266  1
  Zn  Zn70  1  0.68531548  0.68832361  0.18216192  1
  Zn  Zn71  1  0.66939545  0.69595850  0.67632884  1
  Zn  Zn72  1  0.31054220  0.29889671  0.32797898  1
  Zn  Zn73  1  0.23173100  0.39274869  0.86880966  1
  Zn  Zn74  1  0.32468122  0.79299987  0.33339795  1
  Zn  Zn75  1  0.32251685  0.82242308  0.81017225  1
  Zn  Zn76  1  0.80195756  0.31871079  0.30277224  1
  Zn  Zn77  1  0.82451646  0.30465789  0.81707492  1
  Zn  Zn78  1  0.81933707  0.82293712  0.31606497  1
  Zn  Zn79  1  0.79329019  0.73879021  0.78856378  1
  Zn  Zn80  1  0.17110561  0.42263509  0.46282848  1
  Zn  Zn81  1  0.24725362  0.60505617  0.91247408  1
  Zn  Zn82  1  0.19943153  0.92193378  0.43434153  1
  Zn  Zn83  1  0.19120528  0.94323594  0.93072666  1
  Zn  Zn84  1  0.67512810  0.42546197  0.44175819  1
  Zn  Zn85  1  0.68607907  0.44349186  0.92048131  1
  Zn  Zn86  1  0.68864784  0.93309843  0.43720497  1
  Zn  Zn87  1  0.70141476  0.93051360  0.91163374  1
  Zn  Zn88  1  0.34039744  0.08169730  0.02910509  1
  Zn  Zn89  1  0.33403723  0.06488471  0.55004961  1
  Zn  Zn90  1  0.31559341  0.57368367  0.09112581  1
  Zn  Zn91  1  0.30960682  0.54649895  0.56129416  1
  Zn  Zn92  1  0.81592186  0.07283392  0.04763874  1
  Zn  Zn93  1  0.81886004  0.06587261  0.57690959  1
  Zn  Zn94  1  0.79245960  0.57317569  0.06107047  1
  Zn  Zn95  1  0.62060424  0.62207810  0.50900522  1
  Zn  Zn96  1  0.44691626  0.43017374  0.20129727  1
  Zn  Zn97  1  0.41808473  0.43149004  0.68434738  1
  Zn  Zn98  1  0.48314097  0.95766416  0.20779043  1
  Zn  Zn99  1  0.44133421  0.96966237  0.70217828  1
  Zn  Zn100  1  0.90351964  0.47104647  0.16896015  1
  Zn  Zn101  1  0.96320277  0.41071394  0.61080520  1
  Zn  Zn102  1  0.90920006  0.93286942  0.10162467  1
  Zn  Zn103  1  0.92930056  0.93477388  0.68321665  1
  Zn  Zn104  1  0.09672469  0.03731588  0.32805973  1
  Zn  Zn105  1  0.07558536  0.05259946  0.80423510  1
  Zn  Zn106  1  0.04764873  0.55540855  0.30692703  1
  Zn  Zn107  1  0.07500226  0.57371650  0.83286545  1
  Zn  Zn108  1  0.56688818  0.05725223  0.32224681  1
  Zn  Zn109  1  0.57920582  0.05406445  0.81649038  1
  Zn  Zn110  1  0.56857031  0.56807397  0.31781753  1
  Zn  Zn111  1  0.54660241  0.56915806  0.68371931  1
  Zn  Zn112  1  0.44374023  0.18023342  0.43497124  1
  Zn  Zn113  1  0.44182298  0.18372089  0.93337657  1
  Zn  Zn114  1  0.43363748  0.67808852  0.44453916  1
  Zn  Zn115  1  0.44951709  0.70167871  0.93340027  1
  Zn  Zn116  1  0.90744381  0.20306091  0.40837394  1
  Zn  Zn117  1  0.95743107  0.21218901  0.94450864  1
  Zn  Zn118  1  0.92539202  0.68162376  0.42151107  1
  Zn  Zn119  1  0.93359157  0.67333772  0.94309541  1
  Zn  Zn120  1  0.02688974  0.37760415  0.10016903  1
  Zn  Zn121  1  0.02051019  0.26382327  0.53063580  1
  Zn  Zn122  1  0.12345842  0.85385172  0.06354071  1
  Zn  Zn123  1  0.05568633  0.80748112  0.54963105  1
  Zn  Zn124  1  0.55575452  0.30901096  0.05863533  1
  Zn  Zn125  1  0.57205171  0.31448116  0.55777731  1
  Zn  Zn126  1  0.57598200  0.81222057  0.06538758  1
  Zn  Zn127  1  0.56158222  0.82064552  0.57368616  1
  O  O128  1  0.10162238  0.12556843  0.13762053  1
  O  O129  1  0.15808065  0.08186011  0.61615520  1
  O  O130  1  0.13740069  0.62837498  0.11501236  1
  O  O131  1  0.11111397  0.62124951  0.60909972  1
  O  O132  1  0.61987662  0.14053133  0.09905870  1
  O  O133  1  0.59834731  0.11498882  0.65965624  1
  O  O134  1  0.62939145  0.62562335  0.10286541  1
  O  O135  1  0.62779186  0.61002225  0.62076941  1
  O  O136  1  0.39172235  0.35911951  0.38703542  1
  O  O137  1  0.34340615  0.39097911  0.92040005  1
  O  O138  1  0.39813791  0.87502592  0.37821221  1
  O  O139  1  0.37182802  0.90785094  0.86326702  1
  O  O140  1  0.87961224  0.35696515  0.38000427  1
  O  O141  1  0.87168095  0.37822747  0.88780584  1
  O  O142  1  0.86757412  0.88707445  0.39495271  1
  O  O143  1  0.88977310  0.88485993  0.86663563  1
  O  O144  1  0.27506854  -0.01267384  0.38223683  1
  O  O145  1  0.25443605  0.00974952  0.86852786  1
  O  O146  1  0.24407791  0.51312594  0.40492799  1
  O  O147  1  0.25015065  0.51387666  0.85128631  1
  O  O148  1  0.73450018  0.01129908  0.36797793  1
  O  O149  1  0.77492376  -0.00940573  0.85267288  1
  O  O150  1  0.73462621  0.47387535  0.35965678  1
  O  O151  1  0.75095013  0.49083653  0.83276445  1
  O  O152  1  0.22026305  0.48816500  0.13308203  1
  O  O153  1  0.23107356  0.51196792  0.63346155  1
  O  O154  1  0.31827142  0.92975205  0.12634725  1
  O  O155  1  0.28133280  0.97937626  0.62878228  1
  O  O156  1  0.74064649  0.48802593  0.11819528  1
  O  O157  1  0.75149802  0.48009865  0.66462758  1
  O  O158  1  0.74632995  0.99458276  0.09568363  1
  O  O159  1  0.76697332  1.00337781  0.65511729  1
  O  O160  1  0.00938133  0.35541057  0.28211450  1
  O  O161  1  0.03798729  0.37172782  0.78697407  1
  O  O162  1  -0.02089169  0.81836462  0.21334147  1
  O  O163  1  0.00719498  0.86259449  0.73644134  1
  O  O164  1  0.49788466  0.35551969  0.26596548  1
  O  O165  1  0.50170975  0.37914600  0.74394436  1
  O  O166  1  0.50388400  0.85289957  0.26368039  1
  O  O167  1  0.47992441  0.86896510  0.73904584  1
  O  O168  1  0.51279149  0.12970797  0.23403972  1
  O  O169  1  0.53724908  0.11683976  0.72013212  1
  O  O170  1  0.50071849  0.63877545  0.25572249  1
  O  O171  1  0.47129977  0.62864750  0.74488040  1
  O  O172  1  0.95329699  0.08026448  0.24124378  1
  O  O173  1  1.01736868  0.11411621  0.72440478  1
  O  O174  1  0.96407772  0.61364896  0.26072362  1
  O  O175  1  1.00330017  0.66673808  0.80045980  1
  O  O176  1  0.38750063  0.27202452  -0.00162130  1
  O  O177  1  0.36300124  0.24866682  0.48990333  1
  O  O178  1  0.35493009  0.76635627  -0.04039915  1
  O  O179  1  0.37547734  0.75232942  0.50569125  1
  O  O180  1  0.85965089  0.25906213  -0.00617492  1
  O  O181  1  0.84283718  0.25628451  0.48978881  1
  O  O182  1  0.85314104  0.74163430  -0.01767675  1
  O  O183  1  0.87221432  0.75906543  0.49349380  1
  O  O184  1  0.13518914  0.22241873  0.51207594  1
  O  O185  1  0.16434143  0.19100328  0.99797711  1
  O  O186  1  0.10991968  0.72512659  0.48727634  1
  O  O187  1  0.14355761  0.74630834  1.00701527  1
  O  O188  1  0.63957732  0.25078478  0.48547176  1
  O  O189  1  0.62894806  0.25649055  0.98288311  1
  O  O190  1  0.63642342  0.75045769  0.51741668  1
  O  O191  1  0.62299751  0.74589486  0.98274787  1
  O  O192  1  0.50997719  0.24596236  0.14377329  1
  O  O193  1  0.50516580  0.23980582  0.61215636  1
  O  O194  1  0.49624550  0.75801969  0.12999987  1
  O  O195  1  0.50785576  0.74692243  0.64297468  1
  O  O196  1  0.97977784  0.26795908  0.11375884  1
  O  O197  1  1.00303661  0.29819221  0.63832235  1
  O  O198  1  0.98410296  0.76335000  0.16686713  1
  O  O199  1  0.99442425  0.74394651  0.62422357  1
  O  O200  1  0.01154369  0.24371068  0.41499578  1
  O  O201  1  0.04748048  0.27003510  0.90385557  1
  O  O202  1  0.01460485  0.73907077  0.36494444  1
  O  O203  1  -0.05917971  0.84388170  0.89594434  1
  O  O204  1  0.51178111  0.24032578  0.36348188  1
  O  O205  1  0.50730300  0.25357167  0.87496891  1
  O  O206  1  0.50378918  0.75674461  0.39297906  1
  O  O207  1  0.50776525  0.75612464  0.85483228  1
  O  O208  1  0.25129510  0.12839869  0.50164790  1
  O  O209  1  0.24338838  0.07735430  1.08021246  1
  O  O210  1  0.25548654  0.57028206  0.45221785  1
  O  O211  1  0.27323413  0.64462867  1.01320452  1
  O  O212  1  0.74877898  0.13157393  0.51059726  1
  O  O213  1  0.73932847  0.14728946  0.99700207  1
  O  O214  1  0.75411012  0.65401602  0.48626745  1
  O  O215  1  0.73426167  0.63882254  0.98804871  1
  O  O216  1  0.27229351  0.34379730  0.04375210  1
  O  O217  1  0.26163583  0.35994482  0.49743117  1
  O  O218  1  0.22627807  0.86505448  0.00602514  1
  O  O219  1  0.25703568  0.86680724  0.51269754  1
  O  O220  1  0.75069982  0.37411869  -0.00283691  1
  O  O221  1  0.74475719  0.36920573  0.51361392  1
  O  O222  1  0.73856959  0.86638499  -0.00077554  1
  O  O223  1  0.75545032  0.85934563  0.49641867  1
  O  O224  1  0.11964868  0.47572272  0.26478122  1
  O  O225  1  0.13828946  0.53705556  0.74203866  1
  O  O226  1  0.14955130  0.97673850  0.25541348  1
  O  O227  1  0.12279273  0.97098953  0.73194491  1
  O  O228  1  0.63262886  0.50759250  0.24370271  1
  O  O229  1  0.61605811  0.49187510  0.75154701  1
  O  O230  1  0.59541985  0.97252431  0.24720711  1
  O  O231  1  0.65655139  0.98966325  0.76085499  1
  O  O232  1  0.39773122  -0.00806188  0.27198030  1
  O  O233  1  0.38568739  0.03796788  0.77232672  1
  O  O234  1  0.40319474  0.51632836  0.25376806  1
  O  O235  1  0.35861553  0.51907388  0.72832535  1
  O  O236  1  0.90332746  0.02953453  0.23023412  1
  O  O237  1  0.88535823  0.02386532  0.74745014  1
  O  O238  1  0.83883908  0.51304089  0.24759680  1
  O  O239  1  0.89272478  0.59850631  0.67008611  1
  O  O240  1  0.10845332  0.35680722  0.38995820  1
  O  O241  1  0.12908113  0.41162803  0.92202075  1
  O  O242  1  0.13234860  0.84909718  0.36080542  1
  O  O243  1  0.12148096  0.87437548  0.86194676  1
  O  O244  1  0.60564982  0.35363497  0.38120487  1
  O  O245  1  0.62169836  0.36996070  0.85712797  1
  O  O246  1  0.61110828  0.87329595  0.36721355  1
  O  O247  1  0.62505154  0.86834688  0.85220216  1
  O  O248  1  0.40619608  0.13576459  0.10797510  1
  O  O249  1  0.39304695  0.12637633  0.62815216  1
  O  O250  1  0.45636632  0.56039031  0.10284782  1
  O  O251  1  0.37158816  0.62821256  0.61422177  1
  O  O252  1  0.86628256  0.15425500  0.11110996  1
  O  O253  1  0.88437242  0.14267320  0.63890333  1
  O  O254  1  0.85374003  0.62292304  0.14131517  1
  O  O255  1  0.85862319  0.60367487  0.60762800  1
  O  O256  1  0.24700927  0.14445333  0.24855257  1
  O  O257  1  0.25673227  0.24050925  0.61152369  1
  O  O258  1  0.27283842  0.76076887  0.11340643  1
  O  O259  1  0.23776765  0.71830245  0.58464218  1
  O  O260  1  0.75193274  0.26785647  0.10683492  1
  O  O261  1  0.73589755  0.25395913  0.61446524  1
  O  O262  1  0.73740111  0.75315773  0.09699949  1
  O  O263  1  0.75726718  0.74593881  0.61923343  1
  O  O264  1  0.22694097  0.24729648  0.39516473  1
  O  O265  1  0.21306038  0.27947322  0.87119473  1
  O  O266  1  0.24550320  0.74297607  0.40581947  1
  O  O267  1  0.29403550  0.74643018  0.90011174  1
  O  O268  1  0.73602727  0.24757370  0.36826168  1
  O  O269  1  0.74126951  0.26004584  0.88473900  1
  O  O270  1  0.73598248  0.75048746  0.37050111  1
  O  O271  1  0.73074302  0.75633976  0.88144450  1
  O  O272  1  0.00260817  0.12043423  -0.00474206  1
  O  O273  1  0.02982431  0.10926320  0.51898222  1
  O  O274  1  0.00413679  0.65966663  0.02573823  1
  O  O275  1  -0.01159633  0.61549231  0.49500467  1
  O  O276  1  0.51640493  0.12360794  0.00347977  1
  O  O277  1  0.50583663  0.11612342  0.51051891  1
  O  O278  1  0.51390544  0.63763447  -0.00511295  1
  O  O279  1  0.49618090  0.59525130  0.48977557  1
  O  O280  1  0.49157847  0.37447684  0.49332361  1
  O  O281  1  0.47252448  0.37929737  1.00797844  1
  O  O282  1  0.50888465  0.88252230  0.49507289  1
  O  O283  1  0.53140545  0.89677314  1.00287921  1
  O  O284  1  0.96748236  0.37024020  0.49876051  1
  O  O285  1  0.98025458  0.38413120  0.99131632  1
  O  O286  1  0.99041488  0.88651902  0.49114676  1
  O  O287  1  1.02513442  0.90370195  1.02876560  1
  O  O288  1  0.50611280  0.47755040  0.37866675  1
  O  O289  1  0.43576645  0.53246223  0.88169846  1
  O  O290  1  0.49945180  0.99253075  0.38956937  1
  O  O291  1  0.50335079  1.01177939  0.88735629  1
  O  O292  1  0.99573367  0.47705041  0.38064749  1
  O  O293  1  1.00590948  0.49356316  0.87659403  1
  O  O294  1  1.00672179  1.01118563  0.38938905  1
  O  O295  1  1.00839524  1.00464440  0.88324436  1
  O  O296  1  0.01826846  -0.03525678  0.09433362  1
  O  O297  1  0.01575107  -0.01225682  0.61154409  1
  O  O298  1  0.00384221  0.48041148  0.13318918  1
  O  O299  1  0.01388522  0.50124044  0.64755569  1
  O  O300  1  0.50998131  0.01708079  0.10930014  1
  O  O301  1  0.49463766  0.00129827  0.60911515  1
  O  O302  1  0.50257495  0.50553765  0.12201184  1
  O  O303  1  0.49079719  0.49210950  0.61512630  1
  O  O304  1  0.22788095  0.35978430  0.27850221  1
  O  O305  1  0.25024120  0.40404580  0.75156596  1
  O  O306  1  0.26434310  0.85827263  0.26121034  1
  O  O307  1  0.22885221  0.84759321  0.75064757  1
  O  O308  1  0.74412415  0.38522395  0.22744973  1
  O  O309  1  0.76434149  0.34434035  0.73265405  1
  O  O310  1  0.72968792  0.87746450  0.26706449  1
  O  O311  1  0.74990137  0.84914908  0.74603572  1
  O  O312  1  0.29576313  0.09772492  0.22403229  1
  O  O313  1  0.33270663  0.20986528  0.78265439  1
  O  O314  1  0.30803486  0.62183519  0.19454058  1
  O  O315  1  0.26895090  0.63714989  0.74662042  1
  O  O316  1  0.73754495  0.11587118  0.24262448  1
  O  O317  1  0.75407592  0.12851635  0.75921377  1
  O  O318  1  0.73763961  0.61943356  0.26403911  1
  O  O319  1  0.74099605  0.63230793  0.75060899  1
  O  O320  1  0.37926560  0.10925406  0.37678264  1
  O  O321  1  0.36164932  0.11116853  0.92065635  1
  O  O322  1  0.36866723  0.62760073  0.36205512  1
  O  O323  1  0.39400429  0.59220907  0.89233908  1
  O  O324  1  0.84373989  0.12822759  0.36301101  1
  O  O325  1  0.90479240  0.16570937  0.84201621  1
  O  O326  1  0.84424969  0.62416358  0.36594458  1
  O  O327  1  0.93166839  0.63997176  0.83655595  1
  O  O328  1  0.11511172  0.33889603  0.16674616  1
  O  O329  1  0.12740389  0.39891539  0.64299255  1
  O  O330  1  0.13038410  0.83678751  0.17384895  1
  O  O331  1  0.12968704  0.87649420  0.61037940  1
  O  O332  1  0.63191870  0.37480897  0.10930893  1
  O  O333  1  0.63507024  0.37024350  0.64533796  1
  O  O334  1  0.64237256  0.87242365  0.14020088  1
  O  O335  1  0.62086794  0.87616102  0.65239517  1
  O  O336  1  0.11003472  0.23240618  0.28473820  1
  O  O337  1  0.13521435  0.25309518  0.72856136  1
  O  O338  1  0.15074437  0.71300358  0.27888108  1
  O  O339  1  0.10705016  0.75355188  0.74231394  1
  O  O340  1  0.62117779  0.24894934  0.25956458  1
  O  O341  1  0.62030773  0.26473080  0.76145861  1
  O  O342  1  0.61155130  0.75852753  0.24294419  1
  O  O343  1  0.61335124  0.76085888  0.75514777  1
  O  O344  1  0.39066857  0.24206150  0.25982582  1
  O  O345  1  0.37552682  0.26372120  0.76294806  1
  O  O346  1  0.39703157  0.73830229  0.25672613  1
  O  O347  1  0.38187101  0.74481710  0.74459619  1
  O  O348  1  0.86496398  0.26218713  0.22627666  1
  O  O349  1  0.90548349  0.22761039  0.78208756  1
  O  O350  1  0.85445370  0.73381645  0.25553073  1
  O  O351  1  0.89335951  0.75655103  0.74694654  1
  O  O352  1  0.38188683  0.47542288  0.50251830  1
  O  O353  1  0.35067004  0.47639433  1.03312271  1
  O  O354  1  0.39741380  0.99769338  0.48624067  1
  O  O355  1  0.40023022  0.98568133  0.99630074  1
  O  O356  1  0.85057206  0.47934411  0.48029404  1
  O  O357  1  0.85725776  0.49877482  0.99378841  1
  O  O358  1  0.89692034  1.01896357  0.50339136  1
  O  O359  1  0.89867097  1.00220136  1.00802583  1
  O  O360  1  0.12083495  0.01887487  -0.00483047  1
  O  O361  1  0.12528909  -0.00536925  0.50025843  1
  O  O362  1  0.17235333  0.47122376  0.08091121  1
  O  O363  1  0.11802525  0.50927634  0.51831611  1
  O  O364  1  0.63296179  0.02337215  -0.02195773  1
  O  O365  1  0.61304959  -0.00461565  0.49824055  1
  O  O366  1  0.62840084  0.52128691  -0.02245900  1
  O  O367  1  0.60282687  0.48473098  0.50581188  1
  O  O368  1  0.38690139  0.37054512  0.12335592  1
  O  O369  1  0.37847637  0.35899526  0.60679579  1
  O  O370  1  0.37797541  0.88927468  0.12866780  1
  O  O371  1  0.32729563  0.92522204  0.65185007  1
  O  O372  1  0.85824930  0.37432430  0.10085897  1
  O  O373  1  0.85457974  0.37730304  0.60503066  1
  O  O374  1  0.83114914  0.87072591  0.14190684  1
  O  O375  1  0.87620092  0.88901765  0.59460072  1
  O  O376  1  0.12876895  0.12292349  0.39618146  1
  O  O377  1  0.14108385  0.13574468  0.84223575  1
  O  O378  1  0.10967843  0.61542236  0.39209196  1
  O  O379  1  0.12991173  0.60063207  0.93290601  1
  O  O380  1  0.63694807  0.13584128  0.37077187  1
  O  O381  1  0.62149957  0.14670679  0.88093362  1
  O  O382  1  0.64194698  0.61278435  0.39391853  1
  O  O383  1  0.62045606  0.64531526  0.87106998  1
