# generated using pymatgen
data_VZnO4
_symmetry_space_group_name_H-M   'P 1'
_cell_length_a   16.90197125
_cell_length_b   16.96095849
_cell_length_c   16.99416815
_cell_angle_alpha   90.16426606
_cell_angle_beta   90.04762501
_cell_angle_gamma   89.80381047
_symmetry_Int_Tables_number   1
_chemical_formula_structural   VZnO4
_chemical_formula_sum   'V64 Zn64 O256'
_cell_volume   4871.72969441
_cell_formula_units_Z   64
loop_
 _symmetry_equiv_pos_site_id
 _symmetry_equiv_pos_as_xyz
  1  'x, y, z'
loop_
 _atom_site_type_symbol
 _atom_site_label
 _atom_site_symmetry_multiplicity
 _atom_site_fract_x
 _atom_site_fract_y
 _atom_site_fract_z
 _atom_site_occupancy
  V  V0  1  0.84095254  0.87512564  -0.02706266  1
  V  V1  1  0.38863662  0.12092840  0.25730393  1
  V  V2  1  0.24825841  0.49680080  0.74279520  1
  V  V3  1  0.78670748  0.54514519  0.74696227  1
  V  V4  1  0.13454378  0.84260068  0.24748062  1
  V  V5  1  0.87477949  0.79091974  0.63050145  1
  V  V6  1  0.62346108  0.33817120  0.24830611  1
  V  V7  1  0.23546147  0.63333085  0.88744611  1
  V  V8  1  0.48425133  0.24764465  0.73840512  1
  V  V9  1  0.21886425  0.23669866  0.50175901  1
  V  V10  1  0.48336568  0.75957152  0.24636100  1
  V  V11  1  0.12418363  0.47961147  0.12275856  1
  V  V12  1  -0.03319869  0.73174903  0.26220260  1
  V  V13  1  0.23855092  0.60500186  0.37588787  1
  V  V14  1  0.23914113  0.02067877  0.75352032  1
  V  V15  1  0.75193425  0.38556333  0.12516916  1
  V  V16  1  0.63542818  -0.01311724  0.62370320  1
  V  V17  1  0.11093523  0.25433419  0.34619191  1
  V  V18  1  0.62646364  0.62992059  -0.01033918  1
  V  V19  1  0.49774072  -0.00292340  0.00199907  1
  V  V20  1  0.37141641  0.48396991  0.87205442  1
  V  V21  1  0.26438867  0.74399124  0.48953841  1
  V  V22  1  0.76776846  0.11263470  0.35859641  1
  V  V23  1  0.48141502  0.63208050  0.12626964  1
  V  V24  1  -0.01297309  0.37669705  0.39142904  1
  V  V25  1  0.65539888  0.12138377  0.50643018  1
  V  V26  1  0.62703403  0.62426496  0.48330760  1
  V  V27  1  0.59843315  0.87794558  0.75844053  1
  V  V28  1  0.61332046  0.75920076  0.87468406  1
  V  V29  1  -0.02037327  0.24230447  0.76330768  1
  V  V30  1  0.75599918  -0.01584208  0.76248502  1
  V  V31  1  0.03201766  0.64251043  0.11398558  1
  V  V32  1  0.61734862  0.51017926  0.14121230  1
  V  V33  1  0.51426760  0.63073516  0.63383613  1
  V  V34  1  0.61413586  0.12760322  0.00546187  1
  V  V35  1  0.75077906  0.12169903  0.86646044  1
  V  V36  1  0.37769914  0.26059321  0.59494226  1
  V  V37  1  0.75262074  0.25861858  -0.02014174  1
  V  V38  1  0.75143852  0.76800533  0.50397754  1
  V  V39  1  0.89742617  -0.01587648  0.35493347  1
  V  V40  1  0.49254846  0.87607124  0.39809381  1
  V  V41  1  0.61338468  0.38610800  0.72673634  1
  V  V42  1  0.13351208  0.35975549  0.75673104  1
  V  V43  1  0.01775541  -0.04679019  0.50742879  1
  V  V44  1  0.23319544  0.01034967  0.23971584  1
  V  V45  1  0.04127986  0.88104708  0.86427408  1
  V  V46  1  0.36175312  -0.00913389  0.38604267  1
  V  V47  1  0.26323256  0.14347134  0.88147747  1
  V  V48  1  0.86676619  0.40225683  -0.01904760  1
  V  V49  1  0.11267651  0.49576662  0.61802598  1
  V  V50  1  0.49495670  0.11026736  0.61677822  1
  V  V51  1  0.01028502  0.74644829  0.74741798  1
  V  V52  1  0.50162285  0.49590901  -0.00157357  1
  V  V53  1  0.00717522  0.13872809  0.61912122  1
  V  V54  1  0.62311686  0.88060756  0.23710877  1
  V  V55  1  0.60610005  0.25828800  0.86722797  1
  V  V56  1  0.36285831  0.89119423  0.01863408  1
  V  V57  1  0.86948874  0.34475683  0.51314670  1
  V  V58  1  0.36526313  0.65173884  0.74623548  1
  V  V59  1  0.24170742  0.25599590  0.01704032  1
  V  V60  1  -0.00893524  0.38418255  0.87057979  1
  V  V61  1  0.01421792  -0.00000441  -0.00621566  1
  V  V62  1  0.37654205  0.36798510  0.02553825  1
  V  V63  1  0.39538854  0.49084757  0.40920597  1
  Zn  Zn64  1  0.24569494  0.22098391  0.22608053  1
  Zn  Zn65  1  0.19335223  0.18192132  0.68042289  1
  Zn  Zn66  1  0.18324602  0.63459077  0.21348128  1
  Zn  Zn67  1  0.18712479  0.68037976  0.67500236  1
  Zn  Zn68  1  0.72632563  0.16969845  0.16816808  1
  Zn  Zn69  1  0.67426527  0.17460879  0.69277964  1
  Zn  Zn70  1  0.63212612  0.75701555  0.37082615  1
  Zn  Zn71  1  0.69280626  0.70589878  0.68936789  1
  Zn  Zn72  1  0.33655138  0.29489001  0.38485580  1
  Zn  Zn73  1  0.31468650  0.30900970  0.81287794  1
  Zn  Zn74  1  0.29905286  0.81242599  0.31071241  1
  Zn  Zn75  1  0.29483733  0.81698584  0.83864300  1
  Zn  Zn76  1  0.76383557  0.32729461  0.38044448  1
  Zn  Zn77  1  0.78042125  0.29426087  0.75293230  1
  Zn  Zn78  1  0.80514012  0.81061057  0.31430429  1
  Zn  Zn79  1  0.82053017  0.74373758  0.82428281  1
  Zn  Zn80  1  0.19554796  0.42051220  0.43942495  1
  Zn  Zn81  1  0.18767195  0.43139100  0.93843861  1
  Zn  Zn82  1  0.18499091  0.91962882  0.42807559  1
  Zn  Zn83  1  0.18662028  0.95717445  0.94801099  1
  Zn  Zn84  1  0.60348619  0.43933335  0.41593371  1
  Zn  Zn85  1  0.70070680  0.42743354  0.87622539  1
  Zn  Zn86  1  0.69194937  0.94173190  0.42081230  1
  Zn  Zn87  1  0.67595977  0.94068813  0.94057514  1
  Zn  Zn88  1  0.31867836  0.07683254  0.07198607  1
  Zn  Zn89  1  0.29617095  0.06119626  0.55718068  1
  Zn  Zn90  1  0.30642613  0.55450299  0.05856395  1
  Zn  Zn91  1  0.31154537  0.56448334  0.56131625  1
  Zn  Zn92  1  0.87827840  0.05745597  0.06991372  1
  Zn  Zn93  1  0.84194639  0.04190901  0.57174364  1
  Zn  Zn94  1  0.80850242  0.58607667  -0.07710421  1
  Zn  Zn95  1  0.74200656  0.52349144  0.55358593  1
  Zn  Zn96  1  0.43171449  0.28869080  0.20591876  1
  Zn  Zn97  1  0.43750239  0.44085128  0.67368280  1
  Zn  Zn98  1  0.44125062  0.95089947  0.18279306  1
  Zn  Zn99  1  0.42526470  0.94473011  0.69324412  1
  Zn  Zn100  1  1.01277569  0.53280974  -0.01676414  1
  Zn  Zn101  1  0.93393273  0.43494249  0.68621455  1
  Zn  Zn102  1  1.02894147  0.98426862  0.19890176  1
  Zn  Zn103  1  0.95365297  0.96047886  0.69515910  1
  Zn  Zn104  1  0.09642052  0.05242766  0.37038622  1
  Zn  Zn105  1  0.07410105  0.07176190  0.82234447  1
  Zn  Zn106  1  0.05120261  0.55102686  0.29830900  1
  Zn  Zn107  1  0.06419028  0.56454006  0.80554096  1
  Zn  Zn108  1  0.56451288  0.05500441  0.32731221  1
  Zn  Zn109  1  0.55507555  0.06664863  0.81498075  1
  Zn  Zn110  1  0.52924518  0.57424374  0.31869771  1
  Zn  Zn111  1  0.54572558  0.56876839  0.80967692  1
  Zn  Zn112  1  0.43776230  0.14592985  0.45377649  1
  Zn  Zn113  1  0.43538988  0.18688532  0.93758853  1
  Zn  Zn114  1  0.43714852  0.68411993  0.44096098  1
  Zn  Zn115  1  0.43454633  0.68042955  0.92716049  1
  Zn  Zn116  1  0.95259151  0.17952899  0.41711624  1
  Zn  Zn117  1  0.94024996  0.19089679  0.93793108  1
  Zn  Zn118  1  0.93880620  0.79865824  0.43416376  1
  Zn  Zn119  1  0.94610721  0.72878360  0.95113822  1
  Zn  Zn120  1  0.06080293  0.33263301  0.05280066  1
  Zn  Zn121  1  0.04915931  0.32397879  0.58055708  1
  Zn  Zn122  1  -0.00041591  0.84663235  0.08882716  1
  Zn  Zn123  1  0.08155706  0.78173060  0.57171525  1
  Zn  Zn124  1  0.56647681  0.31264395  0.06568357  1
  Zn  Zn125  1  0.69997147  0.30749655  0.57425957  1
  Zn  Zn126  1  0.56156208  0.81306708  0.06431692  1
  Zn  Zn127  1  0.55661514  0.80258702  0.57079969  1
  O  O128  1  0.03778135  0.18146372  0.11931579  1
  O  O129  1  0.10531793  0.11992156  0.63719513  1
  O  O130  1  0.13223339  0.64668112  0.10869825  1
  O  O131  1  0.12798139  0.59472564  0.63077553  1
  O  O132  1  0.63644238  0.14150855  0.10075429  1
  O  O133  1  0.62126128  0.10376886  0.62016024  1
  O  O134  1  0.61107167  0.61196119  0.10664950  1
  O  O135  1  0.61373974  0.62851010  0.65345079  1
  O  O136  1  0.38149158  0.39752065  0.36712084  1
  O  O137  1  0.37947361  0.38445411  0.87438438  1
  O  O138  1  0.38162697  0.88210834  0.36796656  1
  O  O139  1  0.38397089  0.84163657  0.91299129  1
  O  O140  1  0.87719604  0.37219360  0.39831937  1
  O  O141  1  0.88674181  0.38326288  0.86835225  1
  O  O142  1  0.88036789  0.87971522  0.37194977  1
  O  O143  1  0.85439145  0.84791753  0.87709041  1
  O  O144  1  0.25872020  -0.01323529  0.36048000  1
  O  O145  1  0.23701071  0.03145755  0.87676593  1
  O  O146  1  0.26838259  0.50176089  0.39272403  1
  O  O147  1  0.26215272  0.49986530  0.87413107  1
  O  O148  1  0.78220208  0.00024065  0.38148133  1
  O  O149  1  0.73589994  0.01348792  0.87160961  1
  O  O150  1  0.83280726  0.53154812  0.41935519  1
  O  O151  1  0.74708315  0.52451376  0.84500169  1
  O  O152  1  0.22543598  0.49303180  0.10315113  1
  O  O153  1  0.25482974  0.49381374  0.64349622  1
  O  O154  1  0.24559884  1.01493946  0.14092478  1
  O  O155  1  0.26383900  1.02389162  0.65543932  1
  O  O156  1  0.72022220  0.48844094  0.11391485  1
  O  O157  1  0.74458330  0.50733495  0.66309807  1
  O  O158  1  0.78139515  0.97042182  0.15209222  1
  O  O159  1  0.73779209  0.99543511  0.64676917  1
  O  O160  1  -0.07639773  0.28465612  0.19801081  1
  O  O161  1  0.00558358  0.36198039  0.75933025  1
  O  O162  1  0.01795414  0.81953432  0.26273777  1
  O  O163  1  0.00949296  0.88593279  0.76435652  1
  O  O164  1  0.52487687  0.33498942  0.26516898  1
  O  O165  1  0.50050417  0.35554445  0.73059070  1
  O  O166  1  0.49854336  0.86650600  0.24070771  1
  O  O167  1  0.49894582  0.88438626  0.75730736  1
  O  O168  1  0.48846435  0.12695625  0.27527051  1
  O  O169  1  0.50745971  0.13585669  0.72817244  1
  O  O170  1  0.49656442  0.64037365  0.23389345  1
  O  O171  1  0.47142854  0.63062828  0.74443439  1
  O  O172  1  0.99647918  0.12907280  0.15416907  1
  O  O173  1  1.00492982  0.14370495  0.76657063  1
  O  O174  1  1.00407131  0.63252050  0.22957652  1
  O  O175  1  1.00213742  0.64796941  0.76024523  1
  O  O176  1  0.38446622  0.26953980  -0.00142461  1
  O  O177  1  0.38697347  0.24431059  0.49114392  1
  O  O178  1  0.37927051  0.78226645  -0.02622080  1
  O  O179  1  0.36322716  0.73817010  0.51130332  1
  O  O180  1  0.85327343  0.26102811  -0.02102738  1
  O  O181  1  0.88362773  0.24777620  0.50167390  1
  O  O182  1  0.89823792  0.80569313  0.02882700  1
  O  O183  1  0.86514974  0.76327703  0.51863815  1
  O  O184  1  0.12483898  0.25274550  0.52968735  1
  O  O185  1  0.14359210  0.26756234  1.00297201  1
  O  O186  1  0.18696227  0.73866031  0.57239639  1
  O  O187  1  0.19691476  0.77101897  1.04627175  1
  O  O188  1  0.65178836  0.22042655  0.50949652  1
  O  O189  1  0.61705333  0.25123317  0.97879644  1
  O  O190  1  0.63436597  0.74761594  0.50252286  1
  O  O191  1  0.61290601  0.73808445  0.98972075  1
  O  O192  1  0.49940013  0.24931439  0.12657353  1
  O  O193  1  0.48416618  0.23511306  0.62675085  1
  O  O194  1  0.49503239  0.73898699  0.12888375  1
  O  O195  1  0.48849564  0.73073753  0.62645239  1
  O  O196  1  0.99485769  0.23399573  0.07375978  1
  O  O197  1  0.99551101  0.24369519  0.64970939  1
  O  O198  1  0.99589081  0.73950011  0.13615693  1
  O  O199  1  0.98553944  0.76101531  0.63208581  1
  O  O200  1  -0.00899248  0.28125267  0.34716885  1
  O  O201  1  -0.00059311  0.26392535  0.86970479  1
  O  O202  1  -0.03335315  0.71307999  0.36339960  1
  O  O203  1  0.01156254  0.77364998  0.85882315  1
  O  O204  1  0.52857302  0.27924836  0.42092658  1
  O  O205  1  0.49947757  0.23817199  0.85148771  1
  O  O206  1  0.48831622  0.76318525  0.36578849  1
  O  O207  1  0.51259608  0.73715994  0.86663541  1
  O  O208  1  0.23995831  0.13682417  0.49646628  1
  O  O209  1  0.26641923  0.14880099  0.99733778  1
  O  O210  1  0.25337823  0.62706635  0.48544254  1
  O  O211  1  0.26526168  0.62827788  0.98366520  1
  O  O212  1  0.75450321  0.10036134  0.52245885  1
  O  O213  1  0.73241699  0.15089878  0.98032549  1
  O  O214  1  0.72581632  0.64039294  0.51924218  1
  O  O215  1  0.72418710  0.61568709  0.99747057  1
  O  O216  1  0.26876075  0.36532363  -0.00066420  1
  O  O217  1  0.26300737  0.33172006  0.47551510  1
  O  O218  1  0.26309330  0.89887357  0.00598563  1
  O  O219  1  0.24782052  0.84456918  0.47968413  1
  O  O220  1  0.75903386  0.37762542  -0.03748473  1
  O  O221  1  0.76240654  0.36049386  0.49587517  1
  O  O222  1  0.74110727  0.86777764  -0.00417233  1
  O  O223  1  0.73772600  0.86598254  0.50085483  1
  O  O224  1  0.13159345  0.52728238  0.21854157  1
  O  O225  1  0.13845557  0.49224568  0.74667094  1
  O  O226  1  0.12668717  1.01962978  0.25924580  1
  O  O227  1  0.14081092  1.00462037  0.75293270  1
  O  O228  1  0.61230486  0.51678945  0.23896967  1
  O  O229  1  0.58881673  0.48090187  0.75132478  1
  O  O230  1  0.60448109  0.98066483  0.25241436  1
  O  O231  1  0.61927974  0.99032243  0.74726596  1
  O  O232  1  0.37006189  0.00962286  0.25610577  1
  O  O233  1  0.35002197  -0.02703181  0.78071817  1
  O  O234  1  0.34248108  0.48437157  0.23295234  1
  O  O235  1  0.36329927  0.49067077  0.76100683  1
  O  O236  1  0.91926748  -0.01048804  0.25714180  1
  O  O237  1  0.85429059  -0.01612145  0.76056909  1
  O  O238  1  0.84120006  0.61786208  0.12885920  1
  O  O239  1  0.88402570  0.51587135  0.74769745  1
  O  O240  1  0.10566384  0.35729764  0.38812506  1
  O  O241  1  0.11318322  0.37732829  0.86161982  1
  O  O242  1  0.12629681  0.86554040  0.34627553  1
  O  O243  1  0.14177969  0.88074248  0.86820192  1
  O  O244  1  0.66332881  0.37473770  0.34280633  1
  O  O245  1  0.60428244  0.35980441  0.87131727  1
  O  O246  1  0.60061530  0.87750995  0.37837964  1
  O  O247  1  0.61194763  0.86819656  0.87121386  1
  O  O248  1  0.37653097  0.13193548  0.15735587  1
  O  O249  1  0.39397252  0.12222112  0.59893160  1
  O  O250  1  0.38356598  0.61660054  0.12021147  1
  O  O251  1  0.34309091  0.63578983  0.64786750  1
  O  O252  1  0.82172020  0.14138004  0.11275813  1
  O  O253  1  0.92925252  0.07020286  0.64677239  1
  O  O254  1  0.80405608  0.67839526  0.11695492  1
  O  O255  1  0.97663207  0.59991361  0.51912148  1
  O  O256  1  0.25359476  0.25106637  0.11610052  1
  O  O257  1  0.27129117  0.23817935  0.60933338  1
  O  O258  1  0.25218304  0.76317846  0.09119249  1
  O  O259  1  0.30277042  0.84879662  0.64020011  1
  O  O260  1  0.72917403  0.28578839  0.08171277  1
  O  O261  1  0.74853155  0.24796204  0.65508951  1
  O  O262  1  0.72134261  0.64990295  0.24430012  1
  O  O263  1  0.76682089  0.76266531  0.62144391  1
  O  O264  1  0.20610848  0.23373812  0.38586595  1
  O  O265  1  0.25479421  0.24882599  0.88706951  1
  O  O266  1  0.25592610  0.72653712  0.38287140  1
  O  O267  1  0.22908188  0.73290561  0.87040324  1
  O  O268  1  0.76623978  0.21274167  0.37627124  1
  O  O269  1  0.72717318  0.24682361  0.86602821  1
  O  O270  1  0.75207090  0.74820483  0.39889018  1
  O  O271  1  0.71225089  0.73595850  0.86515182  1
  O  O272  1  -0.02964411  0.09625560  -0.00948365  1
  O  O273  1  -0.00367404  0.14036796  0.52054666  1
  O  O274  1  0.00047049  0.64540276  0.01170732  1
  O  O275  1  0.03182423  0.63649102  0.49160717  1
  O  O276  1  0.51009656  0.13187552  0.00253548  1
  O  O277  1  0.52885680  0.11858586  0.51332893  1
  O  O278  1  0.49487768  0.61835031  0.00933085  1
  O  O279  1  0.52575977  0.63363252  0.51605282  1
  O  O280  1  0.53875997  0.33353482  0.46919021  1
  O  O281  1  0.49223299  0.39075085  1.00784271  1
  O  O282  1  0.49186656  0.86487135  0.49573125  1
  O  O283  1  0.49904526  0.89303179  1.00594642  1
  O  O284  1  0.98488596  0.37381750  0.49819777  1
  O  O285  1  0.97536143  0.37300036  0.98260919  1
  O  O286  1  1.02856825  0.84796295  0.49035210  1
  O  O287  1  1.02050464  0.88572364  0.97511171  1
  O  O288  1  0.50517560  0.48794719  0.38709867  1
  O  O289  1  0.47671750  0.51240112  0.88906946  1
  O  O290  1  0.48367368  0.98298493  0.38195192  1
  O  O291  1  0.49878161  1.01450383  0.89789224  1
  O  O292  1  0.99615573  0.46467515  0.34379026  1
  O  O293  1  1.00490683  0.48828243  0.87185315  1
  O  O294  1  0.99665801  0.98921299  0.38614960  1
  O  O295  1  1.01538739  0.99018865  0.88054757  1
  O  O296  1  -0.02642344  -0.02169259  0.09599735  1
  O  O297  1  0.03624961  -0.04470009  0.60505202  1
  O  O298  1  0.02077347  0.53287274  0.11035969  1
  O  O299  1  0.01206460  0.49052146  0.62562613  1
  O  O300  1  0.49877179  0.01348265  0.10576148  1
  O  O301  1  0.50294015  0.00787881  0.63311791  1
  O  O302  1  0.50594098  0.51043464  0.11242964  1
  O  O303  1  0.47692198  0.53356079  0.62586754  1
  O  O304  1  0.28602777  0.44080200  0.23946645  1
  O  O305  1  0.24067559  0.38382364  0.76192126  1
  O  O306  1  0.23717579  0.89079843  0.24218036  1
  O  O307  1  0.28476903  0.91719796  0.78078492  1
  O  O308  1  0.76528849  0.36892007  0.21972013  1
  O  O309  1  0.71380821  0.38356910  0.76545330  1
  O  O310  1  0.71907348  0.86980755  0.27279810  1
  O  O311  1  0.72666051  0.88859977  0.76504628  1
  O  O312  1  0.25840468  0.11036225  0.26318993  1
  O  O313  1  0.25037942  0.13006241  0.76727361  1
  O  O314  1  0.27301253  0.61557791  0.27883977  1
  O  O315  1  0.24944396  0.60954945  0.76168168  1
  O  O316  1  0.74903943  0.10482115  0.26225916  1
  O  O317  1  0.73817970  0.10888445  0.76240863  1
  O  O318  1  0.76611989  0.59938469  0.26977834  1
  O  O319  1  0.77777490  0.64724116  0.74187165  1
  O  O320  1  0.37403481  0.10126357  0.37461214  1
  O  O321  1  0.36336886  0.12742801  0.87415893  1
  O  O322  1  0.39709298  0.59448638  0.38029363  1
  O  O323  1  0.35932925  0.61988262  0.85921099  1
  O  O324  1  0.87870890  0.10247153  0.37124061  1
  O  O325  1  0.84792425  0.13373906  0.87733178  1
  O  O326  1  0.88183318  0.57976322  0.39236470  1
  O  O327  1  0.87385332  0.66740118  0.89119928  1
  O  O328  1  0.10352877  0.38360001  0.14582457  1
  O  O329  1  0.12048207  0.38171778  0.65171401  1
  O  O330  1  0.09068248  0.88854928  0.15957582  1
  O  O331  1  0.23443473  0.87817347  0.63249657  1
  O  O332  1  0.62368001  0.38568833  0.14434011  1
  O  O333  1  0.62450110  0.37923437  0.62778956  1
  O  O334  1  0.62760942  0.86963131  0.13656972  1
  O  O335  1  0.61058826  0.88329925  0.64170050  1
  O  O336  1  0.13580344  0.25374084  0.24983690  1
  O  O337  1  0.13514746  0.26011698  0.74912902  1
  O  O338  1  0.16439778  0.74784527  0.23398101  1
  O  O339  1  0.10990690  0.75441333  0.72397793  1
  O  O340  1  0.65768243  0.24694876  0.23268948  1
  O  O341  1  0.60843646  0.25904341  0.75280758  1
  O  O342  1  0.59912918  0.76713983  0.25984762  1
  O  O343  1  0.61808496  0.77286288  0.75414564  1
  O  O344  1  0.35506959  0.23898459  0.27892772  1
  O  O345  1  0.38130258  0.25288677  0.73667725  1
  O  O346  1  0.38338777  0.75946405  0.24981482  1
  O  O347  1  0.35111235  0.74939286  0.75800043  1
  O  O348  1  0.89229389  0.22177047  0.21317990  1
  O  O349  1  0.88119796  0.24738587  0.76412016  1
  O  O350  1  0.86875601  0.75158261  0.24243546  1
  O  O351  1  0.88952266  0.76495786  0.73273437  1
  O  O352  1  0.38100153  0.48863480  0.50760386  1
  O  O353  1  0.37754536  0.48405197  0.99338209  1
  O  O354  1  0.35503318  0.99421304  0.48541354  1
  O  O355  1  0.38262379  0.99916629  1.00716602  1
  O  O356  1  0.84635949  0.50834708  0.49943830  1
  O  O357  1  0.87475637  0.50197366  0.97804088  1
  O  O358  1  0.91615888  0.98172396  0.50512671  1
  O  O359  1  0.86648851  0.97380811  0.98868556  1
  O  O360  1  0.11058619  0.01586822  0.01338007  1
  O  O361  1  0.11342941  -0.00278946  0.47302028  1
  O  O362  1  0.10718147  0.46736174  0.00958034  1
  O  O363  1  0.13761727  0.47409431  0.52274285  1
  O  O364  1  0.61697300  0.02043897  -0.00135525  1
  O  O365  1  0.63532758  -0.00941232  0.52289161  1
  O  O366  1  0.60286313  0.50573030  -0.01093826  1
  O  O367  1  0.64364803  0.51723252  0.48961465  1
  O  O368  1  0.38000026  0.36755510  0.12382218  1
  O  O369  1  0.38365929  0.35784556  0.61008553  1
  O  O370  1  0.37802373  0.87603988  0.11577463  1
  O  O371  1  0.36505622  0.89092958  0.60871639  1
  O  O372  1  0.85127163  0.38905491  0.08666923  1
  O  O373  1  0.87546864  0.37239870  0.61160045  1
  O  O374  1  0.79989421  0.90125768  0.14393785  1
  O  O375  1  0.87611542  0.88872240  0.63040501  1
  O  O376  1  0.06626757  0.16137509  0.37261498  1
  O  O377  1  0.14973236  0.12383403  0.89007244  1
  O  O378  1  0.13825916  0.59888112  0.36672586  1
  O  O379  1  0.13826907  0.60260274  0.88475926  1
  O  O380  1  0.65241308  0.09309823  0.39982476  1
  O  O381  1  0.62412220  0.13888530  0.87825653  1
  O  O382  1  0.61465961  0.63555095  0.38207939  1
  O  O383  1  0.60929390  0.62338648  0.88745199  1
