# generated using pymatgen
data_VZnO4
_symmetry_space_group_name_H-M   'P 1'
_cell_length_a   17.01170540
_cell_length_b   16.96530431
_cell_length_c   16.95594325
_cell_angle_alpha   89.66810112
_cell_angle_beta   89.45129302
_cell_angle_gamma   90.01864326
_symmetry_Int_Tables_number   1
_chemical_formula_structural   VZnO4
_chemical_formula_sum   'V64 Zn64 O256'
_cell_volume   4893.32687653
_cell_formula_units_Z   64
loop_
 _symmetry_equiv_pos_site_id
 _symmetry_equiv_pos_as_xyz
  1  'x, y, z'
loop_
 _atom_site_type_symbol
 _atom_site_label
 _atom_site_symmetry_multiplicity
 _atom_site_fract_x
 _atom_site_fract_y
 _atom_site_fract_z
 _atom_site_occupancy
  V  V0  1  0.75001295  -0.00414841  0.25286920  1
  V  V1  1  -0.01604546  0.65328897  0.60446086  1
  V  V2  1  0.74692720  0.12696129  0.37559188  1
  V  V3  1  0.60908968  0.50033395  0.16743672  1
  V  V4  1  0.25246351  0.00607014  0.75533350  1
  V  V5  1  0.15165190  0.25396694  0.37611082  1
  V  V6  1  0.01237691  0.12958452  0.11838824  1
  V  V7  1  0.74086032  0.61012743  0.86886170  1
  V  V8  1  0.39254381  0.51799654  0.89245465  1
  V  V9  1  0.63549151  0.11451357  0.51709116  1
  V  V10  1  0.75227575  0.74228844  -0.01324036  1
  V  V11  1  0.62014668  0.75850540  0.36249629  1
  V  V12  1  0.37980476  0.63986146  0.25558653  1
  V  V13  1  0.00355929  0.25530655  0.26383609  1
  V  V14  1  0.24001730  0.50630629  0.25933846  1
  V  V15  1  0.61996982  0.25676514  0.38538493  1
  V  V16  1  -0.00935887  0.13715644  0.63136086  1
  V  V17  1  0.25028662  0.85521087  0.11983326  1
  V  V18  1  0.37138363  0.25071396  0.61619320  1
  V  V19  1  0.49593222  0.26478161  0.25726721  1
  V  V20  1  0.88488650  0.61154037  0.75501576  1
  V  V21  1  0.13584875  0.00818010  0.11599138  1
  V  V22  1  0.00621454  0.87477319  0.35804418  1
  V  V23  1  0.62416148  0.00436376  0.13437499  1
  V  V24  1  0.48317121  0.11328466  0.63153316  1
  V  V25  1  0.62618786  0.37882622  0.75227523  1
  V  V26  1  0.87945588  0.00477384  0.36910777  1
  V  V27  1  0.48723441  0.87702132  0.34625155  1
  V  V28  1  0.25314224  0.78000078  0.48513746  1
  V  V29  1  0.75671188  0.39016511  0.13612468  1
  V  V30  1  0.64535946  0.49118553  0.60298727  1
  V  V31  1  0.74718634  -0.00746296  0.74901615  1
  V  V32  1  0.88216526  -0.02164749  0.88860933  1
  V  V33  1  -0.00696289  0.64355908  0.12620438  1
  V  V34  1  0.87233000  0.87672787  0.50578471  1
  V  V35  1  0.50166474  -0.00802446  0.00723216  1
  V  V36  1  0.76556603  0.87585204  0.11402355  1
  V  V37  1  0.12428725  0.86403519  0.71339288  1
  V  V38  1  0.49154665  -0.01326216  0.50162720  1
  V  V39  1  0.48965294  0.24585100  0.75539605  1
  V  V40  1  0.00246784  0.00063147  0.50983362  1
  V  V41  1  0.26201061  0.02715989  0.24782882  1
  V  V42  1  0.75372767  0.74213909  0.49937353  1
  V  V43  1  0.12702740  0.73517252  0.36594558  1
  V  V44  1  0.22408464  0.26436071  -0.00075796  1
  V  V45  1  0.62044969  0.13268503  0.00561002  1
  V  V46  1  0.38066581  0.50115585  0.38309110  1
  V  V47  1  0.26337472  0.38494701  0.12458148  1
  V  V48  1  -0.01203801  0.76306067  0.76588497  1
  V  V49  1  0.51789780  0.85065102  0.84875937  1
  V  V50  1  0.88225332  0.60121745  0.26569176  1
  V  V51  1  0.23628780  0.35753709  0.62075737  1
  V  V52  1  0.10714689  0.49738796  0.12025596  1
  V  V53  1  0.76005929  0.12126759  0.87585409  1
  V  V54  1  0.59625812  0.63106474  0.50792458  1
  V  V55  1  0.11402526  0.51675030  0.60902886  1
  V  V56  1  0.13843765  0.12266047  0.49648280  1
  V  V57  1  0.73786358  0.87401798  0.62850647  1
  V  V58  1  0.22593650  0.51005654  0.74429784  1
  V  V59  1  0.88303940  0.38608212  -0.01362646  1
  V  V60  1  0.75372717  0.24963037  -0.00634173  1
  V  V61  1  0.40660134  0.73760448  0.09134525  1
  V  V62  1  -0.00274276  0.46607010  0.48447907  1
  V  V63  1  0.87237866  0.24167283  0.13564974  1
  Zn  Zn64  1  0.19126031  0.19789268  0.18754706  1
  Zn  Zn65  1  0.17819172  0.17277845  0.68588897  1
  Zn  Zn66  1  0.17809572  0.67891262  0.19252675  1
  Zn  Zn67  1  0.21974812  0.72352098  0.70773776  1
  Zn  Zn68  1  0.68431612  0.18927002  0.19513451  1
  Zn  Zn69  1  0.69632646  0.19231683  0.70368414  1
  Zn  Zn70  1  0.68017019  0.69379723  0.16389584  1
  Zn  Zn71  1  0.72172947  0.66193777  0.66303626  1
  Zn  Zn72  1  0.31698914  0.32398587  0.31046817  1
  Zn  Zn73  1  0.28130860  0.35342536  0.82918446  1
  Zn  Zn74  1  0.30172037  0.82768462  0.30183997  1
  Zn  Zn75  1  0.36322378  0.97553683  0.88146459  1
  Zn  Zn76  1  0.80092779  0.30089415  0.30719381  1
  Zn  Zn77  1  0.81749386  0.42920891  0.79574965  1
  Zn  Zn78  1  0.80745638  0.81477277  0.32119248  1
  Zn  Zn79  1  0.81237949  0.80622129  0.81250986  1
  Zn  Zn80  1  0.19192071  0.43495140  0.44113873  1
  Zn  Zn81  1  0.18823056  0.45572552  0.94686084  1
  Zn  Zn82  1  0.18882997  0.94802401  0.42276975  1
  Zn  Zn83  1  0.18456167  0.93432060  0.94654765  1
  Zn  Zn84  1  0.56264508  0.42478861  0.34546260  1
  Zn  Zn85  1  0.69487918  0.42419163  0.92902065  1
  Zn  Zn86  1  0.67969172  0.93604228  0.43990723  1
  Zn  Zn87  1  0.68540798  0.93856763  0.94201986  1
  Zn  Zn88  1  0.30612141  0.06758392  0.03457938  1
  Zn  Zn89  1  0.30724880  0.03741733  0.56854328  1
  Zn  Zn90  1  0.31945437  0.55970089  0.07983791  1
  Zn  Zn91  1  0.30165785  0.57037708  0.56362749  1
  Zn  Zn92  1  0.81734258  0.06435265  0.06297276  1
  Zn  Zn93  1  0.81708059  0.06032036  0.56576955  1
  Zn  Zn94  1  0.82873819  0.57424123  0.05728017  1
  Zn  Zn95  1  0.82930016  0.55541312  0.55346880  1
  Zn  Zn96  1  0.43204004  0.44121476  0.20188214  1
  Zn  Zn97  1  0.40400393  0.41214020  0.72531791  1
  Zn  Zn98  1  0.42080283  0.93311910  0.16298956  1
  Zn  Zn99  1  0.44031220  0.94491135  0.70796730  1
  Zn  Zn100  1  0.93089023  0.43226036  0.19002332  1
  Zn  Zn101  1  0.97411009  0.42957142  0.70584174  1
  Zn  Zn102  1  0.94165024  0.95030158  0.18133673  1
  Zn  Zn103  1  0.92457694  0.93865562  0.69487246  1
  Zn  Zn104  1  0.07814125  0.08314789  0.29521366  1
  Zn  Zn105  1  0.04689113  0.02204638  0.78990541  1
  Zn  Zn106  1  0.05781977  0.55924581  0.31226895  1
  Zn  Zn107  1  0.09909784  0.61475392  0.77083125  1
  Zn  Zn108  1  0.56713735  0.05630616  0.32483965  1
  Zn  Zn109  1  0.57211562  0.06361092  0.82057659  1
  Zn  Zn110  1  0.55087737  0.59003016  0.32063064  1
  Zn  Zn111  1  0.57037932  0.56935685  0.77844107  1
  Zn  Zn112  1  0.44766568  0.18487813  0.44459829  1
  Zn  Zn113  1  0.43739681  0.14039387  0.91375677  1
  Zn  Zn114  1  0.42952435  0.69818354  0.43032107  1
  Zn  Zn115  1  0.43026536  0.68998252  0.89311700  1
  Zn  Zn116  1  0.93881262  0.17934460  0.43904376  1
  Zn  Zn117  1  0.94101340  0.18945358  0.93737919  1
  Zn  Zn118  1  0.93656531  0.69214347  0.42405918  1
  Zn  Zn119  1  0.98623167  0.63607618  0.91660492  1
  Zn  Zn120  1  0.05682033  0.32417812  0.06884751  1
  Zn  Zn121  1  0.06461075  0.29930686  0.55595120  1
  Zn  Zn122  1  0.08443340  0.80813058  0.08901926  1
  Zn  Zn123  1  0.06267345  0.81389446  0.53973964  1
  Zn  Zn124  1  0.58072970  0.31382544  0.08732178  1
  Zn  Zn125  1  0.58847952  0.28523279  0.59128751  1
  Zn  Zn126  1  0.58776437  0.81426401  0.06348295  1
  Zn  Zn127  1  0.56566707  0.81164488  0.56852772  1
  O  O128  1  0.11543923  0.13484539  0.12307395  1
  O  O129  1  0.11091982  0.12977229  0.60206129  1
  O  O130  1  0.10141458  0.61406479  0.13753623  1
  O  O131  1  0.09132314  0.61659308  0.61751540  1
  O  O132  1  0.64183421  0.11467802  0.11773477  1
  O  O133  1  0.64148990  0.13165803  0.61683027  1
  O  O134  1  0.65020704  0.58788912  0.13857832  1
  O  O135  1  0.63121104  0.61520777  0.61416804  1
  O  O136  1  0.36877614  0.40118676  0.37641389  1
  O  O137  1  0.37371189  0.42761262  0.83877329  1
  O  O138  1  0.38948509  0.87417010  0.36241104  1
  O  O139  1  0.42697464  0.88187027  0.88423244  1
  O  O140  1  0.86330159  0.31308047  0.53590332  1
  O  O141  1  0.86078544  0.37368223  0.88776844  1
  O  O142  1  0.87625735  0.88917064  0.38226738  1
  O  O143  1  0.86854500  0.87907953  0.88027576  1
  O  O144  1  0.25253037  -0.00084148  0.34611968  1
  O  O145  1  0.24679192  -0.03869823  0.85690825  1
  O  O146  1  0.24729022  0.50023207  0.36247883  1
  O  O147  1  0.22821563  0.49308286  0.84384182  1
  O  O148  1  0.75375689  0.00353220  0.36963363  1
  O  O149  1  0.75689699  0.00756542  0.87562397  1
  O  O150  1  0.85049057  0.38337857  0.38258073  1
  O  O151  1  0.75146727  0.50496020  0.86704607  1
  O  O152  1  0.23824093  0.49766790  0.13199235  1
  O  O153  1  0.22141188  0.49879398  0.61861369  1
  O  O154  1  0.24074956  1.02582837  0.12171228  1
  O  O155  1  0.25509164  0.98676354  0.65368171  1
  O  O156  1  0.77194611  0.48678357  0.12339562  1
  O  O157  1  0.74398878  0.50018067  0.60920077  1
  O  O158  1  0.75342199  1.00195300  0.14206514  1
  O  O159  1  0.75720730  0.99075546  0.64096127  1
  O  O160  1  -0.00647196  0.35363099  0.24534098  1
  O  O161  1  0.01901988  0.37393513  0.79764805  1
  O  O162  1  -0.01700358  0.88038436  0.26152956  1
  O  O163  1  0.00460048  0.86845046  0.74347323  1
  O  O164  1  0.50437603  0.36985291  0.26165291  1
  O  O165  1  0.50155214  0.35253108  0.74474635  1
  O  O166  1  0.49513636  0.88769393  0.24776354  1
  O  O167  1  0.51745519  0.87727168  0.74902126  1
  O  O168  1  0.48364583  0.13413494  0.29107235  1
  O  O169  1  0.51942096  0.12802266  0.73182008  1
  O  O170  1  0.48053329  0.63464965  0.24485148  1
  O  O171  1  0.49800853  0.64426179  0.72516671  1
  O  O172  1  0.99953742  0.14406781  0.23575662  1
  O  O173  1  1.01538641  0.10768608  0.72559609  1
  O  O174  1  0.98668374  0.62092843  0.24671138  1
  O  O175  1  0.99055381  0.64519860  0.73120950  1
  O  O176  1  0.39489124  0.20859758  0.09720220  1
  O  O177  1  0.37651490  0.23685216  0.51687272  1
  O  O178  1  0.39010927  0.72576669  -0.00622578  1
  O  O179  1  0.35226189  0.76143903  0.48144921  1
  O  O180  1  0.86236644  0.25267300  0.00782622  1
  O  O181  1  0.85126673  0.24919925  0.50189498  1
  O  O182  1  0.83856955  0.73315352  0.02634211  1
  O  O183  1  0.85886248  0.76548899  0.48258527  1
  O  O184  1  0.13271561  0.23350559  0.48685798  1
  O  O185  1  0.12427902  0.26166755  0.99931221  1
  O  O186  1  0.13574558  0.76374762  0.47443645  1
  O  O187  1  0.16413935  0.64937075  0.97387594  1
  O  O188  1  0.62136077  0.22697197  0.49487818  1
  O  O189  1  0.64193707  0.24094886  1.01792279  1
  O  O190  1  0.63483220  0.74003524  0.50891883  1
  O  O191  1  0.66305247  0.73006249  1.04556828  1
  O  O192  1  0.52244781  0.25008306  0.15899540  1
  O  O193  1  0.48826800  0.23272031  0.62710163  1
  O  O194  1  0.50335372  0.74860082  0.10777650  1
  O  O195  1  0.49882646  0.74547656  0.64117656  1
  O  O196  1  0.98726718  0.24725009  0.13176986  1
  O  O197  1  0.99639458  0.23771581  0.62497552  1
  O  O198  1  1.00563078  0.74446964  0.13186628  1
  O  O199  1  0.98709331  0.75293411  0.60388574  1
  O  O200  1  -0.01578494  0.24706722  0.36377975  1
  O  O201  1  0.00251134  0.22924866  0.84314753  1
  O  O202  1  0.01178383  0.76816074  0.37883736  1
  O  O203  1  -0.00773141  0.74947782  0.86307934  1
  O  O204  1  0.51386509  0.25717141  0.38049150  1
  O  O205  1  0.49231170  0.21976049  0.85410957  1
  O  O206  1  0.50806031  0.76913375  0.37529791  1
  O  O207  1  0.51577918  0.74753148  0.85604621  1
  O  O208  1  0.23469340  0.10094891  0.50480896  1
  O  O209  1  0.25801466  0.17298808  1.02462085  1
  O  O210  1  0.23758650  0.66584161  0.53775492  1
  O  O211  1  0.23601573  0.65664410  0.97115242  1
  O  O212  1  0.74086028  0.10840022  0.49367243  1
  O  O213  1  0.74834972  0.13444764  0.99810373  1
  O  O214  1  0.76288035  0.64318602  0.50673933  1
  O  O215  1  0.75378480  0.62011800  0.97438194  1
  O  O216  1  0.24405003  0.37941589  0.01625747  1
  O  O217  1  0.25151259  0.37868367  0.52374455  1
  O  O218  1  0.26037660  0.89568609  0.02766002  1
  O  O219  1  0.24589254  0.88023075  0.49583724  1
  O  O220  1  0.75107479  0.36156812  0.00963933  1
  O  O221  1  0.79731311  0.41479304  0.42258484  1
  O  O222  1  0.74704440  0.85986895  0.00746421  1
  O  O223  1  0.75344401  0.87789106  0.51214460  1
  O  O224  1  0.13707870  0.50629097  0.24527843  1
  O  O225  1  0.12047676  0.49630232  0.72323972  1
  O  O226  1  0.14411109  1.01799239  0.23178582  1
  O  O227  1  0.13503847  0.96141894  0.75709568  1
  O  O228  1  0.61419338  0.50345059  0.27115434  1
  O  O229  1  0.60120416  0.48342269  0.70960449  1
  O  O230  1  0.63860495  1.01100124  0.24492051  1
  O  O231  1  0.64831843  1.00036458  0.76311809  1
  O  O232  1  0.36028515  0.00808873  0.22175467  1
  O  O233  1  0.36074486  0.00165887  0.76289286  1
  O  O234  1  0.36535895  0.51474409  0.26187655  1
  O  O235  1  0.34455174  0.52045566  0.71176181  1
  O  O236  1  0.86493940  0.00587732  0.26401646  1
  O  O237  1  0.85798119  -0.00519499  0.76978275  1
  O  O238  1  0.86991523  0.50161698  0.25741057  1
  O  O239  1  0.89428262  0.50796902  0.74655048  1
  O  O240  1  0.13565876  0.35225913  0.38521612  1
  O  O241  1  0.11637209  0.37800775  0.88329271  1
  O  O242  1  0.10344288  0.89327237  0.36428069  1
  O  O243  1  0.12396270  0.78030107  0.92593695  1
  O  O244  1  0.63792805  0.35501003  0.39257909  1
  O  O245  1  0.62061772  0.38082156  0.85155118  1
  O  O246  1  0.61575361  0.86467174  0.37604412  1
  O  O247  1  0.60955018  0.88080835  0.88485445  1
  O  O248  1  0.38755178  0.14684722  0.13436573  1
  O  O249  1  0.38199572  0.12435507  0.62975121  1
  O  O250  1  0.37074629  0.64361794  0.13163014  1
  O  O251  1  0.36435423  0.58016255  0.66032061  1
  O  O252  1  0.88001621  0.13877283  0.12431549  1
  O  O253  1  0.89062963  0.11973690  0.62417143  1
  O  O254  1  0.88703187  0.61947993  0.14475140  1
  O  O255  1  0.88434905  0.62244695  0.63301556  1
  O  O256  1  0.24022820  0.28179405  0.12599533  1
  O  O257  1  0.25929896  0.24894477  0.63747224  1
  O  O258  1  0.20672480  0.76186602  0.11206701  1
  O  O259  1  0.24093075  0.73139005  0.59046608  1
  O  O260  1  0.76061145  0.25243385  0.12587194  1
  O  O261  1  0.79443606  0.26063481  0.66615401  1
  O  O262  1  0.75284444  0.78590233  0.15297009  1
  O  O263  1  0.75049578  0.76408091  0.61297358  1
  O  O264  1  0.24964420  0.24746658  0.36462825  1
  O  O265  1  0.25601683  0.27638360  0.90116653  1
  O  O266  1  0.23630143  0.76456440  0.37565782  1
  O  O267  1  0.18319479  0.79550834  0.88213551  1
  O  O268  1  0.74373213  0.23242273  0.37903316  1
  O  O269  1  0.74964047  0.23828915  0.89247005  1
  O  O270  1  0.73034100  0.76298322  0.39431430  1
  O  O271  1  0.75296235  0.73445053  0.87967763  1
  O  O272  1  -0.00307935  0.13678741  0.01922704  1
  O  O273  1  -0.00231126  0.11215170  0.50872706  1
  O  O274  1  -0.01635932  0.62857842  0.02720461  1
  O  O275  1  -0.01563307  0.62707144  0.50758727  1
  O  O276  1  0.51983256  0.13051006  0.00926379  1
  O  O277  1  0.51176360  0.11388003  0.51948512  1
  O  O278  1  0.48942083  0.55740591  -0.06591229  1
  O  O279  1  0.49855876  0.64325107  0.51194806  1
  O  O280  1  0.47850650  0.40955058  0.52291283  1
  O  O281  1  0.54098808  0.39137844  0.99864151  1
  O  O282  1  0.49924050  0.88760311  0.51860267  1
  O  O283  1  0.52121770  0.89467269  1.01394434  1
  O  O284  1  1.00265593  0.36554332  0.48930417  1
  O  O285  1  0.98051664  0.36367170  0.99440506  1
  O  O286  1  0.99026832  0.88999954  0.48393736  1
  O  O287  1  1.10130055  0.84631760  0.97568627  1
  O  O288  1  0.48704371  0.50622509  0.37828469  1
  O  O289  1  0.50421347  0.51342127  0.86355668  1
  O  O290  1  0.50895655  0.97954848  0.39037268  1
  O  O291  1  0.50012532  1.02323984  0.90436489  1
  O  O292  1  1.01001373  0.49038942  0.38748820  1
  O  O293  1  1.05660125  0.41656539  0.85200376  1
  O  O294  1  0.98376589  1.00093196  0.37387172  1
  O  O295  1  0.98164177  0.99849417  0.87541874  1
  O  O296  1  0.01518715  0.02170432  0.13374867  1
  O  O297  1  -0.00507223  -0.00607243  0.60926784  1
  O  O298  1  0.00544109  0.49735321  0.13138163  1
  O  O299  1  0.01554085  0.47497378  0.61187719  1
  O  O300  1  0.52386728  0.00294476  0.13140425  1
  O  O301  1  0.49380453  0.00887486  0.62314451  1
  O  O302  1  0.51336088  0.49911057  0.14167593  1
  O  O303  1  0.47421666  0.46306560  0.57137434  1
  O  O304  1  0.25754864  0.39630053  0.23866240  1
  O  O305  1  0.25568055  0.39749213  0.72586970  1
  O  O306  1  0.25814014  0.89313891  0.21774316  1
  O  O307  1  0.22100688  0.83345962  0.73000331  1
  O  O308  1  0.75562837  0.37361015  0.23554694  1
  O  O309  1  0.72438482  0.38780818  0.73997955  1
  O  O310  1  0.75362319  0.89520814  0.25502992  1
  O  O311  1  0.75374217  0.87850717  0.73791537  1
  O  O312  1  0.25903068  0.12916208  0.24544008  1
  O  O313  1  0.22485395  0.10242128  0.76179606  1
  O  O314  1  0.25870567  0.61168651  0.24017216  1
  O  O315  1  0.21674622  0.61711822  0.73993065  1
  O  O316  1  0.74733597  0.11703503  0.27056719  1
  O  O317  1  0.74781461  0.11654212  0.76986580  1
  O  O318  1  0.78326706  0.66119527  0.25342855  1
  O  O319  1  0.77513631  0.62733452  0.75590422  1
  O  O320  1  0.42526255  0.12317361  0.34543911  1
  O  O321  1  0.34753536  0.07963760  0.92889943  1
  O  O322  1  0.37620345  0.62167270  0.36235333  1
  O  O323  1  0.36666750  0.60633524  0.84939091  1
  O  O324  1  0.85855917  0.11137867  0.38911433  1
  O  O325  1  0.86076492  0.12387131  0.88306825  1
  O  O326  1  0.88217536  0.61453896  0.36735479  1
  O  O327  1  0.88586031  0.61868860  0.85669838  1
  O  O328  1  0.12477983  0.39393757  0.13086348  1
  O  O329  1  0.13620625  0.35153475  0.62941010  1
  O  O330  1  0.13629426  0.90157161  0.12710467  1
  O  O331  1  0.11702052  0.87769914  0.61602262  1
  O  O332  1  0.64416016  0.40075647  0.13000495  1
  O  O333  1  0.62608767  0.39190394  0.59114001  1
  O  O334  1  0.64833844  0.90105378  0.12191612  1
  O  O335  1  0.64046660  0.87900536  0.62455154  1
  O  O336  1  0.11408345  0.24409827  0.26995523  1
  O  O337  1  0.11360915  0.24129679  0.77318259  1
  O  O338  1  0.12915778  0.75358805  0.26596820  1
  O  O339  1  0.09488691  0.75418214  0.73404391  1
  O  O340  1  0.61887660  0.23736163  0.27815079  1
  O  O341  1  0.61617908  0.27145443  0.71574773  1
  O  O342  1  0.63141381  0.74036984  0.26604875  1
  O  O343  1  0.53830659  0.70846810  0.69823625  1
  O  O344  1  0.39623629  0.25884760  0.25965867  1
  O  O345  1  0.39023678  0.24127154  0.73786162  1
  O  O346  1  0.35990553  0.73833784  0.25519617  1
  O  O347  1  0.36472120  0.79195329  0.67098883  1
  O  O348  1  0.87811627  0.24939858  0.23943103  1
  O  O349  1  0.85616158  0.27755304  0.70877284  1
  O  O350  1  0.84006818  0.72113249  0.25896278  1
  O  O351  1  0.88601451  0.74631062  0.74558535  1
  O  O352  1  0.35521002  0.52293465  0.47910730  1
  O  O353  1  0.34106476  0.51406213  0.98046350  1
  O  O354  1  0.39323047  1.00645649  0.50118774  1
  O  O355  1  0.40707314  0.99625457  1.04702396  1
  O  O356  1  0.90017712  0.48634005  0.50637555  1
  O  O357  1  0.87513960  0.48470457  1.00061710  1
  O  O358  1  0.88317305  0.99442033  0.49044286  1
  O  O359  1  0.86651176  0.99836834  0.98745909  1
  O  O360  1  0.13087772  0.01208863  0.01418557  1
  O  O361  1  0.10556015  0.00886186  0.48660941  1
  O  O362  1  0.12272770  0.50880409  0.02047040  1
  O  O363  1  0.11312512  0.49485049  0.50483360  1
  O  O364  1  0.62339528  0.01483350  0.01536456  1
  O  O365  1  0.61352584  0.00940428  0.50365744  1
  O  O366  1  0.58756208  0.45075560  -0.00845321  1
  O  O367  1  0.61546421  0.52571942  0.50345722  1
  O  O368  1  0.36364817  0.39335741  0.12182683  1
  O  O369  1  0.36950809  0.35304875  0.62839031  1
  O  O370  1  0.36366177  0.83160762  0.12231975  1
  O  O371  1  0.37412823  0.85540407  0.63475364  1
  O  O372  1  0.86698117  0.36123183  0.11468632  1
  O  O373  1  0.87475717  0.35811819  0.70565155  1
  O  O374  1  0.86365052  0.89612745  0.12205425  1
  O  O375  1  0.86824189  0.88115283  0.60973315  1
  O  O376  1  0.11971835  0.13430662  0.38813062  1
  O  O377  1  0.07869164  0.20712089  0.83394251  1
  O  O378  1  0.11994537  0.63667825  0.37381702  1
  O  O379  1  0.07893351  0.59051095  0.87645776  1
  O  O380  1  0.63660515  0.12312114  0.39137413  1
  O  O381  1  0.64129356  0.12105657  0.89901693  1
  O  O382  1  0.61152141  0.64876264  0.39722292  1
  O  O383  1  0.64427798  0.61855131  0.84978917  1
