# generated using pymatgen
data_VZnO4
_symmetry_space_group_name_H-M   'P 1'
_cell_length_a   17.00910646
_cell_length_b   16.89716144
_cell_length_c   16.89687054
_cell_angle_alpha   90.26691936
_cell_angle_beta   90.20951540
_cell_angle_gamma   89.92579164
_symmetry_Int_Tables_number   1
_chemical_formula_structural   VZnO4
_chemical_formula_sum   'V64 Zn64 O256'
_cell_volume   4856.16638436
_cell_formula_units_Z   64
loop_
 _symmetry_equiv_pos_site_id
 _symmetry_equiv_pos_as_xyz
  1  'x, y, z'
loop_
 _atom_site_type_symbol
 _atom_site_label
 _atom_site_symmetry_multiplicity
 _atom_site_fract_x
 _atom_site_fract_y
 _atom_site_fract_z
 _atom_site_occupancy
  V  V0  1  0.25148835  0.38653639  0.12339035  1
  V  V1  1  0.61241224  0.25670587  0.90434433  1
  V  V2  1  0.85959896  0.38964579  0.53805155  1
  V  V3  1  0.85972340  0.13218408  0.25413139  1
  V  V4  1  0.74936857  0.60114310  0.38342186  1
  V  V5  1  0.37719068  0.23808789  0.14024482  1
  V  V6  1  0.26317916  0.25615302  -0.00517925  1
  V  V7  1  0.10961689  0.77163223  0.89722581  1
  V  V8  1  0.12152965  0.25146973  0.86439627  1
  V  V9  1  0.38541578  0.88095648  0.50948152  1
  V  V10  1  0.74668880  -0.01828587  0.24339469  1
  V  V11  1  0.74696421  0.40035354  0.12668616  1
  V  V12  1  0.24095576  0.74914053  0.49109809  1
  V  V13  1  0.76342375  0.75232679  0.02846807  1
  V  V14  1  0.62488624  0.37889571  0.75763447  1
  V  V15  1  -0.00774508  0.23052685  0.72683631  1
  V  V16  1  0.86761135  0.75550303  0.58614654  1
  V  V17  1  -0.00958233  0.76719745  0.73950373  1
  V  V18  1  0.24106600  0.24304898  0.50356200  1
  V  V19  1  0.75313585  0.50866634  0.78792153  1
  V  V20  1  0.50175175  0.86292286  0.37085843  1
  V  V21  1  0.26254184  -0.00467655  0.24310671  1
  V  V22  1  0.34043226  0.63527542  0.74952962  1
  V  V23  1  0.88290957  0.89995929  -0.00013573  1
  V  V24  1  0.38630128  0.74652075  0.62576362  1
  V  V25  1  0.11186624  0.38986582  0.74098956  1
  V  V26  1  0.90343034  0.49187542  0.37301000  1
  V  V27  1  0.84989927  0.23903799  0.10954468  1
  V  V28  1  0.25156047  0.59452681  0.37015189  1
  V  V29  1  0.59473698  0.51870385  0.13008438  1
  V  V30  1  0.61817979  0.15056951  0.46994801  1
  V  V31  1  0.11593119  0.60409403  0.50084023  1
  V  V32  1  0.86526847  0.63831201  0.77338305  1
  V  V33  1  0.73831302  0.88460057  0.59862701  1
  V  V34  1  0.76414008  0.14258445  0.86998285  1
  V  V35  1  0.38877229  0.00453332  0.37861674  1
  V  V36  1  0.23777287  -0.00626694  0.74664173  1
  V  V37  1  0.23264371  0.87719876  0.62470825  1
  V  V38  1  0.37509528  0.85992671  -0.02595163  1
  V  V39  1  0.38161673  0.11878038  0.74487029  1
  V  V40  1  0.48985186  0.49482534  0.52479900  1
  V  V41  1  0.65240978  0.50911437  0.62487852  1
  V  V42  1  0.61078274  0.37912999  0.25092217  1
  V  V43  1  0.64132901  0.85193175  0.75593702  1
  V  V44  1  0.26156656  0.86403024  0.11750950  1
  V  V45  1  0.25649282  0.11611060  0.87273390  1
  V  V46  1  0.64755348  0.75355169  0.38288761  1
  V  V47  1  0.89632996  -0.00520618  0.36548394  1
  V  V48  1  0.49458712  -0.00574834  0.01109285  1
  V  V49  1  0.23484390  0.38956564  0.61879983  1
  V  V50  1  0.02040822  0.73710340  0.25995688  1
  V  V51  1  0.38301808  0.25959526  0.62424572  1
  V  V52  1  0.87504041  0.62472283  0.24356087  1
  V  V53  1  0.22551557  0.63219156  0.89642097  1
  V  V54  1  0.25108546  0.12657417  0.36899899  1
  V  V55  1  0.62241856  0.63794897  -0.01807859  1
  V  V56  1  0.00885048  0.23363163  0.21771240  1
  V  V57  1  0.11874869  -0.00021616  0.12865906  1
  V  V58  1  0.38298935  0.62671498  0.24440717  1
  V  V59  1  0.50736836  0.10423328  0.62005976  1
  V  V60  1  0.11810895  0.38182043  0.23841085  1
  V  V61  1  0.12103514  0.11516556  0.00083806  1
  V  V62  1  0.11111147  0.24819863  0.37193501  1
  V  V63  1  0.39305097  0.48419285  0.37341658  1
  Zn  Zn64  1  0.19753043  0.18421634  0.18451229  1
  Zn  Zn65  1  0.17951837  0.17072864  0.68251700  1
  Zn  Zn66  1  0.22629272  0.70570354  0.21658135  1
  Zn  Zn67  1  0.17394934  0.69447331  0.67201405  1
  Zn  Zn68  1  0.69069989  0.10707582  0.08992859  1
  Zn  Zn69  1  0.64934094  0.16446054  0.73802917  1
  Zn  Zn70  1  0.68254721  0.68818638  0.20617121  1
  Zn  Zn71  1  0.71802618  0.68229370  0.64979172  1
  Zn  Zn72  1  0.30323554  0.31563727  0.30835660  1
  Zn  Zn73  1  0.30042737  0.31147365  0.79936151  1
  Zn  Zn74  1  0.32461671  0.81872311  0.31378639  1
  Zn  Zn75  1  0.29530140  0.80214079  0.81189293  1
  Zn  Zn76  1  0.75024968  0.32134959  0.33107367  1
  Zn  Zn77  1  0.80816088  0.32369607  0.93837479  1
  Zn  Zn78  1  0.82045646  0.81295523  0.30792011  1
  Zn  Zn79  1  0.79846709  0.81481999  0.82164987  1
  Zn  Zn80  1  0.18053989  0.42382191  0.43320962  1
  Zn  Zn81  1  0.34294242  0.48694595  0.87648315  1
  Zn  Zn82  1  0.20469640  0.93430459  0.43339433  1
  Zn  Zn83  1  0.19302133  0.93539077  0.93836392  1
  Zn  Zn84  1  0.67459267  0.42937074  0.45013390  1
  Zn  Zn85  1  0.67075723  0.44386904  0.95354973  1
  Zn  Zn86  1  0.67642842  0.96687658  0.40034167  1
  Zn  Zn87  1  0.65513076  0.87339741  0.96817961  1
  Zn  Zn88  1  0.32536439  0.05837072  0.05461834  1
  Zn  Zn89  1  0.30876346  0.06462419  0.56303802  1
  Zn  Zn90  1  0.31375586  0.56605089  0.05474437  1
  Zn  Zn91  1  0.32084756  0.56335615  0.55478317  1
  Zn  Zn92  1  0.85275572  0.02754218  0.09539453  1
  Zn  Zn93  1  0.78408503  0.02703844  0.52528864  1
  Zn  Zn94  1  0.80389245  0.58087589  0.06195635  1
  Zn  Zn95  1  0.83222928  0.57057016  0.55288888  1
  Zn  Zn96  1  0.42862536  0.43688424  0.18747841  1
  Zn  Zn97  1  0.42656137  0.43812643  0.72347259  1
  Zn  Zn98  1  0.46018499  0.90813397  0.16884592  1
  Zn  Zn99  1  0.44258682  0.93769902  0.69450242  1
  Zn  Zn100  1  0.90173478  0.39576509  0.22995452  1
  Zn  Zn101  1  0.85459876  0.35970482  0.75040730  1
  Zn  Zn102  1  0.92803629  0.90125442  0.20549684  1
  Zn  Zn103  1  0.87934451  0.93556962  0.69132134  1
  Zn  Zn104  1  0.07157418  0.06423730  0.30499401  1
  Zn  Zn105  1  0.06521018  0.06485160  0.80814404  1
  Zn  Zn106  1  0.06949134  0.56781449  0.31233298  1
  Zn  Zn107  1  0.05790089  0.58624589  0.79918597  1
  Zn  Zn108  1  0.63923192  0.12877559  0.26250531  1
  Zn  Zn109  1  0.60780708  0.04273286  0.87993436  1
  Zn  Zn110  1  0.56266741  0.57236742  0.31493988  1
  Zn  Zn111  1  0.62454668  0.63570372  0.76756373  1
  Zn  Zn112  1  0.42662436  0.18154137  0.45683503  1
  Zn  Zn113  1  0.44458342  0.18266536  0.93226477  1
  Zn  Zn114  1  0.44153000  0.67596494  0.44267173  1
  Zn  Zn115  1  0.41390925  0.65274177  0.94886663  1
  Zn  Zn116  1  0.90666463  0.28092458  0.40152676  1
  Zn  Zn117  1  0.94426551  0.18787021  0.94081542  1
  Zn  Zn118  1  0.94738281  0.68688788  0.41609112  1
  Zn  Zn119  1  0.91895022  0.74817479  0.92424970  1
  Zn  Zn120  1  0.08148379  0.30452692  0.05473440  1
  Zn  Zn121  1  0.04593648  0.31149603  0.55792086  1
  Zn  Zn122  1  0.05542864  0.82688040  0.08364060  1
  Zn  Zn123  1  0.05573881  0.79716762  0.56422994  1
  Zn  Zn124  1  0.58013823  0.23756578  0.11714638  1
  Zn  Zn125  1  0.57656717  0.32460823  0.56815394  1
  Zn  Zn126  1  0.52536094  0.77337766  0.03212097  1
  Zn  Zn127  1  0.57313707  0.80538305  0.56447713  1
  O  O128  1  0.13850343  0.11455239  0.10943090  1
  O  O129  1  0.11922930  0.08366485  0.60660920  1
  O  O130  1  0.08709906  0.53864440  0.08857193  1
  O  O131  1  0.13156158  0.61754156  0.60044048  1
  O  O132  1  0.60534409  0.13322426  0.15422540  1
  O  O133  1  0.60310834  0.12643670  0.64047054  1
  O  O134  1  0.61906501  0.61922998  0.13716418  1
  O  O135  1  0.62541074  0.61058180  0.64474884  1
  O  O136  1  0.37546158  0.38554173  0.36212168  1
  O  O137  1  0.36935156  0.39633023  0.81708063  1
  O  O138  1  0.37828412  0.88588075  0.39117035  1
  O  O139  1  0.36440378  0.86817077  0.87449876  1
  O  O140  1  0.87967684  0.38986260  0.35065584  1
  O  O141  1  0.87657660  0.36558486  0.86142394  1
  O  O142  1  0.90064483  0.89508891  0.31899698  1
  O  O143  1  0.87261559  0.85618731  0.89893599  1
  O  O144  1  0.25139656  0.00693521  0.36547971  1
  O  O145  1  0.25077276  0.00404132  0.85879663  1
  O  O146  1  0.26155063  0.49427819  0.38489620  1
  O  O147  1  0.23639276  0.53476010  0.87185106  1
  O  O148  1  0.78000001  -0.00653383  0.34953514  1
  O  O149  1  0.73142524  0.04491171  0.92110548  1
  O  O150  1  0.74624002  0.50106674  0.38377114  1
  O  O151  1  0.74483883  0.50862725  0.88701864  1
  O  O152  1  0.25261631  0.48451934  0.10977935  1
  O  O153  1  0.25419929  0.48597306  0.61175703  1
  O  O154  1  0.26383765  0.99882457  0.13745634  1
  O  O155  1  0.24992169  0.98892244  0.63057546  1
  O  O156  1  0.76656000  0.49762903  0.13002768  1
  O  O157  1  0.75039943  0.51049074  0.61454177  1
  O  O158  1  0.74330053  1.01887535  0.14156929  1
  O  O159  1  0.78077374  0.98054031  0.63244038  1
  O  O160  1  0.01357924  0.35360018  0.23431661  1
  O  O161  1  0.02113698  0.34530565  0.74071265  1
  O  O162  1  0.00453375  0.81561968  0.18765031  1
  O  O163  1  -0.02831508  0.86545232  0.73256261  1
  O  O164  1  0.51062275  0.38634182  0.25064687  1
  O  O165  1  0.52860032  0.40141788  0.76556414  1
  O  O166  1  0.48510098  0.88272576  0.27508671  1
  O  O167  1  0.53309482  0.90592601  0.76402313  1
  O  O168  1  0.49795854  0.24015839  0.31809898  1
  O  O169  1  0.48216080  0.12232737  0.73398482  1
  O  O170  1  0.48048202  0.63803594  0.26305524  1
  O  O171  1  0.49372395  0.66792801  0.78206042  1
  O  O172  1  1.00757607  0.13407994  0.23714593  1
  O  O173  1  0.99496528  0.13265109  0.75722720  1
  O  O174  1  0.99388460  0.62951956  0.25346160  1
  O  O175  1  0.97108863  0.63866854  0.74881175  1
  O  O176  1  0.36317152  0.24562624  -0.01064756  1
  O  O177  1  0.35330183  0.24728664  0.51625996  1
  O  O178  1  0.38215528  0.75959921  -0.00859241  1
  O  O179  1  0.36515835  0.76076620  0.51117739  1
  O  O180  1  0.87971022  0.25324718  0.01073662  1
  O  O181  1  0.94007509  0.32627901  0.50594690  1
  O  O182  1  0.86485012  0.73598618  0.02431907  1
  O  O183  1  0.88421972  0.74982878  0.48846416  1
  O  O184  1  0.12461653  0.25829910  0.47859473  1
  O  O185  1  0.14166352  0.23425092  0.98542306  1
  O  O186  1  0.13922803  0.74433533  0.50453444  1
  O  O187  1  0.09963530  0.76062486  0.99635036  1
  O  O188  1  0.63718337  0.23989324  0.51402259  1
  O  O189  1  0.61320618  0.25028654  1.00377613  1
  O  O190  1  0.61020339  0.74332790  0.47918731  1
  O  O191  1  0.63897362  0.75297738  1.00037399  1
  O  O192  1  0.47150454  0.26495987  0.12000891  1
  O  O193  1  0.48208074  0.26529743  0.62009374  1
  O  O194  1  0.53351180  0.81090668  0.14325847  1
  O  O195  1  0.48452325  0.75456518  0.62295718  1
  O  O196  1  1.01018910  0.24219172  0.11689621  1
  O  O197  1  1.02143974  0.22657196  0.62941514  1
  O  O198  1  1.07244298  0.60960357  0.09007539  1
  O  O199  1  0.97110003  0.74994421  0.62377532  1
  O  O200  1  0.01145145  0.24759365  0.36090362  1
  O  O201  1  0.02162191  0.24673838  0.87854248  1
  O  O202  1  0.01590566  0.76076331  0.35780331  1
  O  O203  1  0.00903557  0.75635560  0.85348968  1
  O  O204  1  0.47889210  0.26834999  0.38357586  1
  O  O205  1  0.51339816  0.25688645  0.88221165  1
  O  O206  1  0.48145769  0.76433284  0.38109358  1
  O  O207  1  0.48840278  0.71650917  0.83875361  1
  O  O208  1  0.24522238  0.13269369  0.48836905  1
  O  O209  1  0.25341007  0.12521041  0.98425414  1
  O  O210  1  0.25249307  0.63795923  0.48765601  1
  O  O211  1  0.23675225  0.63617682  0.99614834  1
  O  O212  1  0.82873568  0.16187907  0.54404356  1
  O  O213  1  0.73657053  0.10499219  0.98194797  1
  O  O214  1  0.76177132  0.62795703  0.47957190  1
  O  O215  1  0.73242965  0.64167035  1.00517164  1
  O  O216  1  0.24725354  0.35674236  0.00707556  1
  O  O217  1  0.23839913  0.35700955  0.51167631  1
  O  O218  1  0.26784294  0.88194441  0.00838819  1
  O  O219  1  0.25917858  0.87098596  0.51226692  1
  O  O220  1  0.74490821  0.38006292  0.01927663  1
  O  O221  1  0.76660209  0.37006291  0.50404272  1
  O  O222  1  0.76428160  0.86098965  0.00927506  1
  O  O223  1  0.72495396  0.91066064  0.50181769  1
  O  O224  1  0.11231020  0.47989544  0.25045785  1
  O  O225  1  0.09591519  0.48712945  0.75700599  1
  O  O226  1  0.14728459  1.00881377  0.23514628  1
  O  O227  1  0.13872108  1.00075618  0.74704574  1
  O  O228  1  0.61415851  0.50127554  0.23795398  1
  O  O229  1  0.64749357  0.50751331  0.74889262  1
  O  O230  1  0.65222097  1.00796438  0.27953895  1
  O  O231  1  0.59502190  0.96506609  0.76691295  1
  O  O232  1  0.36642619  -0.00101251  0.27105377  1
  O  O233  1  0.36547400  0.01328722  0.73845707  1
  O  O234  1  0.37989672  0.51156479  0.26626839  1
  O  O235  1  0.38538161  0.54534034  0.76110002  1
  O  O236  1  0.86427395  0.02242977  0.23608021  1
  O  O237  1  0.90180860  -0.00142646  0.80027091  1
  O  O238  1  0.89032506  0.51078402  0.26330492  1
  O  O239  1  0.85533205  0.52563133  0.76358405  1
  O  O240  1  0.13460464  0.35522818  0.35145066  1
  O  O241  1  0.13635812  0.35206079  0.84797477  1
  O  O242  1  0.09717896  0.90050940  0.43873063  1
  O  O243  1  0.11873075  0.87191624  0.88175607  1
  O  O244  1  0.64407656  0.37161940  0.35349360  1
  O  O245  1  0.63328335  0.36338491  0.87739412  1
  O  O246  1  0.60698718  0.86987818  0.38549903  1
  O  O247  1  0.64711509  0.84542215  0.85571113  1
  O  O248  1  0.37299447  0.13865280  0.11869696  1
  O  O249  1  0.38769296  0.13154549  0.62044007  1
  O  O250  1  0.36730639  0.61386890  0.14552035  1
  O  O251  1  0.36480235  0.64171507  0.63067108  1
  O  O252  1  0.87666340  0.13602411  0.13126117  1
  O  O253  1  0.94750824  0.06805401  0.59172490  1
  O  O254  1  0.87413626  0.61830096  0.14454479  1
  O  O255  1  0.84261952  0.65681907  0.62645674  1
  O  O256  1  0.25755894  0.24835637  0.10733494  1
  O  O257  1  0.22915220  0.23799965  0.60679390  1
  O  O258  1  0.23852406  0.76773642  0.12198418  1
  O  O259  1  0.25401359  0.76621585  0.61516681  1
  O  O260  1  0.75285686  0.22632765  0.10461267  1
  O  O261  1  0.79619323  0.20308352  0.59501227  1
  O  O262  1  0.74383869  0.74469615  0.12771201  1
  O  O263  1  0.75195186  0.77361108  0.59189885  1
  O  O264  1  0.24872653  0.24315211  0.38507383  1
  O  O265  1  0.24548869  0.23836286  0.87698644  1
  O  O266  1  0.24857963  0.77072544  0.39304559  1
  O  O267  1  0.21354581  0.75133052  0.86976814  1
  O  O268  1  0.80455515  0.24382983  0.38378212  1
  O  O269  1  0.73513502  0.24338943  0.89073767  1
  O  O270  1  0.74730169  0.76743020  0.38295190  1
  O  O271  1  0.75682672  0.74958041  0.90618629  1
  O  O272  1  0.02313043  0.12110789  -0.00657271  1
  O  O273  1  0.08282363  0.10135998  0.54456686  1
  O  O274  1  -0.01119271  0.59916943  -0.03930547  1
  O  O275  1  0.01966430  0.62844406  0.48436832  1
  O  O276  1  0.49652440  0.09147055  -0.02443362  1
  O  O277  1  0.51540312  0.13049894  0.50846731  1
  O  O278  1  0.51876606  0.66199223  0.00037456  1
  O  O279  1  0.49369345  0.59964218  0.50511832  1
  O  O280  1  0.51855604  0.39561575  0.49867483  1
  O  O281  1  0.46851006  0.38254604  0.99601005  1
  O  O282  1  0.48559152  0.87439040  0.49920891  1
  O  O283  1  0.48114904  0.87565654  0.99272694  1
  O  O284  1  1.00861228  0.48359073  0.60471498  1
  O  O285  1  1.02844048  0.39002354  0.98212507  1
  O  O286  1  0.99853438  0.89684344  0.52609442  1
  O  O287  1  0.97963685  0.86711291  1.00851312  1
  O  O288  1  0.49332030  0.50076122  0.37921958  1
  O  O289  1  0.49290971  0.42948668  0.94737627  1
  O  O290  1  0.48604280  0.99449623  0.38532404  1
  O  O291  1  0.59032364  0.96955636  0.96326227  1
  O  O292  1  1.00092869  0.49496786  0.37816216  1
  O  O293  1  0.99147817  0.54648150  0.90952355  1
  O  O294  1  0.99773203  1.00605231  0.36175975  1
  O  O295  1  0.96685707  0.98556101  0.83434987  1
  O  O296  1  0.02328197  -0.00789321  0.13873787  1
  O  O297  1  -0.03201659  0.01845036  0.64164222  1
  O  O298  1  -0.06397183  0.47522269  0.05655000  1
  O  O299  1  -0.03070427  0.54000360  0.62688628  1
  O  O300  1  0.50542426  -0.00502707  0.11112575  1
  O  O301  1  0.49937747  0.00587402  0.61708651  1
  O  O302  1  0.49677423  0.50454246  0.12099097  1
  O  O303  1  0.47071883  0.48676410  0.62373680  1
  O  O304  1  0.23302172  0.36956647  0.23195895  1
  O  O305  1  0.22292759  0.36667818  0.72593114  1
  O  O306  1  0.25627051  0.88847726  0.24177779  1
  O  O307  1  0.25250378  0.88474525  0.73555929  1
  O  O308  1  0.73877093  0.37669701  0.23111111  1
  O  O309  1  0.74535976  0.40426206  0.76236839  1
  O  O310  1  0.75206182  0.88175280  0.23819068  1
  O  O311  1  0.74449326  0.87258257  0.73769152  1
  O  O312  1  0.25497215  0.11605375  0.26119827  1
  O  O313  1  0.25343251  0.10896686  0.74920601  1
  O  O314  1  0.24871066  0.60346225  0.26800138  1
  O  O315  1  0.24231425  0.62596455  0.73454209  1
  O  O316  1  0.76147568  0.14322018  0.25776650  1
  O  O317  1  0.74989442  0.11960469  0.77120707  1
  O  O318  1  0.76980551  0.63039459  0.27004070  1
  O  O319  1  0.75051272  0.62587582  0.75817251  1
  O  O320  1  0.36753244  0.11045395  0.38912015  1
  O  O321  1  0.36760773  0.13248104  0.85188690  1
  O  O322  1  0.36106480  0.61406992  0.37457903  1
  O  O323  1  0.33339219  0.66286656  0.85532471  1
  O  O324  1  0.89055209  0.11338131  0.34994936  1
  O  O325  1  0.86327056  0.14241787  0.87906729  1
  O  O326  1  0.87304123  0.60213655  0.37589595  1
  O  O327  1  0.86823881  0.64830260  0.87186561  1
  O  O328  1  0.13566380  0.37233467  0.12791588  1
  O  O329  1  0.12352073  0.37976596  0.62378401  1
  O  O330  1  0.14831681  0.89716952  0.11414207  1
  O  O331  1  0.13580049  0.87433000  0.61628206  1
  O  O332  1  0.63468910  0.40964050  0.12815268  1
  O  O333  1  0.62727561  0.40036120  0.64470288  1
  O  O334  1  0.61268568  0.84350574  0.15957846  1
  O  O335  1  0.63641836  0.87685655  0.62991124  1
  O  O336  1  0.11934673  0.24789981  0.24707122  1
  O  O337  1  0.12053082  0.22510903  0.76143985  1
  O  O338  1  0.11775127  0.72034952  0.23968371  1
  O  O339  1  0.09106237  0.75265332  0.72344760  1
  O  O340  1  0.61985584  0.28173340  0.21990786  1
  O  O341  1  0.63275218  0.27907034  0.74309712  1
  O  O342  1  0.62043157  0.74681284  0.28322026  1
  O  O343  1  0.63155924  0.75169859  0.72893139  1
  O  O344  1  0.36116257  0.24363184  0.24024004  1
  O  O345  1  0.35378924  0.22971660  0.72604579  1
  O  O346  1  0.33964567  0.72610867  0.25409262  1
  O  O347  1  0.36368128  0.74922951  0.73157451  1
  O  O348  1  0.89746044  0.24045144  0.23027255  1
  O  O349  1  0.89466724  0.25241353  0.72915077  1
  O  O350  1  0.89083735  0.72916258  0.26447623  1
  O  O351  1  0.87159385  0.74799525  0.75052080  1
  O  O352  1  0.38286489  0.49245898  0.48673164  1
  O  O353  1  0.38163670  0.54460415  0.96628902  1
  O  O354  1  0.36492613  0.98733684  0.49426885  1
  O  O355  1  0.38718593  0.98183171  0.99503122  1
  O  O356  1  0.88129535  0.48567644  0.49086672  1
  O  O357  1  0.88329303  0.49493270  1.00902961  1
  O  O358  1  0.87655615  0.99428891  0.46501330  1
  O  O359  1  0.88137752  0.99938743  0.98329725  1
  O  O360  1  0.13584708  0.00942076  0.00880193  1
  O  O361  1  0.04891394  -0.05669871  0.49088193  1
  O  O362  1  0.07665860  0.44149047  -0.03968298  1
  O  O363  1  0.12374240  0.50274994  0.49072206  1
  O  O364  1  0.63844266  -0.10778710  0.10969292  1
  O  O365  1  0.68224602  0.06817375  0.48187447  1
  O  O366  1  0.62069972  0.52874015  0.01545129  1
  O  O367  1  0.61714024  0.50108189  0.52477316  1
  O  O368  1  0.35422476  0.36518928  0.13238103  1
  O  O369  1  0.34702923  0.35715900  0.63524806  1
  O  O370  1  0.36333452  0.86680110  0.12559143  1
  O  O371  1  0.37565722  0.87076845  0.61900634  1
  O  O372  1  0.85120222  0.35054764  0.13522306  1
  O  O373  1  0.86634424  0.39386110  0.63740101  1
  O  O374  1  0.87119515  0.90969326  0.10906571  1
  O  O375  1  0.85904314  0.86058577  0.60607640  1
  O  O376  1  0.13658106  0.14127859  0.36556014  1
  O  O377  1  0.13815038  0.12086464  0.88338028  1
  O  O378  1  0.14747017  0.61642026  0.38504228  1
  O  O379  1  0.12060219  0.64441124  0.87422597  1
  O  O380  1  0.61186137  0.16195857  0.37026973  1
  O  O381  1  0.62345259  0.15192997  0.85625156  1
  O  O382  1  0.64746723  0.63197370  0.37208858  1
  O  O383  1  0.62027618  0.62612783  0.88386797  1
