# generated using pymatgen
data_VZnO4
_symmetry_space_group_name_H-M   'P 1'
_cell_length_a   16.94848664
_cell_length_b   16.81383097
_cell_length_c   16.95902307
_cell_angle_alpha   89.81413097
_cell_angle_beta   89.85318414
_cell_angle_gamma   89.86879232
_symmetry_Int_Tables_number   1
_chemical_formula_structural   VZnO4
_chemical_formula_sum   'V64 Zn64 O256'
_cell_volume   4832.74179222
_cell_formula_units_Z   64
loop_
 _symmetry_equiv_pos_site_id
 _symmetry_equiv_pos_as_xyz
  1  'x, y, z'
loop_
 _atom_site_type_symbol
 _atom_site_label
 _atom_site_symmetry_multiplicity
 _atom_site_fract_x
 _atom_site_fract_y
 _atom_site_fract_z
 _atom_site_occupancy
  V  V0  1  0.25668760  0.23733711  -0.00640827  1
  V  V1  1  0.87092696  0.65652287  0.74931297  1
  V  V2  1  0.76091693  0.61420740  0.89451768  1
  V  V3  1  0.50841930  0.51771408  0.50170075  1
  V  V4  1  0.26721270  0.25311366  0.49515787  1
  V  V5  1  -0.00150504  0.73789678  0.23036342  1
  V  V6  1  0.37741601  0.87463833  0.49310379  1
  V  V7  1  0.63850194  0.49744825  0.12238385  1
  V  V8  1  0.50302771  0.14720214  0.61096460  1
  V  V9  1  0.24447932  0.48122014  0.20622544  1
  V  V10  1  0.50029174  0.10398190  0.12352441  1
  V  V11  1  0.88619207  0.00084982  0.88753758  1
  V  V12  1  0.75534549  -0.00468712  0.25510783  1
  V  V13  1  0.00143621  0.12600245  0.62781501  1
  V  V14  1  0.72231742  0.25544731  0.00257572  1
  V  V15  1  0.37415007  0.09834436  0.25386078  1
  V  V16  1  0.37512984  0.26139218  0.12230229  1
  V  V17  1  0.24167381  0.75009756  0.52341088  1
  V  V18  1  0.15082132  0.87383242  0.25871611  1
  V  V19  1  0.86196265  0.25181346  0.60222325  1
  V  V20  1  -0.01918916  0.00364315  0.48978969  1
  V  V21  1  -0.03038725  0.36818382  0.33563279  1
  V  V22  1  0.88389733  0.85618583  0.00125901  1
  V  V23  1  0.61473120  0.36777743  0.74659785  1
  V  V24  1  0.46579466  0.62974042  0.15845001  1
  V  V25  1  0.24104107  0.49121487  0.77110522  1
  V  V26  1  0.62521033  0.37860917  0.24665020  1
  V  V27  1  0.74922103  0.60583217  0.37088466  1
  V  V28  1  0.88031662  0.35924863  -0.02074403  1
  V  V29  1  0.73731302  0.74600067  0.51361293  1
  V  V30  1  0.38729526  0.61497097  0.75754274  1
  V  V31  1  0.75843764  0.86446157  0.11960647  1
  V  V32  1  0.25394489  0.10507012  0.37026089  1
  V  V33  1  0.46421644  0.25302457  0.77004945  1
  V  V34  1  0.40282451  0.75288826  0.63975526  1
  V  V35  1  0.49619118  0.24623413  0.25633749  1
  V  V36  1  0.28909299  0.62728378  0.38948702  1
  V  V37  1  0.12239350  0.73209470  0.39096839  1
  V  V38  1  0.59974360  0.61746720  0.00167328  1
  V  V39  1  0.26784327  -0.00334773  0.75651183  1
  V  V40  1  0.12475232  0.11516353  0.48701922  1
  V  V41  1  0.38619800  -0.01816750  0.89524657  1
  V  V42  1  0.87717935  0.60305526  0.24507269  1
  V  V43  1  0.61748208  0.87507873  0.73912708  1
  V  V44  1  -0.00408902  0.87091692  0.37138719  1
  V  V45  1  0.53666025  0.79615562  0.29182559  1
  V  V46  1  0.62932810  -0.00683045  0.11624096  1
  V  V47  1  0.88202441  0.13014980  0.24660617  1
  V  V48  1  0.24591671  0.39202525  0.61300088  1
  V  V49  1  -0.00193971  0.66364944  0.63700986  1
  V  V50  1  0.23864486  0.65275121  0.87373088  1
  V  V51  1  0.62340561  0.75991729  0.88940621  1
  V  V52  1  0.87113030  0.13358205  0.75100083  1
  V  V53  1  0.48057935  0.38685810  0.37461215  1
  V  V54  1  0.00630503  0.48391815  0.52062457  1
  V  V55  1  0.00947174  0.51243847  -0.04826247  1
  V  V56  1  0.52372954  -0.00073215  0.50142834  1
  V  V57  1  0.72748423  0.13012681  0.87489175  1
  V  V58  1  0.12700480  0.26632465  0.36366366  1
  V  V59  1  0.87071566  0.86188893  0.51246207  1
  V  V60  1  0.76538147  0.49976114  0.72968996  1
  V  V61  1  0.75243646  -0.01122512  0.74447013  1
  V  V62  1  0.73222277  0.13101774  0.37867059  1
  V  V63  1  0.11929687  0.03699297  0.08956450  1
  Zn  Zn64  1  0.19275775  0.18957882  0.18776407  1
  Zn  Zn65  1  0.20552649  0.14752736  0.66061346  1
  Zn  Zn66  1  0.19226388  0.66318606  0.23637581  1
  Zn  Zn67  1  0.20144874  0.65635366  0.67897759  1
  Zn  Zn68  1  0.68369936  0.18118276  0.19271965  1
  Zn  Zn69  1  0.67735293  0.19077615  0.67797294  1
  Zn  Zn70  1  0.69235727  0.67785240  0.19328913  1
  Zn  Zn71  1  0.68822939  0.69557969  0.70256556  1
  Zn  Zn72  1  0.30176927  0.31506129  0.30264327  1
  Zn  Zn73  1  0.27053437  0.29742038  0.79300008  1
  Zn  Zn74  1  0.33744171  0.78536498  0.29890371  1
  Zn  Zn75  1  0.32231454  0.81939583  0.80786036  1
  Zn  Zn76  1  0.79871048  0.29733940  0.31152595  1
  Zn  Zn77  1  0.79729304  0.31720686  0.80627399  1
  Zn  Zn78  1  0.82425130  0.80823400  0.30370716  1
  Zn  Zn79  1  0.79861184  0.81184323  0.83641528  1
  Zn  Zn80  1  0.18853748  0.45081498  0.44158359  1
  Zn  Zn81  1  0.20866744  0.49077639  0.98554412  1
  Zn  Zn82  1  0.18865558  0.92542808  0.44171489  1
  Zn  Zn83  1  0.19312539  1.07043073  0.91266536  1
  Zn  Zn84  1  0.67122544  0.44400885  0.42179337  1
  Zn  Zn85  1  0.68061877  0.43850677  0.92099928  1
  Zn  Zn86  1  0.69580921  0.92193390  0.42953104  1
  Zn  Zn87  1  0.69834405  0.94687104  0.94194776  1
  Zn  Zn88  1  0.31036857  0.05052285  0.06546667  1
  Zn  Zn89  1  0.32419947  0.06264418  0.56895646  1
  Zn  Zn90  1  0.29272271  0.60495458  0.07183830  1
  Zn  Zn91  1  0.33044890  0.56629298  0.56655726  1
  Zn  Zn92  1  0.80059209  0.07789896  0.06013416  1
  Zn  Zn93  1  0.80335157  0.06760439  0.56183681  1
  Zn  Zn94  1  0.84379127  0.51286926  0.07795746  1
  Zn  Zn95  1  0.82979024  0.57064785  0.55571883  1
  Zn  Zn96  1  0.43514668  0.44629108  0.18806864  1
  Zn  Zn97  1  0.41708619  0.42583879  0.68628525  1
  Zn  Zn98  1  0.45401452  0.91737924  0.20995979  1
  Zn  Zn99  1  0.44138864  0.94366685  0.68147818  1
  Zn  Zn100  1  0.89061294  0.31858932  0.16018755  1
  Zn  Zn101  1  0.93109204  0.43483831  0.67690953  1
  Zn  Zn102  1  0.92487019  0.99122992  0.14481086  1
  Zn  Zn103  1  0.93463289  0.94413020  0.68427064  1
  Zn  Zn104  1  0.06647752  0.05709581  0.30267525  1
  Zn  Zn105  1  0.06282957  0.03042287  0.79282598  1
  Zn  Zn106  1  0.06694518  0.54958485  0.30853203  1
  Zn  Zn107  1  0.06966822  0.58189206  0.78223938  1
  Zn  Zn108  1  0.56992258  0.01840251  0.32093077  1
  Zn  Zn109  1  0.56934561  0.07488625  0.76736462  1
  Zn  Zn110  1  0.55976668  0.56641873  0.31197200  1
  Zn  Zn111  1  0.57440744  0.54714393  0.82182152  1
  Zn  Zn112  1  0.44714408  0.16936825  0.43535652  1
  Zn  Zn113  1  0.44953118  0.18167972  0.94731923  1
  Zn  Zn114  1  0.45735110  0.69988776  0.45812694  1
  Zn  Zn115  1  0.43426305  0.69380291  0.92841508  1
  Zn  Zn116  1  0.93275105  0.19524002  0.41977500  1
  Zn  Zn117  1  0.92344727  0.19257999  0.93914297  1
  Zn  Zn118  1  0.92911765  0.65385325  0.44333428  1
  Zn  Zn119  1  0.93195615  0.67224263  0.94913407  1
  Zn  Zn120  1  0.08811494  0.34278888  -0.00680023  1
  Zn  Zn121  1  0.06957221  0.30324827  0.55829736  1
  Zn  Zn122  1  0.04945656  0.86133318  0.09178737  1
  Zn  Zn123  1  0.02662854  0.78100141  0.53299713  1
  Zn  Zn124  1  0.56914155  0.29501907  0.07968018  1
  Zn  Zn125  1  0.54050699  0.35851835  0.57380770  1
  Zn  Zn126  1  0.59143592  0.77963408  0.10517327  1
  Zn  Zn127  1  0.56455348  0.82033038  0.55987886  1
  O  O128  1  0.11475478  0.12444037  0.14083479  1
  O  O129  1  0.10376927  0.12809183  0.60681687  1
  O  O130  1  0.20945719  0.70608205  0.11912204  1
  O  O131  1  0.09450555  0.63665607  0.66881054  1
  O  O132  1  0.60685039  0.11009038  0.13566937  1
  O  O133  1  0.60220568  0.11198338  0.65398035  1
  O  O134  1  0.63136384  0.61087299  0.11297569  1
  O  O135  1  0.62407018  0.60001398  0.66747388  1
  O  O136  1  0.38209323  0.37731590  0.35757266  1
  O  O137  1  0.34175206  0.39589313  0.97525954  1
  O  O138  1  0.37338047  0.85043687  0.39664696  1
  O  O139  1  0.39326470  0.88242140  0.87253629  1
  O  O140  1  0.87392387  0.36072929  0.36678077  1
  O  O141  1  0.86153448  0.37397776  0.88038433  1
  O  O142  1  0.89225310  0.86443765  0.38337489  1
  O  O143  1  0.86586353  0.88968893  0.89418479  1
  O  O144  1  0.24953884  0.00689557  0.37936331  1
  O  O145  1  0.28458012  0.00834975  0.87122980  1
  O  O146  1  0.25397052  0.53175816  0.38870250  1
  O  O147  1  0.23624228  0.47983842  0.86972078  1
  O  O148  1  0.75116281  -0.00656936  0.35751134  1
  O  O149  1  0.76081578  0.01607089  0.87061717  1
  O  O150  1  0.75877290  0.50638068  0.38767447  1
  O  O151  1  0.74269601  0.51678026  0.85660148  1
  O  O152  1  0.23853141  0.50281746  0.10229141  1
  O  O153  1  0.24657838  0.49541045  0.60887579  1
  O  O154  1  0.21412277  1.00027045  0.10246550  1
  O  O155  1  0.25209710  1.04387793  0.65891971  1
  O  O156  1  0.73511392  0.48835549  0.12508069  1
  O  O157  1  0.76682737  0.50651211  0.62887833  1
  O  O158  1  0.74101318  0.99815675  0.12600383  1
  O  O159  1  0.75811717  1.00315890  0.64580585  1
  O  O160  1  -0.03034683  0.35386951  0.23663048  1
  O  O161  1  0.00456684  0.34938547  0.75082838  1
  O  O162  1  0.00906391  0.85069068  0.27008400  1
  O  O163  1  0.02978346  0.92538665  0.74693840  1
  O  O164  1  0.49626858  0.36390356  0.25428024  1
  O  O165  1  0.49650311  0.35359097  0.73862740  1
  O  O166  1  0.54618758  0.89960683  0.29545214  1
  O  O167  1  0.51953741  0.88902402  0.75052416  1
  O  O168  1  0.48466793  0.12968614  0.24836108  1
  O  O169  1  0.49264164  0.15780530  0.73548698  1
  O  O170  1  0.48938703  0.63748699  0.25732593  1
  O  O171  1  0.48493618  0.59996415  0.77455206  1
  O  O172  1  0.98173576  0.12191168  0.26166283  1
  O  O173  1  0.98915523  0.11197282  0.73172117  1
  O  O174  1  0.99338161  0.63213267  0.25812646  1
  O  O175  1  0.97462563  0.64275520  0.75544996  1
  O  O176  1  0.37483170  0.24042754  0.01586737  1
  O  O177  1  0.36436941  0.24094452  0.48091670  1
  O  O178  1  0.36855624  0.76017551  0.00308922  1
  O  O179  1  0.37476909  0.75661061  0.52460657  1
  O  O180  1  0.84858655  0.25558716  -0.00442430  1
  O  O181  1  0.86919060  0.24358315  0.50284809  1
  O  O182  1  0.87411326  0.75631743  -0.00526474  1
  O  O183  1  0.87551343  0.76007563  0.50384192  1
  O  O184  1  0.12840410  0.23210789  0.48029762  1
  O  O185  1  0.15930369  0.26346627  1.01542363  1
  O  O186  1  0.13603405  0.75542152  0.50578450  1
  O  O187  1  0.23640806  0.85915471  0.99310912  1
  O  O188  1  0.67044759  0.29545336  0.51242958  1
  O  O189  1  0.62050885  0.25166235  0.98942569  1
  O  O190  1  0.63885448  0.75519481  0.50181592  1
  O  O191  1  0.62679091  0.72557434  1.00100054  1
  O  O192  1  0.48714232  0.22855614  0.13069435  1
  O  O193  1  0.51901191  0.24726146  0.60107081  1
  O  O194  1  0.50206585  0.71169484  0.10649713  1
  O  O195  1  0.50123428  0.74674778  0.62859320  1
  O  O196  1  0.99620328  0.23239559  0.10238541  1
  O  O197  1  0.98488641  0.22905646  0.60948918  1
  O  O198  1  1.01861290  0.74661611  0.13456921  1
  O  O199  1  0.99816063  0.76471533  0.64399556  1
  O  O200  1  0.01378440  0.27134574  0.37550071  1
  O  O201  1  0.03474363  0.21794758  0.90211128  1
  O  O202  1  0.01242036  0.76092089  0.40551982  1
  O  O203  1  0.01563362  0.75783854  0.86603906  1
  O  O204  1  0.49384043  0.24716746  0.35669720  1
  O  O205  1  0.48083034  0.25424626  0.86884105  1
  O  O206  1  0.52173855  0.75417379  0.38159800  1
  O  O207  1  0.52421029  0.74652756  0.88205522  1
  O  O208  1  0.24614269  0.12609514  0.48199586  1
  O  O209  1  0.25838173  0.13179263  0.99277512  1
  O  O210  1  0.26593420  0.64341598  0.50320282  1
  O  O211  1  0.24315469  0.61173537  0.97276667  1
  O  O212  1  0.74846964  0.11210858  0.47751039  1
  O  O213  1  0.74022748  0.13612105  0.98246114  1
  O  O214  1  0.76347517  0.64319567  0.48008497  1
  O  O215  1  0.77454379  0.59709043  0.99020206  1
  O  O216  1  0.26799592  0.36904297  0.00221039  1
  O  O217  1  0.24740175  0.36215752  0.50024550  1
  O  O218  1  0.16788635  0.88083323  -0.01638666  1
  O  O219  1  0.25938431  0.85589986  0.50572276  1
  O  O220  1  0.73724425  0.35912973  -0.01971620  1
  O  O221  1  0.72241399  0.34228381  0.49015627  1
  O  O222  1  0.76378392  0.87868142  0.01263125  1
  O  O223  1  0.76397340  0.86068289  0.50042534  1
  O  O224  1  0.16771309  0.54938070  0.24538672  1
  O  O225  1  0.14682449  0.50547535  0.74208084  1
  O  O226  1  0.13397200  0.97471190  0.26334180  1
  O  O227  1  0.17186784  1.05256671  0.79621018  1
  O  O228  1  0.61684664  0.49069828  0.23504097  1
  O  O229  1  0.63869768  0.54129261  0.71880533  1
  O  O230  1  0.64811423  0.99629317  0.23548383  1
  O  O231  1  0.64271865  0.98381736  0.76359340  1
  O  O232  1  0.38229629  -0.00098411  0.25494497  1
  O  O233  1  0.37134097  0.00107655  0.75354291  1
  O  O234  1  0.33958908  0.50053752  0.23101576  1
  O  O235  1  0.35968956  0.50823677  0.74634481  1
  O  O236  1  0.86399482  0.01111004  0.24594744  1
  O  O237  1  0.86726930  0.00329656  0.76217836  1
  O  O238  1  0.88419456  0.50938226  0.26738232  1
  O  O239  1  0.86381325  0.49203052  0.75018473  1
  O  O240  1  0.14362953  0.36450242  0.37321472  1
  O  O241  1  0.05658443  0.37204403  0.79679489  1
  O  O242  1  0.11896582  0.85987072  0.37585041  1
  O  O243  1  0.07220621  0.79115327  0.89682068  1
  O  O244  1  0.60434744  0.38189532  0.35081942  1
  O  O245  1  0.59915466  0.43399405  0.83547323  1
  O  O246  1  0.67446160  0.82636542  0.36143822  1
  O  O247  1  0.63634601  0.86065759  0.89661266  1
  O  O248  1  0.38310929  0.10885543  0.14077793  1
  O  O249  1  0.40093594  0.13570993  0.60935917  1
  O  O250  1  0.36530349  0.63948895  0.14383127  1
  O  O251  1  0.37685367  0.63694733  0.64682181  1
  O  O252  1  0.88078182  0.10447944  0.13562066  1
  O  O253  1  0.87789368  0.12918394  0.63399716  1
  O  O254  1  0.87408865  0.60212577  0.14228482  1
  O  O255  1  0.88659590  0.63540681  0.64169265  1
  O  O256  1  0.27212723  0.24026436  0.12164366  1
  O  O257  1  0.25102159  0.22903528  0.59285989  1
  O  O258  1  0.24797345  0.77003686  0.11171563  1
  O  O259  1  0.24603827  0.74466179  0.62493080  1
  O  O260  1  0.72766030  0.24310424  0.10351490  1
  O  O261  1  0.76324066  0.23523698  0.62351934  1
  O  O262  1  0.74977428  0.76521022  0.13136673  1
  O  O263  1  0.74598199  0.73433877  0.61190058  1
  O  O264  1  0.24300405  0.24186514  0.37839340  1
  O  O265  1  0.26465418  0.25514870  0.89536008  1
  O  O266  1  0.23067217  0.73457517  0.40050645  1
  O  O267  1  0.24934706  0.75290873  0.87091245  1
  O  O268  1  0.72557670  0.23244093  0.36772575  1
  O  O269  1  0.74530036  0.23355240  0.87070314  1
  O  O270  1  0.73528815  0.77203245  0.37330771  1
  O  O271  1  0.73535770  0.72551819  0.88188933  1
  O  O272  1  -0.01797399  0.17298682  0.06108793  1
  O  O273  1  0.00147930  0.11212364  0.48072206  1
  O  O274  1  0.01851384  0.61015746  -0.02006054  1
  O  O275  1  0.00416087  0.65589439  0.53327479  1
  O  O276  1  0.49388946  0.11099824  0.02559903  1
  O  O277  1  0.52254762  0.11834547  0.50549249  1
  O  O278  1  0.50279029  0.61091740  -0.01614574  1
  O  O279  1  0.51891815  0.61667135  0.50990247  1
  O  O280  1  0.49531647  0.35705169  0.46840365  1
  O  O281  1  0.49689959  0.37100462  0.97547582  1
  O  O282  1  0.48715547  0.88658640  0.50654985  1
  O  O283  1  0.40808563  0.82487524  1.03349809  1
  O  O284  1  0.99818011  0.38210809  0.51172180  1
  O  O285  1  0.97885482  0.33255522  0.97946242  1
  O  O286  1  0.99035452  0.88812824  0.49639367  1
  O  O287  1  0.98427848  0.86896642  1.00085938  1
  O  O288  1  0.49787661  0.49495855  0.38621946  1
  O  O289  1  0.49308045  0.44349535  0.96673755  1
  O  O290  1  0.49037571  1.01300224  0.40506324  1
  O  O291  1  0.48776008  1.02858435  0.86734545  1
  O  O292  1  1.01373620  0.46019290  0.35305755  1
  O  O293  1  1.00918939  0.50895450  0.85230236  1
  O  O294  1  1.00597921  0.98128713  0.38172299  1
  O  O295  1  0.98475239  1.00327917  0.87279465  1
  O  O296  1  0.03466561  -0.02314415  0.12037121  1
  O  O297  1  -0.01138398  0.01713363  0.59941150  1
  O  O298  1  0.03182138  0.49112836  0.15023272  1
  O  O299  1  0.00213670  0.50252091  0.62310665  1
  O  O300  1  0.51357502  -0.00622189  0.14049590  1
  O  O301  1  0.49419737  0.01097466  0.60493227  1
  O  O302  1  0.49336281  0.52966161  0.13369277  1
  O  O303  1  0.48722231  0.46753236  0.60148741  1
  O  O304  1  0.23407066  0.38366656  0.23335182  1
  O  O305  1  0.24968030  0.39049876  0.73508893  1
  O  O306  1  0.24861199  0.85415711  0.27148780  1
  O  O307  1  0.25147510  0.89795528  0.75157603  1
  O  O308  1  0.72283276  0.36254789  0.24726575  1
  O  O309  1  0.72998215  0.39686598  0.75388873  1
  O  O310  1  0.77090911  0.88719280  0.23043971  1
  O  O311  1  0.75034176  0.88600403  0.76012523  1
  O  O312  1  0.26508510  0.11991865  0.25820702  1
  O  O313  1  0.18373676  0.22050707  0.75052681  1
  O  O314  1  0.29277718  0.67336507  0.28977381  1
  O  O315  1  0.26014784  0.61147561  0.76538452  1
  O  O316  1  0.75398734  0.11248544  0.25332540  1
  O  O317  1  0.76121312  0.11641877  0.75819278  1
  O  O318  1  0.76298500  0.61940384  0.25845967  1
  O  O319  1  0.76620909  0.61787471  0.74888520  1
  O  O320  1  0.36499564  0.12196775  0.36321495  1
  O  O321  1  0.42839851  0.08903511  0.87232752  1
  O  O322  1  0.38692622  0.62553718  0.40362460  1
  O  O323  1  0.35992958  0.63549448  0.86274154  1
  O  O324  1  0.85641833  0.13639954  0.35411802  1
  O  O325  1  0.87944419  0.11949670  0.86119905  1
  O  O326  1  0.85737779  0.64745565  0.35733887  1
  O  O327  1  0.86401229  0.63257164  0.86364448  1
  O  O328  1  0.06975050  0.42876681  0.14615010  1
  O  O329  1  0.14914472  0.35256024  0.62246458  1
  O  O330  1  0.13717234  0.85244384  0.16028707  1
  O  O331  1  0.09436186  0.87641728  0.70176930  1
  O  O332  1  0.60182013  0.39111963  0.13045159  1
  O  O333  1  0.61857762  0.39386093  0.65037992  1
  O  O334  1  0.64223990  0.88221926  0.11776229  1
  O  O335  1  0.63066900  0.86809416  0.64145529  1
  O  O336  1  0.13252864  0.24763639  0.26549764  1
  O  O337  1  0.10921825  0.22634227  0.76954657  1
  O  O338  1  0.11462854  0.74377590  0.27660177  1
  O  O339  1  0.11628770  0.81871331  0.74167944  1
  O  O340  1  0.60155835  0.26032947  0.23057873  1
  O  O341  1  0.63036586  0.26796536  0.75566429  1
  O  O342  1  0.60836400  0.75387256  0.22635965  1
  O  O343  1  0.63514067  0.76900967  0.77194630  1
  O  O344  1  0.38195858  0.24477658  0.23719315  1
  O  O345  1  0.36595244  0.25211827  0.75416783  1
  O  O346  1  0.43961259  0.80446496  0.24361646  1
  O  O347  1  0.38128739  0.73982200  0.74503356  1
  O  O348  1  0.85471426  0.23427021  0.22657714  1
  O  O349  1  0.87135544  0.23420680  0.75201209  1
  O  O350  1  0.89663991  0.74844692  0.23776087  1
  O  O351  1  0.86047869  0.75531225  0.75498194  1
  O  O352  1  0.40121584  0.49654687  0.51067216  1
  O  O353  1  0.34864763  0.47223184  0.97617812  1
  O  O354  1  0.35762232  0.97497863  0.50555001  1
  O  O355  1  0.37794381  0.98729454  0.99571709  1
  O  O356  1  0.91729457  0.53651204  0.48552993  1
  O  O357  1  0.91453505  0.48385415  0.98470459  1
  O  O358  1  0.87936392  0.99376133  0.49110839  1
  O  O359  1  0.87542437  1.01716604  0.98738540  1
  O  O360  1  0.11002461  0.05398814  -0.01077838  1
  O  O361  1  0.12025252  0.01005032  0.49276937  1
  O  O362  1  0.09696036  0.45716268  -0.01394399  1
  O  O363  1  0.10000268  0.50741457  0.48871600  1
  O  O364  1  0.62828163  0.00232536  0.01693853  1
  O  O365  1  0.62112185  -0.02557666  0.49625918  1
  O  O366  1  0.62589690  0.50675769  0.01015849  1
  O  O367  1  0.60426777  0.47793667  0.50388480  1
  O  O368  1  0.38797833  0.36024427  0.12334465  1
  O  O369  1  0.34386671  0.36283581  0.62341556  1
  O  O370  1  0.37794582  0.85321204  0.09690830  1
  O  O371  1  0.38197821  0.85684440  0.63018986  1
  O  O372  1  0.86038802  0.39230080  0.08341913  1
  O  O373  1  0.87687695  0.34794386  0.63182745  1
  O  O374  1  0.87088664  0.88709406  0.10831376  1
  O  O375  1  0.87938317  0.88011124  0.61019951  1
  O  O376  1  0.13923179  0.12462218  0.37043693  1
  O  O377  1  0.08071870  0.17171221  0.86174357  1
  O  O378  1  0.10619559  0.63376786  0.38615330  1
  O  O379  1  0.14084537  0.64057261  0.85438229  1
  O  O380  1  0.63555944  0.10423264  0.36169130  1
  O  O381  1  0.63114143  0.11959299  0.85928998  1
  O  O382  1  0.64875310  0.61939840  0.36318333  1
  O  O383  1  0.63442416  0.61920019  0.89631351  1
