# generated using pymatgen
data_VZnO4
_symmetry_space_group_name_H-M   'P 1'
_cell_length_a   16.95828779
_cell_length_b   16.94563088
_cell_length_c   16.94932809
_cell_angle_alpha   90.06554117
_cell_angle_beta   90.20525605
_cell_angle_gamma   90.32850506
_symmetry_Int_Tables_number   1
_chemical_formula_structural   VZnO4
_chemical_formula_sum   'V64 Zn64 O256'
_cell_volume   4870.59490687
_cell_formula_units_Z   64
loop_
 _symmetry_equiv_pos_site_id
 _symmetry_equiv_pos_as_xyz
  1  'x, y, z'
loop_
 _atom_site_type_symbol
 _atom_site_label
 _atom_site_symmetry_multiplicity
 _atom_site_fract_x
 _atom_site_fract_y
 _atom_site_fract_z
 _atom_site_occupancy
  V  V0  1  0.15816190  0.37431144  0.26771020  1
  V  V1  1  -0.01013288  -0.00705390  -0.01114753  1
  V  V2  1  0.04057034  0.58676174  0.12770176  1
  V  V3  1  0.11948074  0.33934543  0.77649160  1
  V  V4  1  0.87462171  0.87476605  0.48048623  1
  V  V5  1  0.49306581  0.23856793  0.25614161  1
  V  V6  1  0.50606392  0.74799640  0.74232785  1
  V  V7  1  0.00486580  -0.01135180  0.49872625  1
  V  V8  1  0.38126331  0.00201353  0.88016845  1
  V  V9  1  0.37323949  0.62285972  0.76595426  1
  V  V10  1  -0.03800405  0.15092685  0.62240275  1
  V  V11  1  0.62843399  0.75237198  0.88170528  1
  V  V12  1  0.50354540  0.25428235  0.74488567  1
  V  V13  1  0.14166874  0.24534891  0.39473431  1
  V  V14  1  0.73954782  0.74828463  0.51121048  1
  V  V15  1  0.49306627  0.78060040  0.23560784  1
  V  V16  1  -0.00522575  0.13127571  0.12066496  1
  V  V17  1  0.63191219  0.37592294  0.75096461  1
  V  V18  1  0.25149950  -0.01064637  0.74983233  1
  V  V19  1  0.22173079  0.12669985  0.87476151  1
  V  V20  1  0.36965987  0.86616257  0.00278368  1
  V  V21  1  0.75320771  0.50195558  0.74262283  1
  V  V22  1  0.75003170  0.10335789  0.36127656  1
  V  V23  1  0.10186091  0.75779518  0.36720194  1
  V  V24  1  0.75525545  0.01285690  0.74401466  1
  V  V25  1  0.64018081  0.14345810  -0.00600096  1
  V  V26  1  -0.00545272  0.62231907  0.61105040  1
  V  V27  1  0.88020425  0.76351000  0.63433185  1
  V  V28  1  0.90600508  0.37675335  -0.00365936  1
  V  V29  1  0.86064071  0.02578463  0.88415927  1
  V  V30  1  0.12415269  -0.00031484  0.62912710  1
  V  V31  1  0.61577820  0.75275092  0.35335238  1
  V  V32  1  0.37878808  0.87906020  0.47724134  1
  V  V33  1  0.11862386  0.63597054  0.49466343  1
  V  V34  1  0.24744739  0.75233192  0.48695244  1
  V  V35  1  0.74198254  0.49381568  0.25223776  1
  V  V36  1  0.49160565  0.62985021  0.13477218  1
  V  V37  1  0.87941234  0.74664544  0.14051767  1
  V  V38  1  0.48726042  0.37570224  0.87631444  1
  V  V39  1  0.74851911  0.88750668  0.14186176  1
  V  V40  1  0.38020709  0.13088911  0.75087086  1
  V  V41  1  0.25167023  0.01472977  0.25889028  1
  V  V42  1  0.12408901  0.00435592  0.11016992  1
  V  V43  1  0.76365867  0.76723846  -0.00233532  1
  V  V44  1  0.63773478  0.24872597  0.39095964  1
  V  V45  1  0.13003458  0.74534871  0.88318629  1
  V  V46  1  0.49651388  0.37476913  0.38249924  1
  V  V47  1  0.63506878  0.88272818  0.73979112  1
  V  V48  1  0.38005300  0.74283631  0.62180297  1
  V  V49  1  0.24978974  0.86746558  0.12183526  1
  V  V50  1  0.50322085  0.87714309  0.88214082  1
  V  V51  1  0.61238609  0.51495590  0.61640316  1
  V  V52  1  0.62529683  0.50235434  0.12067061  1
  V  V53  1  0.75354377  0.63289953  0.36273062  1
  V  V54  1  0.87113186  0.25375040  0.15715924  1
  V  V55  1  0.74929228  0.62030011  0.88209162  1
  V  V56  1  0.51580624  0.10875246  0.62729295  1
  V  V57  1  0.18038825  0.48741277  0.59983993  1
  V  V58  1  0.88559100  0.62239827  0.76035306  1
  V  V59  1  0.61174574  0.00376630  0.12091919  1
  V  V60  1  0.11130553  0.87251556  0.24850065  1
  V  V61  1  0.48409753  0.13544500  0.11538827  1
  V  V62  1  0.49483657  0.51300107  -0.01163087  1
  V  V63  1  0.24660711  0.86381602  0.62937147  1
  Zn  Zn64  1  0.17105029  0.19382327  0.19618379  1
  Zn  Zn65  1  0.20353201  0.17446822  0.68390612  1
  Zn  Zn66  1  0.20240682  0.67553969  0.19012430  1
  Zn  Zn67  1  0.18519151  0.66316268  0.68866856  1
  Zn  Zn68  1  0.68464920  0.18410469  0.18512781  1
  Zn  Zn69  1  0.69199275  0.19005887  0.70043279  1
  Zn  Zn70  1  0.68068146  0.68836980  0.17331615  1
  Zn  Zn71  1  0.69035060  0.68799785  0.69146307  1
  Zn  Zn72  1  0.31892774  0.29657460  0.33480019  1
  Zn  Zn73  1  0.28988047  0.32444038  0.88447142  1
  Zn  Zn74  1  0.30101862  0.79734338  0.29419215  1
  Zn  Zn75  1  0.32195876  0.80776011  0.81101286  1
  Zn  Zn76  1  0.77962296  0.28952258  0.28215300  1
  Zn  Zn77  1  0.87713738  0.28988872  0.82997808  1
  Zn  Zn78  1  0.80609029  0.81084744  0.31089592  1
  Zn  Zn79  1  0.81057743  0.81026706  0.80714524  1
  Zn  Zn80  1  0.16581125  0.45974774  0.41565685  1
  Zn  Zn81  1  0.09815208  0.37150234  0.94454507  1
  Zn  Zn82  1  0.18965008  0.93684891  0.43693934  1
  Zn  Zn83  1  0.18484760  0.93451322  0.93148167  1
  Zn  Zn84  1  0.64836841  0.46001814  0.41648922  1
  Zn  Zn85  1  0.67314417  0.44276484  0.93049643  1
  Zn  Zn86  1  0.69468224  0.92267240  0.42285521  1
  Zn  Zn87  1  0.68266950  0.94754380  0.94255169  1
  Zn  Zn88  1  0.30385451  0.06649192  0.05375422  1
  Zn  Zn89  1  0.34420831  0.03491475  0.57926296  1
  Zn  Zn90  1  0.32744720  0.55358242  0.06948184  1
  Zn  Zn91  1  0.33911786  0.56429395  0.50970350  1
  Zn  Zn92  1  0.81111735  0.06945321  0.06765113  1
  Zn  Zn93  1  0.81216713  0.06356784  0.54515201  1
  Zn  Zn94  1  0.80796033  0.56349985  0.06320123  1
  Zn  Zn95  1  0.80358615  0.57154246  0.56325531  1
  Zn  Zn96  1  0.48539475  0.41808399  0.18015125  1
  Zn  Zn97  1  0.44696397  0.45059644  0.69337095  1
  Zn  Zn98  1  0.43141034  0.95405110  0.18451854  1
  Zn  Zn99  1  0.43854880  0.92809842  0.68829968  1
  Zn  Zn100  1  0.90086275  0.46670872  0.15853210  1
  Zn  Zn101  1  0.94393525  0.43827486  0.68728767  1
  Zn  Zn102  1  0.93077292  0.93764198  0.17645153  1
  Zn  Zn103  1  0.93639420  0.95601601  0.70158793  1
  Zn  Zn104  1  0.06110114  0.04650236  0.30650852  1
  Zn  Zn105  1  0.01692496  0.12795206  0.82192843  1
  Zn  Zn106  1  0.07608708  0.57261605  0.29136379  1
  Zn  Zn107  1  0.06988188  0.52243964  0.75373853  1
  Zn  Zn108  1  0.59007428  0.09413938  0.28995869  1
  Zn  Zn109  1  0.56907366  0.06462428  0.81695031  1
  Zn  Zn110  1  0.56156678  0.56952157  0.31417723  1
  Zn  Zn111  1  0.56577363  0.56610184  0.80862618  1
  Zn  Zn112  1  0.46798207  0.22540974  0.47734581  1
  Zn  Zn113  1  0.43499013  0.20085606  0.94041765  1
  Zn  Zn114  1  0.43469491  0.70058209  0.41914948  1
  Zn  Zn115  1  0.44230231  0.69176070  0.94126767  1
  Zn  Zn116  1  0.93808734  0.14916506  0.43192458  1
  Zn  Zn117  1  0.92214687  0.19117403  0.96335685  1
  Zn  Zn118  1  0.92793141  0.69269881  0.43550766  1
  Zn  Zn119  1  0.94256929  0.67184009  0.95824084  1
  Zn  Zn120  1  0.03170945  0.36331877  0.12972548  1
  Zn  Zn121  1  0.10106373  0.28757050  0.59356159  1
  Zn  Zn122  1  0.05238410  0.82081676  0.06052405  1
  Zn  Zn123  1  0.05817391  0.81200415  0.56702652  1
  Zn  Zn124  1  0.56130924  0.31511904  0.06061346  1
  Zn  Zn125  1  0.58064131  0.31949375  0.56642822  1
  Zn  Zn126  1  0.56758098  0.81588517  0.06052344  1
  Zn  Zn127  1  0.55770038  0.82674089  0.55892368  1
  O  O128  1  0.10950541  0.10723217  0.13406886  1
  O  O129  1  0.13662224  0.09864233  0.62341670  1
  O  O130  1  0.14346490  0.60277172  0.13135638  1
  O  O131  1  0.10294748  0.65479342  0.60720892  1
  O  O132  1  0.61744188  0.12150856  0.11340042  1
  O  O133  1  0.61429164  0.12896104  0.64122976  1
  O  O134  1  0.60932865  0.61426017  0.12172473  1
  O  O135  1  0.62763247  0.61532572  0.63159151  1
  O  O136  1  0.39672878  0.37381143  0.37803861  1
  O  O137  1  0.38973751  0.38746066  0.85970381  1
  O  O138  1  0.36007286  0.85985536  0.38030640  1
  O  O139  1  0.38101650  0.88088547  0.88245269  1
  O  O140  1  0.79540639  0.39189604  0.46234312  1
  O  O141  1  0.89786727  0.38323706  0.89637047  1
  O  O142  1  0.87558620  0.87210432  0.38180793  1
  O  O143  1  0.90757880  0.86905990  0.84588084  1
  O  O144  1  0.23200711  0.00425833  0.35809112  1
  O  O145  1  0.25907091  -0.00188345  0.86547037  1
  O  O146  1  0.27639341  0.50240249  0.41483097  1
  O  O147  1  0.24388449  0.56125018  0.92245712  1
  O  O148  1  0.74572275  0.00205359  0.36540480  1
  O  O149  1  0.76494074  -0.01656294  0.87223532  1
  O  O150  1  0.73119306  0.52299835  0.36206482  1
  O  O151  1  0.74321679  0.51702125  0.87091622  1
  O  O152  1  0.32506005  0.39833457  0.11569470  1
  O  O153  1  0.27816997  0.49911767  0.57859973  1
  O  O154  1  0.23208911  0.99791619  0.12093694  1
  O  O155  1  0.24864333  0.98300536  0.62822453  1
  O  O156  1  0.72998918  0.50389336  0.13006956  1
  O  O157  1  0.74681218  0.50803263  0.64170032  1
  O  O158  1  0.75406361  0.98911078  0.12534312  1
  O  O159  1  0.76907400  1.00564151  0.64602280  1
  O  O160  1  -0.05792538  0.42726519  0.32687921  1
  O  O161  1  0.04082554  0.40941007  0.74480254  1
  O  O162  1  0.01370834  0.88227841  0.23938080  1
  O  O163  1  -0.03661105  0.87409093  0.79379702  1
  O  O164  1  0.50623466  0.35075545  0.26881606  1
  O  O165  1  0.50799227  0.37310804  0.75331058  1
  O  O166  1  0.50693822  0.87891712  0.22822850  1
  O  O167  1  0.51078980  0.86741764  0.76125461  1
  O  O168  1  0.49632001  0.12794694  0.23079539  1
  O  O169  1  0.49619276  0.13082404  0.74932002  1
  O  O170  1  0.49321475  0.62364701  0.23632946  1
  O  O171  1  0.49795515  0.64406756  0.75582593  1
  O  O172  1  0.97883046  0.08616931  0.22947199  1
  O  O173  1  0.99008419  0.11233043  0.71153481  1
  O  O174  1  1.01114151  0.62666993  0.21813724  1
  O  O175  1  0.98732775  0.61471199  0.74558766  1
  O  O176  1  0.35178421  0.26932390  -0.03719106  1
  O  O177  1  0.34816606  0.24243237  0.49453765  1
  O  O178  1  0.37289935  0.76717131  -0.00431217  1
  O  O179  1  0.35865112  0.75703980  0.49998606  1
  O  O180  1  0.87598364  0.27910267  0.02177078  1
  O  O181  1  0.91861139  0.28002789  0.47452987  1
  O  O182  1  0.86403884  0.75140312  -0.00303315  1
  O  O183  1  0.87328631  0.76468715  0.51382899  1
  O  O184  1  0.12476248  0.23987554  0.49428012  1
  O  O185  1  0.17706147  0.27005708  1.04097146  1
  O  O186  1  0.12444871  0.75597747  0.48565237  1
  O  O187  1  0.12629137  0.76556391  0.98825154  1
  O  O188  1  0.62959631  0.24226104  0.49294990  1
  O  O189  1  0.62780939  0.24459279  1.00726372  1
  O  O190  1  0.64064684  0.75616500  0.51815360  1
  O  O191  1  0.63767933  0.75584099  0.98619375  1
  O  O192  1  0.50097808  0.24418618  0.14134366  1
  O  O193  1  0.50449059  0.24766313  0.64202173  1
  O  O194  1  0.51652029  0.74144654  0.13234077  1
  O  O195  1  0.49396523  0.76231418  0.63414566  1
  O  O196  1  1.01289290  0.22815269  0.13667216  1
  O  O197  1  0.99302083  0.24720515  0.61317291  1
  O  O198  1  0.97730709  0.76321786  0.11823689  1
  O  O199  1  0.98462905  0.74349950  0.62696283  1
  O  O200  1  0.02401862  0.19361015  0.36907262  1
  O  O201  1  -0.04485843  0.21595391  0.85762719  1
  O  O202  1  0.00383520  0.75806868  0.37563134  1
  O  O203  1  0.02928764  0.72128335  0.89027863  1
  O  O204  1  0.51453862  0.24363085  0.37178208  1
  O  O205  1  0.49703446  0.26727979  0.86077914  1
  O  O206  1  0.50425390  0.75039518  0.34630052  1
  O  O207  1  0.51139348  0.75933677  0.86887570  1
  O  O208  1  0.30603910  0.19471925  0.54198457  1
  O  O209  1  0.24164535  0.11583425  0.97372940  1
  O  O210  1  0.23190952  0.64910366  0.50572048  1
  O  O211  1  0.23150259  0.57480050  0.99378403  1
  O  O212  1  0.68382118  0.05915063  0.52221471  1
  O  O213  1  0.74038766  0.13668951  1.01131557  1
  O  O214  1  0.75552656  0.64315088  0.48902793  1
  O  O215  1  0.75595971  0.63309685  0.98406703  1
  O  O216  1  0.19809950  0.33919705  -0.00124874  1
  O  O217  1  0.36450179  0.36928195  0.56631870  1
  O  O218  1  0.25988845  0.88330070  0.00661627  1
  O  O219  1  0.25079269  0.86452498  0.50924783  1
  O  O220  1  0.74816197  0.34178419  -0.05593754  1
  O  O221  1  0.79464937  0.33936189  0.51210677  1
  O  O222  1  0.75485064  0.86700957  -0.00556456  1
  O  O223  1  0.76484849  0.86023675  0.49553335  1
  O  O224  1  0.12790723  0.47619665  0.30493856  1
  O  O225  1  0.16208635  0.53691428  0.68981127  1
  O  O226  1  0.13003528  0.98688441  0.23639198  1
  O  O227  1  0.14529487  0.98890499  0.73602865  1
  O  O228  1  0.63103852  0.51140663  0.23703038  1
  O  O229  1  0.63388488  0.50095835  0.74142761  1
  O  O230  1  0.62779786  1.01150613  0.22058740  1
  O  O231  1  0.63878275  0.98852431  0.76107921  1
  O  O232  1  0.35058860  -0.00123277  0.24608095  1
  O  O233  1  0.36881420  -0.00385980  0.76014239  1
  O  O234  1  0.31951118  0.47046038  0.15176904  1
  O  O235  1  0.38548529  0.52454354  0.74702841  1
  O  O236  1  0.91362250  0.03450357  0.23923122  1
  O  O237  1  0.86514059  0.00815246  0.77163519  1
  O  O238  1  0.83928101  0.51927158  0.23431713  1
  O  O239  1  0.86542952  0.50994413  0.74702186  1
  O  O240  1  0.13271245  0.35306892  0.38608307  1
  O  O241  1  0.08059244  0.29797095  0.85900575  1
  O  O242  1  0.12318775  0.86951329  0.35925305  1
  O  O243  1  0.12078920  0.85116582  0.87229630  1
  O  O244  1  0.62819863  0.35196018  0.37989988  1
  O  O245  1  0.60994140  0.38620313  0.85508826  1
  O  O246  1  0.61921737  0.84823938  0.38995061  1
  O  O247  1  0.61814365  0.87146043  0.87268459  1
  O  O248  1  0.38483631  0.12308109  0.11057129  1
  O  O249  1  0.38571889  0.11284435  0.64747338  1
  O  O250  1  0.39193059  0.63550760  0.11241337  1
  O  O251  1  0.37618135  0.64395932  0.62030807  1
  O  O252  1  0.88402022  0.14728421  0.11986469  1
  O  O253  1  0.86124735  0.14518314  0.61218021  1
  O  O254  1  0.85804984  0.64822350  0.12077527  1
  O  O255  1  0.88495723  0.63145374  0.62938343  1
  O  O256  1  0.22533758  0.25326940  0.09905471  1
  O  O257  1  0.26511770  0.23484025  0.59775321  1
  O  O258  1  0.24104895  0.76986107  0.12096921  1
  O  O259  1  0.25562519  0.75719283  0.62153303  1
  O  O260  1  0.76851077  0.26255638  0.15659858  1
  O  O261  1  0.78179721  0.27561551  0.67689584  1
  O  O262  1  0.74717738  0.76341214  0.10944020  1
  O  O263  1  0.76532367  0.74216194  0.61673609  1
  O  O264  1  0.24021022  0.22858324  0.38381754  1
  O  O265  1  0.23847785  0.22317154  0.85464675  1
  O  O266  1  0.23297188  0.75920344  0.38819419  1
  O  O267  1  0.23396578  0.76810226  0.87491363  1
  O  O268  1  0.74105662  0.24027906  0.37457582  1
  O  O269  1  0.75650501  0.29124863  0.88890795  1
  O  O270  1  0.73591710  0.74644902  0.38307850  1
  O  O271  1  0.74851710  0.74706506  0.88216262  1
  O  O272  1  -0.00365045  0.11724205  0.01580581  1
  O  O273  1  -0.01105547  0.09653639  0.52896669  1
  O  O274  1  -0.00075539  0.61601880  0.03800651  1
  O  O275  1  -0.00212509  0.62956101  0.50462412  1
  O  O276  1  0.50582223  0.14456695  0.01224096  1
  O  O277  1  0.49191445  0.13007118  0.53072003  1
  O  O278  1  0.50490163  0.61723769  0.00097629  1
  O  O279  1  0.42288961  0.59866855  0.45028092  1
  O  O280  1  0.50124884  0.34382738  0.48636687  1
  O  O281  1  0.50368348  0.38338004  0.98037189  1
  O  O282  1  0.47864342  0.86771402  0.49124407  1
  O  O283  1  0.48884749  0.87124220  0.99026143  1
  O  O284  1  0.95336098  0.33725822  0.44490875  1
  O  O285  1  1.01006652  0.37462458  1.01417267  1
  O  O286  1  0.98792321  0.87841922  0.50182866  1
  O  O287  1  0.99607497  0.89363358  0.98897449  1
  O  O288  1  0.53189341  0.47363403  0.37721771  1
  O  O289  1  0.50974084  0.49861405  0.88313798  1
  O  O290  1  0.50602943  1.00961126  0.36599524  1
  O  O291  1  0.48888773  0.98876639  0.86639559  1
  O  O292  1  0.95191420  0.48718631  0.36731485  1
  O  O293  1  1.05946926  0.53552406  0.87343942  1
  O  O294  1  1.00485610  1.00795905  0.40056030  1
  O  O295  1  0.97829618  1.02306162  0.88559900  1
  O  O296  1  0.00608040  -0.00045597  0.10583074  1
  O  O297  1  0.02030031  -0.02323203  0.62860167  1
  O  O298  1  0.01340438  0.48714099  0.14249014  1
  O  O299  1  0.00464109  0.52322468  0.62533051  1
  O  O300  1  0.50546053  0.01549377  0.11826258  1
  O  O301  1  0.50167552  0.00776512  0.63460609  1
  O  O302  1  0.50040274  0.51527722  0.11483439  1
  O  O303  1  0.51198357  0.50198818  0.61686847  1
  O  O304  1  0.25800625  0.37270262  0.27182214  1
  O  O305  1  0.20513354  0.38010909  0.81311117  1
  O  O306  1  0.23979608  0.88362810  0.23165812  1
  O  O307  1  0.26261972  0.87501504  0.73590371  1
  O  O308  1  0.74730398  0.39583106  0.26431831  1
  O  O309  1  0.73858260  0.39800512  0.76258894  1
  O  O310  1  0.74064963  0.87498879  0.24017082  1
  O  O311  1  0.73883479  0.87866056  0.75117234  1
  O  O312  1  0.23808169  0.11276112  0.23952813  1
  O  O313  1  0.26586193  0.10921341  0.75671995  1
  O  O314  1  0.27511020  0.68539193  0.27016031  1
  O  O315  1  0.27523752  0.63980118  0.74881905  1
  O  O316  1  0.75976220  0.12543694  0.26347897  1
  O  O317  1  0.74157967  0.11063415  0.76164188  1
  O  O318  1  0.73902091  0.63889449  0.26174671  1
  O  O319  1  0.76182207  0.61833034  0.76042549  1
  O  O320  1  0.44592131  0.04791844  0.37975163  1
  O  O321  1  0.38387565  0.10872938  0.86578142  1
  O  O322  1  0.36618767  0.53978912  0.31928612  1
  O  O323  1  0.37992850  0.63524945  0.86599304  1
  O  O324  1  0.82978150  0.11941751  0.43513382  1
  O  O325  1  0.84416176  0.12113379  0.89498232  1
  O  O326  1  0.85418782  0.63569432  0.37149345  1
  O  O327  1  0.87011445  0.63091099  0.86648194  1
  O  O328  1  0.13382967  0.38238040  0.16955075  1
  O  O329  1  0.15335081  0.39120214  0.60249453  1
  O  O330  1  0.12953584  0.88372964  0.12624628  1
  O  O331  1  0.14259777  0.86943128  0.62494100  1
  O  O332  1  0.59538837  0.39988828  0.13171291  1
  O  O333  1  0.62452334  0.39120448  0.64334479  1
  O  O334  1  0.63682972  0.89382952  0.10985211  1
  O  O335  1  0.61995039  0.87946769  0.64177510  1
  O  O336  1  0.12982584  0.26753487  0.27156055  1
  O  O337  1  0.13688990  0.26302246  0.70608117  1
  O  O338  1  0.12229214  0.76220604  0.25893029  1
  O  O339  1  0.12560139  0.72181137  0.78242792  1
  O  O340  1  0.61411631  0.22257401  0.26996435  1
  O  O341  1  0.62289187  0.26965722  0.74797331  1
  O  O342  1  0.62056825  0.75754949  0.25149466  1
  O  O343  1  0.62566872  0.76333823  0.75805685  1
  O  O344  1  0.39422980  0.23593829  0.27145177  1
  O  O345  1  0.38261507  0.23052825  0.75350960  1
  O  O346  1  0.39545124  0.77260791  0.23136676  1
  O  O347  1  0.38919560  0.74810188  0.74096054  1
  O  O348  1  0.88579311  0.24361476  0.25585770  1
  O  O349  1  0.84935515  0.28403802  0.71315771  1
  O  O350  1  0.87231964  0.75400246  0.24054804  1
  O  O351  1  0.86780179  0.73243656  0.74020095  1
  O  O352  1  0.29618577  0.52124175  0.33138553  1
  O  O353  1  0.39587197  0.49970204  0.99485118  1
  O  O354  1  0.35877256  0.97981191  0.48721115  1
  O  O355  1  0.37200879  0.99340853  0.98226291  1
  O  O356  1  0.87385744  0.47040116  0.53756008  1
  O  O357  1  0.86331409  0.46348129  1.03963904  1
  O  O358  1  0.88481626  0.97635761  0.51312044  1
  O  O359  1  0.87994616  1.00237790  0.99426151  1
  O  O360  1  0.11468612  -0.00454773  0.00478283  1
  O  O361  1  0.11388585  -0.01852750  0.51412915  1
  O  O362  1  0.09963024  0.49528999  -0.07599113  1
  O  O363  1  0.13176997  0.52335171  0.50841311  1
  O  O364  1  0.63105590  0.01894324  0.01217062  1
  O  O365  1  0.64545456  -0.00513661  0.51393654  1
  O  O366  1  0.61706639  0.49765526  0.01138272  1
  O  O367  1  0.64414231  0.49477217  0.52226717  1
  O  O368  1  0.38974834  0.35873057  0.13235016  1
  O  O369  1  0.36271973  0.36706172  0.63965887  1
  O  O370  1  0.36231478  0.88682669  0.11000955  1
  O  O371  1  0.36539632  0.86725208  0.61326587  1
  O  O372  1  0.91533536  0.35224886  0.15037248  1
  O  O373  1  0.87694571  0.41444191  0.59044786  1
  O  O374  1  0.85478592  0.86646791  0.12860477  1
  O  O375  1  0.88155473  0.86240183  0.64597988  1
  O  O376  1  0.09303463  0.14252775  0.36774767  1
  O  O377  1  0.12425930  0.11169264  0.85673738  1
  O  O378  1  0.11091438  0.64427091  0.38231607  1
  O  O379  1  0.16503698  0.65232967  0.91156873  1
  O  O380  1  0.64656779  0.12253194  0.38576308  1
  O  O381  1  0.62176362  0.12569450  0.89439228  1
  O  O382  1  0.62477763  0.64763738  0.37800470  1
  O  O383  1  0.64270338  0.64008914  0.86368450  1
