# generated using pymatgen
data_VZnO4
_symmetry_space_group_name_H-M   'P 1'
_cell_length_a   17.01977109
_cell_length_b   16.98318781
_cell_length_c   16.98615118
_cell_angle_alpha   89.65839565
_cell_angle_beta   89.90902923
_cell_angle_gamma   89.66013796
_symmetry_Int_Tables_number   1
_chemical_formula_structural   VZnO4
_chemical_formula_sum   'V64 Zn64 O256'
_cell_volume   4909.66691771
_cell_formula_units_Z   64
loop_
 _symmetry_equiv_pos_site_id
 _symmetry_equiv_pos_as_xyz
  1  'x, y, z'
loop_
 _atom_site_type_symbol
 _atom_site_label
 _atom_site_symmetry_multiplicity
 _atom_site_fract_x
 _atom_site_fract_y
 _atom_site_fract_z
 _atom_site_occupancy
  V  V0  1  0.12375497  0.11915791  0.48734548  1
  V  V1  1  0.50807091  0.01688885  0.00101304  1
  V  V2  1  0.48724398  -0.00064011  0.48975914  1
  V  V3  1  0.76161332  0.12929187  0.37449251  1
  V  V4  1  0.13005879  0.88003728  0.23880700  1
  V  V5  1  0.61744555  0.58644749  -0.00123113  1
  V  V6  1  0.25198054  0.26110749  -0.00860488  1
  V  V7  1  0.37803172  0.23707770  0.62217603  1
  V  V8  1  0.49528046  0.86547379  0.37300922  1
  V  V9  1  0.01132672  0.87134341  0.37595476  1
  V  V10  1  0.63384252  0.36309244  0.73908779  1
  V  V11  1  0.75325129  -0.00227679  0.24060828  1
  V  V12  1  0.73398140  0.87275734  0.61201012  1
  V  V13  1  0.38005534  0.05365988  0.86575550  1
  V  V14  1  0.11520144  0.63356173  -0.00110479  1
  V  V15  1  0.01057376  0.25678548  0.73298403  1
  V  V16  1  0.49993276  0.86033144  0.88884888  1
  V  V17  1  0.11916198  0.15014660  -0.01108493  1
  V  V18  1  0.37821902  0.49266792  0.38501474  1
  V  V19  1  0.76192169  0.62241219  0.88325907  1
  V  V20  1  0.25886833  0.39792311  0.62586858  1
  V  V21  1  0.10770586  0.49780829  0.63335369  1
  V  V22  1  0.85696839  0.87621402  -0.02401388  1
  V  V23  1  0.74710728  0.12189894  0.87357375  1
  V  V24  1  -0.00446344  0.76110426  0.76281119  1
  V  V25  1  0.50729698  0.11626942  0.63308544  1
  V  V26  1  0.60609374  0.24892446  0.36667804  1
  V  V27  1  0.38272771  0.60871745  0.74001787  1
  V  V28  1  0.49898669  0.75010289  0.73244679  1
  V  V29  1  0.51933855  0.13195881  0.13142665  1
  V  V30  1  0.26455651  0.60879701  0.87506636  1
  V  V31  1  0.38380380  0.63820449  0.25428978  1
  V  V32  1  -0.01602652  0.39308592  0.37946514  1
  V  V33  1  0.50597885  0.38459936  0.87454828  1
  V  V34  1  0.10665630  0.50865682  0.12734999  1
  V  V35  1  -0.03137409  0.21411082  0.25428916  1
  V  V36  1  -0.02080839  0.61873953  0.64439776  1
  V  V37  1  0.61706011  0.61650049  0.49464607  1
  V  V38  1  0.85664498  0.37847374  0.49717136  1
  V  V39  1  0.25123637  0.75409096  0.51871358  1
  V  V40  1  0.88143434  0.38963691  0.00320583  1
  V  V41  1  0.27634565  0.74165990  0.00596635  1
  V  V42  1  0.73873262  0.49455453  0.24224013  1
  V  V43  1  0.24971869  0.37818375  0.13375655  1
  V  V44  1  0.50195189  0.64166791  0.12264854  1
  V  V45  1  0.87150362  0.62473700  0.21396402  1
  V  V46  1  0.10171841  0.62374672  0.49304385  1
  V  V47  1  0.73128914  -0.01639695  0.74624193  1
  V  V48  1  0.01559828  -0.01419691  0.00338220  1
  V  V49  1  0.87697706  -0.01493566  0.38726372  1
  V  V50  1  0.63568523  0.10816371  0.50225781  1
  V  V51  1  0.23778869  0.50773794  0.26318516  1
  V  V52  1  0.13628981  0.03101754  0.13123768  1
  V  V53  1  0.00059001  0.10530694  0.61279292  1
  V  V54  1  0.85834474  0.24522950  0.61455559  1
  V  V55  1  0.62942120  0.86679647  0.24332177  1
  V  V56  1  0.86883346  0.76120127  0.61652842  1
  V  V57  1  0.25827170  0.01874148  0.28491885  1
  V  V58  1  0.87027520  0.11003020  0.74488164  1
  V  V59  1  0.75526244  0.49864902  0.74939497  1
  V  V60  1  0.23698872  0.64197247  0.37859875  1
  V  V61  1  0.37229533  0.23815880  0.14592831  1
  V  V62  1  0.73983927  0.36302727  0.11638483  1
  V  V63  1  0.11413002  0.37198448  0.26785237  1
  Zn  Zn64  1  0.18763534  0.19373285  0.20551599  1
  Zn  Zn65  1  0.17428520  0.20639480  0.62149186  1
  Zn  Zn66  1  0.18337802  0.69216859  0.18461623  1
  Zn  Zn67  1  0.18599841  0.68293846  0.69602596  1
  Zn  Zn68  1  0.69972852  0.18898768  0.19481247  1
  Zn  Zn69  1  0.68212444  0.17980575  0.69149678  1
  Zn  Zn70  1  0.68116279  0.67861478  0.18919002  1
  Zn  Zn71  1  0.70658796  0.71166571  0.73566559  1
  Zn  Zn72  1  0.31815085  0.32571439  0.31038298  1
  Zn  Zn73  1  0.31520006  0.31600250  0.79685795  1
  Zn  Zn74  1  0.34166256  0.85436377  0.24880457  1
  Zn  Zn75  1  0.33699677  0.78525755  0.83718104  1
  Zn  Zn76  1  0.80991295  0.31207732  0.30316167  1
  Zn  Zn77  1  0.81687803  0.30602635  0.81456877  1
  Zn  Zn78  1  0.83394742  0.82442549  0.28264100  1
  Zn  Zn79  1  0.81496681  0.80563341  0.80658243  1
  Zn  Zn80  1  0.18144136  0.43950861  0.45123554  1
  Zn  Zn81  1  0.19363287  0.45109420  0.95325116  1
  Zn  Zn82  1  0.18339360  0.93500447  0.44340331  1
  Zn  Zn83  1  0.31997602  0.92668050  0.95836308  1
  Zn  Zn84  1  0.68733893  0.42869683  0.41385560  1
  Zn  Zn85  1  0.69719088  0.42385025  0.92616451  1
  Zn  Zn86  1  0.68739816  0.93112124  0.42575248  1
  Zn  Zn87  1  0.67902515  0.94533693  0.92769377  1
  Zn  Zn88  1  0.31061494  0.07698252  0.05117491  1
  Zn  Zn89  1  0.32122372  0.08101810  0.54045306  1
  Zn  Zn90  1  0.29398823  0.58888431  0.08923009  1
  Zn  Zn91  1  0.30283473  0.56234530  0.56393667  1
  Zn  Zn92  1  0.80136796  0.01672468  0.03909134  1
  Zn  Zn93  1  0.81241694  0.04945090  0.56410261  1
  Zn  Zn94  1  0.80512624  0.55039370  0.05882328  1
  Zn  Zn95  1  0.80731929  0.56061620  0.56706688  1
  Zn  Zn96  1  0.41761854  0.46950791  0.18338090  1
  Zn  Zn97  1  0.42655629  0.40508075  0.71251020  1
  Zn  Zn98  1  0.45085115  0.98214759  0.20975484  1
  Zn  Zn99  1  0.45382492  0.94584379  0.70501981  1
  Zn  Zn100  1  0.92376492  0.43492661  0.18672600  1
  Zn  Zn101  1  0.92416238  0.43201993  0.68206232  1
  Zn  Zn102  1  0.96226362  0.99776174  0.21073590  1
  Zn  Zn103  1  0.93774594  0.92992132  0.68747702  1
  Zn  Zn104  1  0.06698115  0.06156017  0.32712872  1
  Zn  Zn105  1  0.02305455  0.11230078  0.84264086  1
  Zn  Zn106  1  0.04562063  0.56917627  0.31225746  1
  Zn  Zn107  1  0.07943566  0.60490906  0.80127542  1
  Zn  Zn108  1  0.57314872  0.06098817  0.31424625  1
  Zn  Zn109  1  0.56717114  0.05651716  0.81745512  1
  Zn  Zn110  1  0.55900536  0.55734491  0.30879834  1
  Zn  Zn111  1  0.56316766  0.55395971  0.80807336  1
  Zn  Zn112  1  0.49655764  0.23273693  0.49146210  1
  Zn  Zn113  1  0.44176263  0.21937838  0.95847098  1
  Zn  Zn114  1  0.42503935  0.69502848  0.43497857  1
  Zn  Zn115  1  0.44791117  0.66827090  0.93521415  1
  Zn  Zn116  1  0.93885539  0.19119732  0.43535285  1
  Zn  Zn117  1  0.97476345  0.27060624  0.93284449  1
  Zn  Zn118  1  0.93724601  0.71475650  0.43073378  1
  Zn  Zn119  1  0.93099057  0.70156692  0.95419841  1
  Zn  Zn120  1  0.06088043  0.30905145  0.08504365  1
  Zn  Zn121  1  0.04841756  0.30884205  0.55632548  1
  Zn  Zn122  1  0.14094756  0.84757785  0.03568795  1
  Zn  Zn123  1  0.05277181  0.79479614  0.55536620  1
  Zn  Zn124  1  0.52992302  0.34939185  0.07675558  1
  Zn  Zn125  1  0.67955930  0.30110104  0.55292794  1
  Zn  Zn126  1  0.49435092  0.85497155  0.10267197  1
  Zn  Zn127  1  0.55431477  0.81718338  0.55860661  1
  O  O128  1  0.12918391  0.13377206  0.12787947  1
  O  O129  1  0.09906868  0.11019811  0.63011091  1
  O  O130  1  0.12223219  0.61479148  0.12260892  1
  O  O131  1  0.09219869  0.61722241  0.61410275  1
  O  O132  1  0.61658803  0.14262559  0.12660302  1
  O  O133  1  0.62385335  0.12015332  0.60887287  1
  O  O134  1  0.60741744  0.62399440  0.11679486  1
  O  O135  1  0.59650004  0.58820327  0.59214981  1
  O  O136  1  0.36216682  0.39282925  0.38366792  1
  O  O137  1  0.40877640  0.35629575  0.85126175  1
  O  O138  1  0.39708769  0.87369384  0.35276803  1
  O  O139  1  0.38794849  0.87498400  0.88076836  1
  O  O140  1  0.87670302  0.36937304  0.38279093  1
  O  O141  1  0.87881829  0.33639691  0.90816570  1
  O  O142  1  0.88467110  0.87897635  0.36883022  1
  O  O143  1  0.86893899  0.87642878  0.87756344  1
  O  O144  1  0.24941178  0.00827232  0.38466825  1
  O  O145  1  0.28605147  0.01895739  0.88322837  1
  O  O146  1  0.24683445  0.50816531  0.37228728  1
  O  O147  1  0.25295033  0.50750089  0.87866158  1
  O  O148  1  0.76342007  0.00076096  0.37017888  1
  O  O149  1  0.74927035  -0.00095959  0.84927615  1
  O  O150  1  0.75418691  0.48403491  0.34473854  1
  O  O151  1  0.74699593  0.51488275  0.87451528  1
  O  O152  1  0.24073143  0.49703418  0.14506924  1
  O  O153  1  0.22089956  0.50158429  0.62423266  1
  O  O154  1  0.23493816  1.01571584  0.11421408  1
  O  O155  1  0.30266955  0.94381860  0.63384014  1
  O  O156  1  0.74598505  0.47915980  0.12690500  1
  O  O157  1  0.75007023  0.50650432  0.64776959  1
  O  O158  1  0.76121811  1.01695241  0.14304938  1
  O  O159  1  0.74924956  0.98063481  0.63131067  1
  O  O160  1  0.00536165  0.38443845  0.26450737  1
  O  O161  1  -0.01191890  0.35422722  0.73692360  1
  O  O162  1  0.02115922  0.89898817  0.25217712  1
  O  O163  1  0.00680951  0.86033577  0.74547027  1
  O  O164  1  0.49783731  0.45140492  0.11433161  1
  O  O165  1  0.52673474  0.38278551  0.76035997  1
  O  O166  1  0.51969194  0.89354276  0.26725248  1
  O  O167  1  0.49095629  0.85496281  0.76908283  1
  O  O168  1  0.50298247  0.10012409  0.22987000  1
  O  O169  1  0.52170030  0.11659157  0.73063501  1
  O  O170  1  0.49032509  0.62972717  0.24459080  1
  O  O171  1  0.49063194  0.62844070  0.75192665  1
  O  O172  1  0.98755375  0.11130897  0.25606665  1
  O  O173  1  0.98091896  0.12314136  0.73017494  1
  O  O174  1  0.96647053  0.62288694  0.25524504  1
  O  O175  1  0.97642893  0.61968108  0.74453444  1
  O  O176  1  0.35237925  0.26085261  0.03002348  1
  O  O177  1  0.39617124  0.27558246  0.52873841  1
  O  O178  1  0.37498314  0.73703101  0.00006190  1
  O  O179  1  0.35027553  0.74297489  0.50123023  1
  O  O180  1  0.87077260  0.20001142  0.06538330  1
  O  O181  1  0.87188885  0.25162700  0.50878010  1
  O  O182  1  0.87968223  0.78430363  0.01207787  1
  O  O183  1  0.87299337  0.75219208  0.51571815  1
  O  O184  1  0.11878989  0.22961578  0.52137879  1
  O  O185  1  0.14293070  0.26139410  1.01185833  1
  O  O186  1  0.13113384  0.72625285  0.50742141  1
  O  O187  1  0.13925183  0.73267563  1.01371658  1
  O  O188  1  0.62026644  0.22860329  0.48831553  1
  O  O189  1  0.66782756  0.22427287  1.00552729  1
  O  O190  1  0.61369760  0.71878990  0.51222667  1
  O  O191  1  0.67434117  0.77158373  1.03177765  1
  O  O192  1  0.48011403  0.24207140  0.12904303  1
  O  O193  1  0.50391115  0.21920376  0.61361532  1
  O  O194  1  0.49387533  0.73800050  0.11747243  1
  O  O195  1  0.48818004  0.76418863  0.63397204  1
  O  O196  1  1.01268758  0.25123130  0.17063048  1
  O  O197  1  0.98047661  0.23488266  0.62509495  1
  O  O198  1  1.00441142  0.74076829  0.14117012  1
  O  O199  1  0.98672433  0.73721596  0.62985628  1
  O  O200  1  -0.01131546  0.25261505  0.35105191  1
  O  O201  1  0.00466261  0.22803001  0.83536469  1
  O  O202  1  -0.00618574  0.77266328  0.35428582  1
  O  O203  1  -0.01688246  0.74759901  0.86080475  1
  O  O204  1  0.50663122  0.23466606  0.37589976  1
  O  O205  1  0.62214005  0.24157016  0.95377485  1
  O  O206  1  0.49880513  0.76410231  0.38342358  1
  O  O207  1  0.50538341  0.76083588  0.89954887  1
  O  O208  1  0.22192758  0.12137442  0.53184571  1
  O  O209  1  0.24038530  0.15600599  1.00094988  1
  O  O210  1  0.24011008  0.63048685  0.48667168  1
  O  O211  1  0.24969849  0.62230343  0.99039285  1
  O  O212  1  0.74182998  0.11249640  0.49063677  1
  O  O213  1  0.77010294  0.09735957  0.97025503  1
  O  O214  1  0.71852771  0.62131714  0.51006352  1
  O  O215  1  0.72438242  0.61519868  0.99433757  1
  O  O216  1  0.24172904  0.37791004  0.02841051  1
  O  O217  1  0.22667619  0.37203275  0.52998761  1
  O  O218  1  0.25344093  0.84731462  0.00657432  1
  O  O219  1  0.22828164  0.85211581  0.50513833  1
  O  O220  1  0.76670881  0.37517533  0.00698384  1
  O  O221  1  0.75334908  0.36646452  0.48929584  1
  O  O222  1  0.76002639  0.90717023  -0.00136377  1
  O  O223  1  0.74229954  0.87424247  0.51224371  1
  O  O224  1  0.12392007  0.50425806  0.24777493  1
  O  O225  1  0.10865032  0.51500506  0.73276509  1
  O  O226  1  0.13531681  1.01247528  0.24120976  1
  O  O227  1  0.12673325  1.00868715  0.77272546  1
  O  O228  1  0.63631591  0.50647040  0.24692346  1
  O  O229  1  0.63946481  0.48640004  0.75713256  1
  O  O230  1  0.64741571  0.99152501  0.25776094  1
  O  O231  1  0.63245969  0.99142352  0.74431826  1
  O  O232  1  0.35580712  0.01073402  0.26458140  1
  O  O233  1  0.39578571  0.02456917  0.76914618  1
  O  O234  1  0.35517147  0.51384095  0.26599588  1
  O  O235  1  0.38998530  0.50953350  0.75390472  1
  O  O236  1  0.86142069  -0.00874023  0.26203962  1
  O  O237  1  0.86749228  0.00744739  0.73536991  1
  O  O238  1  0.86023559  0.51429777  0.23640195  1
  O  O239  1  0.85639686  0.48099086  0.75755766  1
  O  O240  1  0.10648010  0.39059544  0.37255445  1
  O  O241  1  0.10545305  0.39809948  0.87481449  1
  O  O242  1  0.11562149  0.88753930  0.35897439  1
  O  O243  1  0.14862057  0.95137209  0.81089855  1
  O  O244  1  0.62000644  0.34847264  0.38223142  1
  O  O245  1  0.61546425  0.36652894  0.87277731  1
  O  O246  1  0.61733206  0.87122180  0.36255699  1
  O  O247  1  0.59653371  0.88843019  0.87801810  1
  O  O248  1  0.36341955  0.13948289  0.13446623  1
  O  O249  1  0.38928688  0.12790796  0.62235246  1
  O  O250  1  0.39372967  0.60071035  0.14452694  1
  O  O251  1  0.36390599  0.61643585  0.64192354  1
  O  O252  1  0.88853382  0.13501943  0.09119615  1
  O  O253  1  0.87391007  0.12951160  0.62035985  1
  O  O254  1  0.87484678  0.62471913  0.11311277  1
  O  O255  1  0.87951917  0.63317912  0.61485355  1
  O  O256  1  0.25014542  0.27002802  0.14064490  1
  O  O257  1  0.27675684  0.24993529  0.62602238  1
  O  O258  1  0.26535955  0.71171465  0.10803858  1
  O  O259  1  0.24196507  0.73774365  0.61847880  1
  O  O260  1  0.75735376  0.26101272  0.13136974  1
  O  O261  1  0.75530910  0.23855458  0.61774403  1
  O  O262  1  0.72064876  0.76099470  0.08665300  1
  O  O263  1  0.76136997  0.75902306  0.63997896  1
  O  O264  1  0.27405051  0.23329114  0.39923577  1
  O  O265  1  0.25931304  0.28336191  0.89490772  1
  O  O266  1  0.23992811  0.73850794  0.37957970  1
  O  O267  1  0.25640698  0.72951886  0.89495632  1
  O  O268  1  0.75584297  0.23019980  0.37200261  1
  O  O269  1  0.75972314  0.22124901  0.86713262  1
  O  O270  1  0.79223716  0.65550628  0.37474389  1
  O  O271  1  0.74361770  0.72618275  0.85452304  1
  O  O272  1  0.02145739  0.17753233  -0.00307446  1
  O  O273  1  0.00450884  0.12648420  0.50670899  1
  O  O274  1  0.01698231  0.63750666  -0.00542547  1
  O  O275  1  0.00264691  0.63379592  0.48242842  1
  O  O276  1  0.49680340  0.12980270  0.01708893  1
  O  O277  1  0.51535387  0.10776792  0.50414847  1
  O  O278  1  0.50259027  0.61108470  0.01974378  1
  O  O279  1  0.51172284  0.62040965  0.48268716  1
  O  O280  1  0.51262463  0.39768182  0.50461287  1
  O  O281  1  0.50134625  0.31962408  0.96841769  1
  O  O282  1  0.50544523  0.88930010  0.48668084  1
  O  O283  1  0.49294978  0.90097001  0.99541520  1
  O  O284  1  0.98171085  0.36754776  0.48246385  1
  O  O285  1  0.98662965  0.35327495  1.01153037  1
  O  O286  1  1.01588484  0.86783124  0.47750665  1
  O  O287  1  1.04941608  0.89342462  0.98533940  1
  O  O288  1  0.47708298  0.50191741  0.36268540  1
  O  O289  1  0.50124119  0.48284667  0.88645057  1
  O  O290  1  0.50461315  1.00008575  0.38707967  1
  O  O291  1  0.48836596  1.01563673  0.88863427  1
  O  O292  1  0.98360486  0.49147956  0.37850731  1
  O  O293  1  1.04483304  0.43903257  0.86837786  1
  O  O294  1  0.98362897  0.99050497  0.37132263  1
  O  O295  1  0.99691763  1.02838197  0.91392810  1
  O  O296  1  0.01895067  0.01287908  0.11294440  1
  O  O297  1  -0.01643937  0.00703757  0.61597200  1
  O  O298  1  0.01044120  0.49533049  0.13263317  1
  O  O299  1  -0.01164766  0.51392944  0.62496855  1
  O  O300  1  0.49945325  0.02115473  0.10906157  1
  O  O301  1  0.49622310  0.00611833  0.61170249  1
  O  O302  1  0.40831754  0.44504710  0.01523054  1
  O  O303  1  0.49675484  0.43633379  0.56332137  1
  O  O304  1  0.23189521  0.39068503  0.25740489  1
  O  O305  1  0.24175769  0.36545710  0.72221816  1
  O  O306  1  0.23654875  0.90565710  0.25722579  1
  O  O307  1  0.15898373  0.86216803  0.68251124  1
  O  O308  1  0.75563888  0.38121785  0.22974474  1
  O  O309  1  0.74084127  0.38346881  0.77050033  1
  O  O310  1  0.74407056  0.88526059  0.24522731  1
  O  O311  1  0.75061631  0.88041400  0.74129166  1
  O  O312  1  0.24261838  0.11877593  0.26644317  1
  O  O313  1  0.25737595  -0.02992249  0.68743521  1
  O  O314  1  0.24469734  0.62287742  0.26270307  1
  O  O315  1  0.26083264  0.62815660  0.76873699  1
  O  O316  1  0.74775216  0.11071649  0.26862084  1
  O  O317  1  0.75492215  0.10634013  0.74374495  1
  O  O318  1  0.75561175  0.60540072  0.22644232  1
  O  O319  1  0.74929342  0.60893858  0.76942698  1
  O  O320  1  0.31919271  0.17634096  0.40407493  1
  O  O321  1  0.38981291  0.15534955  0.87734099  1
  O  O322  1  0.36029115  0.62553854  0.36353769  1
  O  O323  1  0.36882772  0.61401610  0.87464550  1
  O  O324  1  0.86444427  0.11077470  0.38587254  1
  O  O325  1  0.87048570  0.11974187  0.84365158  1
  O  O326  1  0.84991672  0.62552072  0.40920199  1
  O  O327  1  0.85789867  0.62781505  0.90434518  1
  O  O328  1  0.12948748  0.38992743  0.14779879  1
  O  O329  1  0.09379124  0.39994743  0.61700325  1
  O  O330  1  0.12973363  0.90388577  0.13528002  1
  O  O331  1  0.11894371  0.88588161  0.62618219  1
  O  O332  1  0.64087605  0.35604273  0.10480975  1
  O  O333  1  0.63861806  0.36728304  0.63806228  1
  O  O334  1  0.60202616  0.87898998  0.14608560  1
  O  O335  1  0.63611048  0.86094621  0.62335837  1
  O  O336  1  0.13386382  0.27547248  0.26755948  1
  O  O337  1  0.10790472  0.24893243  0.71216232  1
  O  O338  1  0.13612220  0.78010707  0.23432942  1
  O  O339  1  0.09473636  0.71632666  0.75310075  1
  O  O340  1  0.62665117  0.23658433  0.26866229  1
  O  O341  1  0.63757206  0.26219339  0.75283411  1
  O  O342  1  0.63953260  0.76504245  0.24504620  1
  O  O343  1  0.59826025  0.73442491  0.74610182  1
  O  O344  1  0.36657352  0.25045837  0.24587482  1
  O  O345  1  0.39810381  0.28756611  0.71079096  1
  O  O346  1  0.36383911  0.73347885  0.24504673  1
  O  O347  1  0.39165097  0.72813736  0.75959920  1
  O  O348  1  0.87066052  0.23340035  0.24393883  1
  O  O349  1  0.86941470  0.23779415  0.72755771  1
  O  O350  1  0.84543769  0.72356916  0.24213920  1
  O  O351  1  0.88856744  0.75218594  0.73468531  1
  O  O352  1  0.36751700  0.51942096  0.48129140  1
  O  O353  1  0.36911402  0.50364618  0.99729913  1
  O  O354  1  0.38759911  1.00641922  0.49319768  1
  O  O355  1  0.38516780  1.01920008  0.98922737  1
  O  O356  1  0.85868156  0.47716744  0.50816328  1
  O  O357  1  0.88252194  0.48811367  0.99370088  1
  O  O358  1  0.86943869  0.98781347  0.48618987  1
  O  O359  1  0.90666320  0.95803719  1.02501796  1
  O  O360  1  0.11643081  0.03884407  0.01357356  1
  O  O361  1  0.11674629  0.01654004  0.49093456  1
  O  O362  1  0.12517101  0.51108384  0.02187589  1
  O  O363  1  0.11881546  0.51960134  0.50940653  1
  O  O364  1  0.60705941  0.01180408  -0.00780571  1
  O  O365  1  0.62349376  0.00683458  0.49280703  1
  O  O366  1  0.62389830  0.48969863  0.00086310  1
  O  O367  1  0.62675242  0.51458592  0.47180303  1
  O  O368  1  0.35012543  0.37777450  0.15042857  1
  O  O369  1  0.35648657  0.41970994  0.62073587  1
  O  O370  1  0.40320985  0.88892539  0.15958199  1
  O  O371  1  0.35680873  0.88819690  0.65437194  1
  O  O372  1  0.86940701  0.37186009  0.10914695  1
  O  O373  1  0.87123372  0.35660703  0.60752265  1
  O  O374  1  0.96522320  0.79966947  0.15351835  1
  O  O375  1  0.86951564  0.86390512  0.62146380  1
  O  O376  1  0.12422609  0.13670234  0.38818084  1
  O  O377  1  0.12815669  0.13848565  0.89114292  1
  O  O378  1  0.12777139  0.62030819  0.38178287  1
  O  O379  1  0.13874155  0.61511801  0.89521789  1
  O  O380  1  0.63873505  0.12640865  0.38528620  1
  O  O381  1  0.64579329  0.11728390  0.86785406  1
  O  O382  1  0.61939340  0.62873420  0.38890661  1
  O  O383  1  0.60529851  0.61444795  0.90131060  1
