# generated using pymatgen
data_VZnO4
_symmetry_space_group_name_H-M   'P 1'
_cell_length_a   16.83402044
_cell_length_b   16.93614548
_cell_length_c   16.91967253
_cell_angle_alpha   90.24077511
_cell_angle_beta   90.15433139
_cell_angle_gamma   90.16576191
_symmetry_Int_Tables_number   1
_chemical_formula_structural   VZnO4
_chemical_formula_sum   'V64 Zn64 O256'
_cell_volume   4823.77604997
_cell_formula_units_Z   64
loop_
 _symmetry_equiv_pos_site_id
 _symmetry_equiv_pos_as_xyz
  1  'x, y, z'
loop_
 _atom_site_type_symbol
 _atom_site_label
 _atom_site_symmetry_multiplicity
 _atom_site_fract_x
 _atom_site_fract_y
 _atom_site_fract_z
 _atom_site_occupancy
  V  V0  1  0.01564054  0.24275273  0.73533968  1
  V  V1  1  0.24381461  0.36107724  0.14130600  1
  V  V2  1  0.24175501  0.13095874  0.37828909  1
  V  V3  1  0.25244686  0.71354570  0.00248203  1
  V  V4  1  0.77874928  0.49259696  0.24797889  1
  V  V5  1  0.87111489  -0.00121279  0.84835905  1
  V  V6  1  0.37521887  0.71384969  0.12676333  1
  V  V7  1  0.49823340  0.75337724  0.75397837  1
  V  V8  1  0.01098586  0.63379314  0.63418279  1
  V  V9  1  0.12430958  0.88132405  0.75960957  1
  V  V10  1  0.51164139  0.37206272  0.38549477  1
  V  V11  1  0.01368256  0.37453858  0.85722750  1
  V  V12  1  0.86744592  0.50650518  0.84775153  1
  V  V13  1  0.11160688  0.12271541  -0.00783199  1
  V  V14  1  0.74095297  0.85326530  0.12235571  1
  V  V15  1  0.61827090  0.37783084  0.23213400  1
  V  V16  1  0.63324078  0.75135777  0.88755662  1
  V  V17  1  0.37043720  0.36297700  -0.01166686  1
  V  V18  1  0.49639048  0.72746179  0.24915709  1
  V  V19  1  0.39250636  0.13141755  0.25804999  1
  V  V20  1  0.74109298  0.87313656  0.62016039  1
  V  V21  1  0.86627573  0.12623136  0.23882970  1
  V  V22  1  0.37859052  0.23535967  0.62803598  1
  V  V23  1  0.38867498  0.24823233  0.13494449  1
  V  V24  1  0.73260174  -0.00180960  0.25810357  1
  V  V25  1  0.24387705  0.49755111  0.75199545  1
  V  V26  1  0.38251776  0.50620095  0.35537750  1
  V  V27  1  0.12980480  0.49620036  0.11991796  1
  V  V28  1  0.13306852  0.72918872  0.87693644  1
  V  V29  1  0.23642848  0.61506227  0.37165664  1
  V  V30  1  0.12741246  0.49557865  0.60966856  1
  V  V31  1  0.37640391  0.52364402  0.87663972  1
  V  V32  1  0.37051779  0.63796348  0.72891625  1
  V  V33  1  0.61545629  0.86077435  0.26147205  1
  V  V34  1  0.74966656  0.62702374  0.36527525  1
  V  V35  1  0.63154758  0.13939444  0.02985235  1
  V  V36  1  0.85912546  0.24627625  0.63473027  1
  V  V37  1  0.38104906  -0.00100298  0.37892340  1
  V  V38  1  0.23788595  0.25385467  0.50341453  1
  V  V39  1  -0.01060995  0.48673905  -0.00383392  1
  V  V40  1  0.50164555  0.49985530  0.01075582  1
  V  V41  1  0.89148791  0.64944828  0.24718228  1
  V  V42  1  0.87737972  0.00622175  0.38095896  1
  V  V43  1  0.87461801  0.85515694  0.00194117  1
  V  V44  1  0.14098991  0.77881182  0.35644871  1
  V  V45  1  0.00057661  0.01476848  0.51154071  1
  V  V46  1  0.88545617  0.86348985  0.49709070  1
  V  V47  1  0.60511172  0.37603675  0.74255649  1
  V  V48  1  0.50399993  -0.00715942  0.52070630  1
  V  V49  1  0.00331965  0.63657239  0.11141992  1
  V  V50  1  0.63433592  0.61918743  0.00741264  1
  V  V51  1  0.74300535  0.74142459  0.49160064  1
  V  V52  1  0.47243396  0.87426777  0.89970590  1
  V  V53  1  0.36830222  0.86448504  0.50062967  1
  V  V54  1  0.13174581  0.01620144  0.62388882  1
  V  V55  1  0.77357052  0.25542865  -0.00285542  1
  V  V56  1  0.24788631  0.85748189  0.62452138  1
  V  V57  1  0.78945249  0.38133486  0.11353535  1
  V  V58  1  0.37628909  0.39024931  0.51198471  1
  V  V59  1  0.87875822  0.37259899  0.50312195  1
  V  V60  1  0.61158314  0.51140769  0.62172251  1
  V  V61  1  0.01580864  0.24548117  0.24684656  1
  V  V62  1  0.74448954  0.12526308  0.85751622  1
  V  V63  1  0.60943008  0.13822556  0.49595782  1
  Zn  Zn64  1  0.20053213  0.17732829  0.19474464  1
  Zn  Zn65  1  0.19981204  0.31740734  0.68787444  1
  Zn  Zn66  1  0.18981759  0.68938586  0.19310523  1
  Zn  Zn67  1  0.18391786  0.68516891  0.69300705  1
  Zn  Zn68  1  0.71276931  0.21082956  0.20022593  1
  Zn  Zn69  1  0.67434758  0.19619530  0.68309604  1
  Zn  Zn70  1  0.68384350  0.67625669  0.18947573  1
  Zn  Zn71  1  0.68289741  0.73649602  0.68636537  1
  Zn  Zn72  1  0.31822412  0.31474805  0.32181714  1
  Zn  Zn73  1  0.42128056  0.31242031  0.79794961  1
  Zn  Zn74  1  0.34566861  0.78027580  0.33854123  1
  Zn  Zn75  1  0.30607606  0.81311108  0.81676792  1
  Zn  Zn76  1  0.86315128  0.32527097  0.29900352  1
  Zn  Zn77  1  0.82375316  0.31707947  0.81689134  1
  Zn  Zn78  1  0.81560204  0.81875542  0.31459030  1
  Zn  Zn79  1  0.79060065  0.83361996  0.82421683  1
  Zn  Zn80  1  0.20899932  0.44951183  0.44604648  1
  Zn  Zn81  1  0.19275979  0.43822182  0.93856953  1
  Zn  Zn82  1  0.19152959  0.94875505  0.44058427  1
  Zn  Zn83  1  0.21655697  0.95272712  0.93525321  1
  Zn  Zn84  1  0.70621474  0.44991758  0.44215564  1
  Zn  Zn85  1  0.69880397  0.44792238  0.93958498  1
  Zn  Zn86  1  0.68523303  0.92913638  0.43913938  1
  Zn  Zn87  1  0.68461652  0.94495430  0.94604731  1
  Zn  Zn88  1  0.29983753  0.06891495  0.07473823  1
  Zn  Zn89  1  0.31011997  0.06471920  0.56011218  1
  Zn  Zn90  1  0.31281927  0.54250982  0.06813492  1
  Zn  Zn91  1  0.30305964  0.57252106  0.55752342  1
  Zn  Zn92  1  0.76888768  0.05206927  0.07026465  1
  Zn  Zn93  1  0.81360746  0.05386866  0.58323485  1
  Zn  Zn94  1  0.82008616  0.56897461  0.06336768  1
  Zn  Zn95  1  0.79730132  0.55529218  0.56078681  1
  Zn  Zn96  1  0.43853746  0.42905165  0.18868881  1
  Zn  Zn97  1  0.44252906  0.46000039  0.68684340  1
  Zn  Zn98  1  0.43083699  0.93451247  0.20907012  1
  Zn  Zn99  1  0.45395966  0.90096007  0.67747636  1
  Zn  Zn100  1  0.97155822  0.44024080  0.20015126  1
  Zn  Zn101  1  0.94009862  0.43698074  0.67950843  1
  Zn  Zn102  1  0.89677306  0.95000986  0.17018806  1
  Zn  Zn103  1  0.93968857  0.92054953  0.68198144  1
  Zn  Zn104  1  0.03159701  0.10974341  0.34959148  1
  Zn  Zn105  1  0.05467637  0.05561313  0.80310038  1
  Zn  Zn106  1  0.08651951  0.57265654  0.27813509  1
  Zn  Zn107  1  0.05165095  0.56265251  0.80702920  1
  Zn  Zn108  1  0.56521721  0.06133158  0.32266860  1
  Zn  Zn109  1  0.55518265  0.06532685  0.89450710  1
  Zn  Zn110  1  0.57180097  0.54493301  0.30805930  1
  Zn  Zn111  1  0.56281692  0.56723480  0.81403629  1
  Zn  Zn112  1  0.43868080  0.19386846  0.44897713  1
  Zn  Zn113  1  0.45476708  0.19797516  0.96023979  1
  Zn  Zn114  1  0.44937833  0.67495265  0.44073172  1
  Zn  Zn115  1  0.44852925  0.69042425  0.94736910  1
  Zn  Zn116  1  0.92373560  0.19734931  0.44286813  1
  Zn  Zn117  1  0.92832254  0.19077591  0.90782078  1
  Zn  Zn118  1  0.94355426  0.67679974  0.43729526  1
  Zn  Zn119  1  0.94635816  0.68326329  0.92741157  1
  Zn  Zn120  1  0.05005215  0.31281170  0.06608917  1
  Zn  Zn121  1  0.05216395  0.32364781  0.56027765  1
  Zn  Zn122  1  0.05480738  0.80287278  0.01975984  1
  Zn  Zn123  1  0.06595063  0.81705300  0.56008456  1
  Zn  Zn124  1  0.56535010  0.31629270  0.05183675  1
  Zn  Zn125  1  0.55548045  0.32092761  0.57193602  1
  Zn  Zn126  1  0.56021448  0.80409769  0.06987127  1
  Zn  Zn127  1  0.55184163  0.78966161  0.54602999  1
  O  O128  1  0.08531900  0.10531016  0.08946125  1
  O  O129  1  0.12830247  0.11120228  0.62568698  1
  O  O130  1  0.11593894  0.60599432  0.13699034  1
  O  O131  1  0.11874097  0.61803763  0.62509749  1
  O  O132  1  0.63548843  0.15067368  0.12942211  1
  O  O133  1  0.64712869  0.10966575  0.60384191  1
  O  O134  1  0.62341489  0.62202423  0.10873628  1
  O  O135  1  0.65824555  0.61645104  0.64400697  1
  O  O136  1  0.38720052  0.38905635  0.37972598  1
  O  O137  1  0.36729271  0.35926208  0.88866037  1
  O  O138  1  0.35963669  0.89286023  0.38439101  1
  O  O139  1  0.36982254  0.87517409  0.89095185  1
  O  O140  1  0.84877528  0.35660958  0.40440228  1
  O  O141  1  0.89378417  0.39636519  0.86457637  1
  O  O142  1  0.87293870  0.88912373  0.38784215  1
  O  O143  1  0.85110060  0.89670300  0.89519009  1
  O  O144  1  0.26904323  0.02387250  0.39565766  1
  O  O145  1  0.29469971  0.02097809  0.97415019  1
  O  O146  1  0.26527248  0.50644728  0.36733086  1
  O  O147  1  0.26806110  0.49525354  0.86644580  1
  O  O148  1  0.75670571  -0.01432536  0.36332390  1
  O  O149  1  0.75309564  0.01598302  0.87793845  1
  O  O150  1  0.76503964  0.51176612  0.35547334  1
  O  O151  1  0.76887965  0.50320864  0.87075733  1
  O  O152  1  0.23506965  0.48652166  0.13069490  1
  O  O153  1  0.23679958  0.51406781  0.63681006  1
  O  O154  1  0.21339500  1.07438002  0.14612830  1
  O  O155  1  0.23499575  0.99583756  0.61406536  1
  O  O156  1  0.76400516  0.48991287  0.13304089  1
  O  O157  1  0.72264078  0.56299475  0.65422521  1
  O  O158  1  0.76461584  0.97374144  0.15511118  1
  O  O159  1  0.74342500  0.97278095  0.62219973  1
  O  O160  1  -0.02770946  0.34482097  0.26319892  1
  O  O161  1  0.01210460  0.37935934  0.75437334  1
  O  O162  1  0.02274789  0.91145667  0.17943771  1
  O  O163  1  0.02374860  0.87147311  0.74742919  1
  O  O164  1  0.51602011  0.38001400  0.26155717  1
  O  O165  1  0.49892037  0.38518105  0.75727726  1
  O  O166  1  0.51097369  0.86568957  0.24100433  1
  O  O167  1  0.48437421  0.86007295  0.77825054  1
  O  O168  1  0.49228972  0.12155010  0.25533210  1
  O  O169  1  0.47074657  0.16064163  0.77880196  1
  O  O170  1  0.51050856  0.62949368  0.25087970  1
  O  O171  1  0.48139571  0.64103801  0.75758104  1
  O  O172  1  0.97346417  0.13355089  0.24240544  1
  O  O173  1  1.00619944  0.14397625  0.75367197  1
  O  O174  1  0.99559958  0.62895957  0.23329338  1
  O  O175  1  0.99768615  0.63164161  0.73450742  1
  O  O176  1  0.37453073  0.25529141  0.01318337  1
  O  O177  1  0.37112672  0.26334642  0.51308960  1
  O  O178  1  0.36520497  0.73600079  0.01761510  1
  O  O179  1  0.37215871  0.76788918  0.48071041  1
  O  O180  1  0.87346851  0.24894183  -0.00585309  1
  O  O181  1  0.87096483  0.26116773  0.51879953  1
  O  O182  1  0.87320389  0.75802391  -0.02157768  1
  O  O183  1  0.87809977  0.76191762  0.48319923  1
  O  O184  1  0.13839919  0.26850424  0.50255249  1
  O  O185  1  0.10500567  0.22776498  0.99943648  1
  O  O186  1  0.10212655  0.74920722  0.46366941  1
  O  O187  1  0.14779713  0.73720778  0.99737647  1
  O  O188  1  0.60471007  0.23739773  0.50902319  1
  O  O189  1  0.63808697  0.24540704  1.00169829  1
  O  O190  1  0.64567340  0.74869012  0.47780162  1
  O  O191  1  0.62074678  0.73178853  0.99776681  1
  O  O192  1  0.48707349  0.25446687  0.12219498  1
  O  O193  1  0.47896852  0.25386421  0.62608089  1
  O  O194  1  0.48241902  0.74085168  0.13211818  1
  O  O195  1  0.50111021  0.77658865  0.65574316  1
  O  O196  1  0.99561224  0.25260249  0.14481163  1
  O  O197  1  0.99521716  0.25490063  0.63251449  1
  O  O198  1  1.01878839  0.73410984  0.10776468  1
  O  O199  1  1.01033584  0.73304294  0.61290003  1
  O  O200  1  -0.00416706  0.22173608  0.35812418  1
  O  O201  1  -0.00708953  0.26850888  0.85510697  1
  O  O202  1  0.03862788  0.74804863  0.40510141  1
  O  O203  1  0.03490619  0.75713940  0.90198199  1
  O  O204  1  0.49699136  0.27233461  0.38149788  1
  O  O205  1  0.47594766  0.21994335  0.84794254  1
  O  O206  1  0.46637871  0.74857491  0.34665905  1
  O  O207  1  0.50152268  0.76096938  0.87685767  1
  O  O208  1  0.25304962  0.14395866  0.49227320  1
  O  O209  1  0.21349379  0.14378454  1.00211713  1
  O  O210  1  0.25599831  0.62848759  0.47342450  1
  O  O211  1  0.25130109  0.61498911  0.99858843  1
  O  O212  1  0.70966458  0.11416579  0.54442619  1
  O  O213  1  0.75047983  0.15107299  1.01129477  1
  O  O214  1  0.76563799  0.62969807  0.47428500  1
  O  O215  1  0.73432810  0.60753152  0.99921204  1
  O  O216  1  0.26824179  0.38140265  0.01224126  1
  O  O217  1  0.26821518  0.36401528  0.48916159  1
  O  O218  1  0.21150928  0.88054693  0.03389182  1
  O  O219  1  0.25771716  0.87969152  0.51066660  1
  O  O220  1  0.75670463  0.37137037  0.00623827  1
  O  O221  1  0.71369002  0.27675787  0.40463414  1
  O  O222  1  0.75030382  0.87777683  0.01927214  1
  O  O223  1  0.75909903  0.85953965  0.49936446  1
  O  O224  1  0.08878945  0.47483913  0.22035089  1
  O  O225  1  0.14349902  0.50783007  0.75848879  1
  O  O226  1  0.07606486  0.94507304  0.21821922  1
  O  O227  1  0.12231270  0.99231729  0.73407048  1
  O  O228  1  0.65354183  0.47770595  0.25510087  1
  O  O229  1  0.61053903  0.49317018  0.74083699  1
  O  O230  1  0.62782459  0.98383116  0.25719805  1
  O  O231  1  0.52609310  1.10933193  0.77740915  1
  O  O232  1  0.37575360  0.01463626  0.26772616  1
  O  O233  1  0.35409517  -0.00665819  0.75581683  1
  O  O234  1  0.37852191  0.49893470  0.25591638  1
  O  O235  1  0.37212413  0.52182739  0.75914922  1
  O  O236  1  0.87256502  0.00767962  0.26596671  1
  O  O237  1  0.86298926  -0.02347488  0.75054029  1
  O  O238  1  0.88042776  0.50671734  0.24532969  1
  O  O239  1  0.87354144  0.50317436  0.74583353  1
  O  O240  1  0.12187129  0.37603114  0.37295087  1
  O  O241  1  0.11390910  0.37779181  0.87941500  1
  O  O242  1  0.14760428  0.87880312  0.36109131  1
  O  O243  1  0.15122242  0.90004584  0.85904651  1
  O  O244  1  0.61289038  0.39139596  0.39488430  1
  O  O245  1  0.65473812  0.37512541  0.84752547  1
  O  O246  1  0.62312480  0.86611787  0.36031019  1
  O  O247  1  0.62506375  0.85661716  0.89651776  1
  O  O248  1  0.37065974  0.13764594  0.14119467  1
  O  O249  1  0.37051282  0.13454361  0.62731972  1
  O  O250  1  0.37513982  0.61551872  0.13297799  1
  O  O251  1  0.37327424  0.63167515  0.62997863  1
  O  O252  1  0.84924966  0.11654926  0.14186253  1
  O  O253  1  0.86595320  0.14382479  0.62385692  1
  O  O254  1  0.89290277  0.62884727  0.13079614  1
  O  O255  1  0.90523911  0.60765627  0.58639982  1
  O  O256  1  0.25832446  0.25728709  0.12890560  1
  O  O257  1  0.25785469  0.25629433  0.60776322  1
  O  O258  1  0.26071830  0.73373764  0.11350876  1
  O  O259  1  0.23941278  0.75873305  0.61958521  1
  O  O260  1  0.76486426  0.27501844  0.11375722  1
  O  O261  1  0.75917931  0.26125475  0.63929460  1
  O  O262  1  0.74647140  0.75396642  0.13042374  1
  O  O263  1  0.75719202  0.73668445  0.59417305  1
  O  O264  1  0.25712361  0.24224779  0.38818252  1
  O  O265  1  0.29022441  0.15809408  0.81721080  1
  O  O266  1  0.24027407  0.74246713  0.37000881  1
  O  O267  1  0.24646556  0.75160867  0.89713450  1
  O  O268  1  0.75349910  0.21873794  0.41908176  1
  O  O269  1  0.76419289  0.23910095  0.88536090  1
  O  O270  1  0.76138322  0.73417490  0.37189545  1
  O  O271  1  0.73241792  0.74612689  0.87117198  1
  O  O272  1  0.00875640  0.12764899  -0.03192265  1
  O  O273  1  -0.00800689  0.11339047  0.50209617  1
  O  O274  1  0.00205713  0.61268844  0.00880874  1
  O  O275  1  -0.03545163  0.60037435  0.52434564  1
  O  O276  1  0.52708250  0.12340674  -0.00398865  1
  O  O277  1  0.50420167  0.10830493  0.50683788  1
  O  O278  1  0.49990361  0.60425874  0.00370631  1
  O  O279  1  0.52140548  0.68188787  0.52221165  1
  O  O280  1  0.48695282  0.38059630  0.49428828  1
  O  O281  1  0.48351423  0.38138866  0.99893286  1
  O  O282  1  0.48055016  0.88127696  0.50715941  1
  O  O283  1  0.48989834  0.85874412  0.99903507  1
  O  O284  1  0.97889005  0.39152807  0.49851348  1
  O  O285  1  0.99971812  0.38276343  0.99047939  1
  O  O286  1  0.98787590  0.88560576  0.50337558  1
  O  O287  1  0.97350846  0.87848486  1.00438615  1
  O  O288  1  0.49137630  0.49290677  0.37179363  1
  O  O289  1  0.47878832  0.50134750  0.87869285  1
  O  O290  1  0.48507140  0.99876950  0.38419446  1
  O  O291  1  0.50197173  0.97182860  0.88616326  1
  O  O292  1  1.05783425  0.41125360  0.36945723  1
  O  O293  1  1.00331594  0.49206941  0.88335475  1
  O  O294  1  0.98549776  1.00695151  0.38824663  1
  O  O295  1  0.97160851  1.00069810  0.86169552  1
  O  O296  1  -0.07166045  0.01155969  0.06743110  1
  O  O297  1  0.00375566  -0.00226215  0.61609174  1
  O  O298  1  0.00380718  0.50166066  0.10461950  1
  O  O299  1  0.02367359  0.50829196  0.63596048  1
  O  O300  1  0.47851313  -0.01711191  0.10665178  1
  O  O301  1  0.49860763  -0.01030931  0.62100452  1
  O  O302  1  0.49394620  0.49124248  0.10983928  1
  O  O303  1  0.51135351  0.52412941  0.61884754  1
  O  O304  1  0.25135952  0.36796922  0.24108098  1
  O  O305  1  0.25944152  0.39931970  0.74228243  1
  O  O306  1  0.26139649  0.89794234  0.19534554  1
  O  O307  1  0.24674656  0.87308187  0.73209821  1
  O  O308  1  0.78001209  0.38623752  0.23376763  1
  O  O309  1  0.71433379  0.37490581  0.78713145  1
  O  O310  1  0.73409975  0.86871432  0.24678956  1
  O  O311  1  0.75209235  0.83587563  0.71915663  1
  O  O312  1  0.27293678  0.13575059  0.27545087  1
  O  O313  1  0.24706481  0.13055308  0.76541626  1
  O  O314  1  0.25153916  0.62892653  0.26862664  1
  O  O315  1  0.26569686  0.62317386  0.74978438  1
  O  O316  1  0.74049569  0.09981202  0.25134887  1
  O  O317  1  0.73073604  0.13066318  0.75962508  1
  O  O318  1  0.77096434  0.61801925  0.24718322  1
  O  O319  1  0.82522820  0.67619782  0.73349128  1
  O  O320  1  0.38217120  0.12297750  0.37199537  1
  O  O321  1  0.38130095  0.03680970  0.80742276  1
  O  O322  1  0.38198772  0.60827837  0.37792060  1
  O  O323  1  0.37222680  0.62205283  0.88410432  1
  O  O324  1  0.86213532  0.10798787  0.37901452  1
  O  O325  1  0.85982471  0.10989385  0.86659548  1
  O  O326  1  0.88412979  0.62802552  0.35114750  1
  O  O327  1  0.89584868  0.60454799  0.86774835  1
  O  O328  1  0.13945557  0.37211534  0.11507622  1
  O  O329  1  0.12902731  0.39127453  0.62330964  1
  O  O330  1  0.14787435  0.88235053  0.07433725  1
  O  O331  1  0.13574657  0.87804775  0.63088971  1
  O  O332  1  0.62308740  0.37629950  0.13172217  1
  O  O333  1  0.61894447  0.39719914  0.63434884  1
  O  O334  1  0.63432260  0.86695503  0.13502011  1
  O  O335  1  0.64163619  0.84567334  0.60787291  1
  O  O336  1  0.11656225  0.23580672  0.24522986  1
  O  O337  1  0.11646743  0.25820516  0.73923220  1
  O  O338  1  0.12075610  0.75450341  0.25941973  1
  O  O339  1  0.14116648  0.76393703  0.77325429  1
  O  O340  1  0.65582235  0.28852230  0.26253414  1
  O  O341  1  0.60613888  0.27515373  0.72667507  1
  O  O342  1  0.60766171  0.75077271  0.24585645  1
  O  O343  1  0.60673071  0.74032796  0.77153207  1
  O  O344  1  0.38259234  0.24396820  0.24567685  1
  O  O345  1  0.35155638  0.26585531  0.72343796  1
  O  O346  1  0.37690906  0.75404027  0.22759072  1
  O  O347  1  0.37657603  0.74146350  0.75646484  1
  O  O348  1  0.83159807  0.22135944  0.26078711  1
  O  O349  1  0.88839782  0.26179214  0.73834411  1
  O  O350  1  0.88288240  0.74848577  0.24834313  1
  O  O351  1  0.87056374  0.72760245  0.75892190  1
  O  O352  1  0.36453666  0.49125228  0.49448830  1
  O  O353  1  0.38083405  0.48901629  0.98919569  1
  O  O354  1  0.38579818  0.99679081  0.49644111  1
  O  O355  1  0.43260100  1.01146218  1.05534051  1
  O  O356  1  0.80434882  0.45351211  0.51118293  1
  O  O357  1  0.88840879  0.50219549  0.99324545  1
  O  O358  1  0.87857172  0.99624251  0.49652272  1
  O  O359  1  0.87084293  0.99816747  1.01632805  1
  O  O360  1  0.12557701  0.01761663  -0.01104577  1
  O  O361  1  0.10808797  -0.00336352  0.50838780  1
  O  O362  1  0.11815252  0.49353901  0.01374741  1
  O  O363  1  0.13100407  0.50071574  0.50964894  1
  O  O364  1  0.65855950  0.03254571  0.02125188  1
  O  O365  1  0.60390502  -0.01186772  0.49554461  1
  O  O366  1  0.60898123  0.50213246  -0.01157832  1
  O  O367  1  0.64327529  0.50445533  0.52511836  1
  O  O368  1  0.36568437  0.36117996  0.12688410  1
  O  O369  1  0.38080936  0.39119420  0.61306312  1
  O  O370  1  0.31880645  0.91038656  0.14952831  1
  O  O371  1  0.36002880  0.87330489  0.61318329  1
  O  O372  1  0.88684573  0.38362569  0.11388695  1
  O  O373  1  0.87689697  0.36562040  0.61610918  1
  O  O374  1  0.86151934  0.85849613  0.11292149  1
  O  O375  1  0.86475634  0.87207393  0.60385232  1
  O  O376  1  0.14387951  0.11474655  0.36700766  1
  O  O377  1  0.12149734  0.11265158  0.88591284  1
  O  O378  1  0.13268776  0.60658194  0.37304034  1
  O  O379  1  0.12817965  0.63192465  0.86587489  1
  O  O380  1  0.62638046  0.12128647  0.39710410  1
  O  O381  1  0.64709835  0.13073056  0.89440380  1
  O  O382  1  0.65052946  0.61915616  0.35550475  1
  O  O383  1  0.61152649  0.63632407  0.89175513  1
