# generated using pymatgen
data_VZnO4
_symmetry_space_group_name_H-M   'P 1'
_cell_length_a   16.85840100
_cell_length_b   16.86529463
_cell_length_c   16.85513069
_cell_angle_alpha   90.11753785
_cell_angle_beta   89.85713081
_cell_angle_gamma   89.98172181
_symmetry_Int_Tables_number   1
_chemical_formula_structural   VZnO4
_chemical_formula_sum   'V64 Zn64 O256'
_cell_volume   4792.25754558
_cell_formula_units_Z   64
loop_
 _symmetry_equiv_pos_site_id
 _symmetry_equiv_pos_as_xyz
  1  'x, y, z'
loop_
 _atom_site_type_symbol
 _atom_site_label
 _atom_site_symmetry_multiplicity
 _atom_site_fract_x
 _atom_site_fract_y
 _atom_site_fract_z
 _atom_site_occupancy
  V  V0  1  0.75490634  0.49541956  0.75208267  1
  V  V1  1  0.61404092  0.61900318  0.01481680  1
  V  V2  1  0.26234584  0.12201082  0.86856633  1
  V  V3  1  0.87957402  0.12935388  0.74540239  1
  V  V4  1  0.61584375  0.74936111  0.87539584  1
  V  V5  1  0.49530218  0.14504250  0.12463418  1
  V  V6  1  0.62044271  0.62785897  0.50492211  1
  V  V7  1  0.25797084  -0.00034336  0.74628321  1
  V  V8  1  0.87399746  -0.00477284  0.88368767  1
  V  V9  1  0.12315705  0.87043845  0.73432422  1
  V  V10  1  0.14010693  0.73606468  0.36209341  1
  V  V11  1  0.38221233  0.62729572  0.74692873  1
  V  V12  1  0.61652498  0.86984793  0.74111876  1
  V  V13  1  0.25802041  0.62205818  0.88204713  1
  V  V14  1  0.74350130  0.36360590  0.62717035  1
  V  V15  1  -0.00553268  0.87165325  0.88318912  1
  V  V16  1  0.11401299  0.10948670  -0.00595409  1
  V  V17  1  0.12723032  0.49001910  0.11450951  1
  V  V18  1  0.37605352  0.61967075  0.26202492  1
  V  V19  1  -0.00020549  0.11458767  0.12418622  1
  V  V20  1  0.74700991  -0.00223720  0.74752267  1
  V  V21  1  0.50973076  0.22966706  0.75272041  1
  V  V22  1  0.00314861  0.62211049  0.62992721  1
  V  V23  1  0.37201640  0.86720096  0.49501498  1
  V  V24  1  0.39308447  0.00942618  0.36911409  1
  V  V25  1  0.49187740  0.49781499  0.48568616  1
  V  V26  1  0.11245283  0.88565138  0.22859243  1
  V  V27  1  0.75729995  0.61851794  0.87289231  1
  V  V28  1  0.11761510  0.62610416  -0.00162592  1
  V  V29  1  0.76157807  0.61644322  0.37151563  1
  V  V30  1  0.25077375  0.50387731  0.26836133  1
  V  V31  1  0.25346918  0.25124460  0.00896314  1
  V  V32  1  0.36619354  0.26686684  0.63957357  1
  V  V33  1  0.61454068  0.50630782  0.63248325  1
  V  V34  1  0.77435144  0.87054277  0.62179465  1
  V  V35  1  0.50181519  0.75799522  0.24162850  1
  V  V36  1  0.61077692  -0.00522378  0.12797625  1
  V  V37  1  -0.00697510  0.62687193  0.13193102  1
  V  V38  1  0.11676083  0.25774081  0.86901006  1
  V  V39  1  0.49505000  0.38013707  0.87002275  1
  V  V40  1  0.40204719  0.75322448  0.63016742  1
  V  V41  1  0.11351045  0.02361800  0.62561835  1
  V  V42  1  0.74546226  0.49860563  0.23321368  1
  V  V43  1  0.85276343  -0.00415443  0.36369484  1
  V  V44  1  0.86703554  0.13799731  0.25022521  1
  V  V45  1  0.86512480  0.26189807  0.10868664  1
  V  V46  1  0.64488410  0.12714605  -0.00671171  1
  V  V47  1  0.74787853  0.87817907  0.13720546  1
  V  V48  1  0.51101620  -0.00012880  0.51983671  1
  V  V49  1  0.24553875  0.48991695  0.74371879  1
  V  V50  1  0.36296065  0.87938502  0.00369344  1
  V  V51  1  -0.00190834  0.00519409  0.48185244  1
  V  V52  1  0.76915766  0.75467108  0.49529660  1
  V  V53  1  0.12980334  0.21765917  0.41353902  1
  V  V54  1  0.61799903  0.25187053  0.37376051  1
  V  V55  1  0.61551921  0.75718496  0.37226944  1
  V  V56  1  0.37468998  0.39367664  0.01292111  1
  V  V57  1  0.49624242  0.88611580  0.88676642  1
  V  V58  1  0.87855068  0.75249257  0.13340595  1
  V  V59  1  0.09210454  0.38731968  0.26024657  1
  V  V60  1  0.75959532  0.75741308  -0.00483782  1
  V  V61  1  0.87817081  0.36040379  0.48653284  1
  V  V62  1  0.35899995  0.74636950  0.12042128  1
  V  V63  1  0.12962619  0.75617494  0.87829016  1
  Zn  Zn64  1  0.11355706  0.25104253  0.13217058  1
  Zn  Zn65  1  0.19128804  0.19451444  0.68972904  1
  Zn  Zn66  1  0.18481995  0.68789425  0.19009344  1
  Zn  Zn67  1  0.19433914  0.68559241  0.69882180  1
  Zn  Zn68  1  0.68692434  0.18827370  0.17341871  1
  Zn  Zn69  1  0.71692710  0.21471401  0.74549666  1
  Zn  Zn70  1  0.69263922  0.68665678  0.19108156  1
  Zn  Zn71  1  0.71382183  0.69578931  0.69273201  1
  Zn  Zn72  1  0.24563739  0.28390534  0.26756075  1
  Zn  Zn73  1  0.32172503  0.30874385  0.82212413  1
  Zn  Zn74  1  0.30862323  0.80471031  0.31692705  1
  Zn  Zn75  1  0.31147762  0.81536782  0.81174270  1
  Zn  Zn76  1  0.87996426  0.34917906  0.28145059  1
  Zn  Zn77  1  0.84073711  0.34124262  0.77762439  1
  Zn  Zn78  1  0.81605997  0.80606994  0.31425118  1
  Zn  Zn79  1  0.81317611  0.80831030  0.80614607  1
  Zn  Zn80  1  0.20008078  0.39967991  0.40730546  1
  Zn  Zn81  1  0.19740149  0.43641915  0.93331125  1
  Zn  Zn82  1  0.18692173  0.93262455  0.45410225  1
  Zn  Zn83  1  0.19275588  0.93774850  0.93473151  1
  Zn  Zn84  1  0.69191882  0.43791887  0.44364302  1
  Zn  Zn85  1  0.64143128  0.45092261  0.91821877  1
  Zn  Zn86  1  0.68869665  0.93598281  0.43684599  1
  Zn  Zn87  1  0.68627396  0.94116073  0.94035948  1
  Zn  Zn88  1  0.33167435  0.08185888  0.03737013  1
  Zn  Zn89  1  0.31384644  0.04838059  0.55975779  1
  Zn  Zn90  1  0.30900205  0.56884288  0.07320594  1
  Zn  Zn91  1  0.32142346  0.55770220  0.57361133  1
  Zn  Zn92  1  0.81931563  0.05965420  0.06784254  1
  Zn  Zn93  1  0.82885196  0.05363072  0.56589160  1
  Zn  Zn94  1  0.80440103  0.56100601  0.05239815  1
  Zn  Zn95  1  0.80359500  0.55614551  0.55668536  1
  Zn  Zn96  1  0.42019224  0.30517404  0.19241247  1
  Zn  Zn97  1  0.43649063  0.44058509  0.69080354  1
  Zn  Zn98  1  0.42872504  0.93283951  0.19006224  1
  Zn  Zn99  1  0.44092026  0.93204279  0.68861139  1
  Zn  Zn100  1  0.92867687  0.45596085  0.16330536  1
  Zn  Zn101  1  0.92934869  0.43253753  0.62394164  1
  Zn  Zn102  1  0.93309956  0.94034242  0.18986548  1
  Zn  Zn103  1  0.94243072  0.93895839  0.69912345  1
  Zn  Zn104  1  0.06793122  0.06485637  0.30152802  1
  Zn  Zn105  1  0.06011746  0.06236695  0.80977276  1
  Zn  Zn106  1  0.05606407  0.55760905  0.31160283  1
  Zn  Zn107  1  0.06918809  0.55654565  0.81367253  1
  Zn  Zn108  1  0.56216129  0.05418321  0.30046127  1
  Zn  Zn109  1  0.56627061  0.06033036  0.81595089  1
  Zn  Zn110  1  0.56744098  0.56694267  0.30696055  1
  Zn  Zn111  1  0.55800775  0.57031075  0.81634166  1
  Zn  Zn112  1  0.44490088  0.17746731  0.43930116  1
  Zn  Zn113  1  0.44666560  0.18293886  0.93861400  1
  Zn  Zn114  1  0.43453244  0.68487841  0.44034540  1
  Zn  Zn115  1  0.43722671  0.68802200  0.94170305  1
  Zn  Zn116  1  0.93737718  0.18095544  0.44015913  1
  Zn  Zn117  1  0.92799491  0.17703165  0.92730779  1
  Zn  Zn118  1  0.95941537  0.65276416  0.42266371  1
  Zn  Zn119  1  0.93902930  0.68977683  0.93130281  1
  Zn  Zn120  1  0.00161863  0.29572057  0.00503895  1
  Zn  Zn121  1  0.05078716  0.28492430  0.53410560  1
  Zn  Zn122  1  0.06435540  0.81527574  0.06264891  1
  Zn  Zn123  1  0.03615114  0.82318212  0.55838801  1
  Zn  Zn124  1  0.56047094  0.29921151  0.02010302  1
  Zn  Zn125  1  0.55011025  0.32179861  0.57491356  1
  Zn  Zn126  1  0.56415587  0.80995738  0.06235458  1
  Zn  Zn127  1  0.56186085  0.81673889  0.55416865  1
  O  O128  1  0.10979056  0.12783012  0.10528923  1
  O  O129  1  0.11804961  0.12185284  0.63665249  1
  O  O130  1  0.11442254  0.63249299  0.10960580  1
  O  O131  1  0.10839421  0.62903978  0.63612121  1
  O  O132  1  0.61835278  0.11180875  0.11799521  1
  O  O133  1  0.65674539  0.11745131  0.58976367  1
  O  O134  1  0.62593064  0.63924589  0.11281870  1
  O  O135  1  0.63877081  0.62143426  0.61134643  1
  O  O136  1  0.36048755  0.35516968  0.43585509  1
  O  O137  1  0.38621133  0.37721910  0.89099536  1
  O  O138  1  0.37438972  0.86519478  0.39235730  1
  O  O139  1  0.38920220  0.86153881  0.88593143  1
  O  O140  1  0.89220451  0.37878615  0.39046717  1
  O  O141  1  1.01054257  0.42951091  0.90377822  1
  O  O142  1  0.86945008  0.89580532  0.35862086  1
  O  O143  1  0.88884840  0.87300883  0.86163645  1
  O  O144  1  0.26111843  0.02200239  0.40455519  1
  O  O145  1  0.24202263  0.01150193  0.86018758  1
  O  O146  1  0.23554438  0.50467602  0.36848722  1
  O  O147  1  0.25143002  0.51802444  0.87040303  1
  O  O148  1  0.75277638  0.00351789  0.37130463  1
  O  O149  1  0.76475900  -0.02671958  0.85717114  1
  O  O150  1  0.75609235  0.51599997  0.38794544  1
  O  O151  1  0.73014874  0.51063353  0.86668119  1
  O  O152  1  0.22826542  0.50784082  0.13065470  1
  O  O153  1  0.25259845  0.50298430  0.64121547  1
  O  O154  1  0.24603626  1.07030256  0.18933157  1
  O  O155  1  0.23559061  1.01106268  0.63721506  1
  O  O156  1  0.74598066  0.50707178  0.13303580  1
  O  O157  1  0.73987540  0.50157064  0.64006995  1
  O  O158  1  0.76216036  0.97813731  0.12752537  1
  O  O159  1  0.75949455  0.98090944  0.63345328  1
  O  O160  1  -0.00764456  0.38499996  0.23989683  1
  O  O161  1  -0.01624177  0.37204714  0.75136840  1
  O  O162  1  0.01111677  0.87146477  0.23620632  1
  O  O163  1  0.01936457  0.87492085  0.75948852  1
  O  O164  1  0.47377276  0.35983120  0.27319086  1
  O  O165  1  0.49599593  0.37407609  0.76573825  1
  O  O166  1  0.49679317  0.85617785  0.25388141  1
  O  O167  1  0.51263528  0.87502932  0.76378923  1
  O  O168  1  0.50962743  0.12304351  0.22547179  1
  O  O169  1  0.50009207  0.12871707  0.75482708  1
  O  O170  1  0.48324102  0.63025803  0.25389497  1
  O  O171  1  0.48079178  0.63344975  0.76252724  1
  O  O172  1  0.99928654  0.12626770  0.22810735  1
  O  O173  1  0.97885396  0.13322922  0.75881766  1
  O  O174  1  0.99980465  0.62850834  0.23023224  1
  O  O175  1  0.99857989  0.62725756  0.73536635  1
  O  O176  1  0.35477172  0.23391672  0.00018857  1
  O  O177  1  0.37472393  0.21198774  0.53166214  1
  O  O178  1  0.37939232  0.75350662  0.01582064  1
  O  O179  1  0.38325986  0.75483389  0.51762787  1
  O  O180  1  0.88101033  0.24943266  0.00415415  1
  O  O181  1  0.86821849  0.25796192  0.49155967  1
  O  O182  1  0.86253417  0.74623664  -0.00018074  1
  O  O183  1  0.86596234  0.74852856  0.49246815  1
  O  O184  1  0.13951041  0.21992379  0.51799153  1
  O  O185  1  0.13756203  0.23611885  0.98629380  1
  O  O186  1  0.08308477  0.76396402  0.46287473  1
  O  O187  1  0.12508193  0.74109322  0.98661207  1
  O  O188  1  0.60041061  0.25693998  0.47937027  1
  O  O189  1  0.64403812  0.22877012  1.01728653  1
  O  O190  1  0.62535666  0.74237431  0.49037246  1
  O  O191  1  0.63456527  0.74566929  0.98921789  1
  O  O192  1  0.50008018  0.25019251  0.12340152  1
  O  O193  1  0.49442110  0.25339985  0.64487829  1
  O  O194  1  0.49907995  0.75061322  0.13836578  1
  O  O195  1  0.50083329  0.74929080  0.63308964  1
  O  O196  1  0.99965040  0.23986458  0.10628427  1
  O  O197  1  1.01523884  0.32080430  0.70776330  1
  O  O198  1  0.98572688  0.74130456  0.11149370  1
  O  O199  1  0.99768837  0.72635730  0.61812172  1
  O  O200  1  0.03134266  0.24976825  0.40697247  1
  O  O201  1  0.01148311  0.25575370  0.89144941  1
  O  O202  1  0.02380944  0.75046193  0.40346821  1
  O  O203  1  0.01255161  0.75844722  0.87120630  1
  O  O204  1  0.50936682  0.25360492  0.37072834  1
  O  O205  1  0.48398708  0.25581308  0.85963048  1
  O  O206  1  0.51108751  0.74385000  0.36988085  1
  O  O207  1  0.51394302  0.75478779  0.87644236  1
  O  O208  1  0.25502805  0.08074629  0.45740739  1
  O  O209  1  0.23921399  0.12597358  0.98679622  1
  O  O210  1  0.23147054  0.65438795  0.53876773  1
  O  O211  1  0.24172752  0.62697169  0.98724904  1
  O  O212  1  0.71052729  0.11074967  0.54022557  1
  O  O213  1  0.74659446  0.11638514  1.00298169  1
  O  O214  1  0.74677088  0.63830913  0.49533814  1
  O  O215  1  0.73915257  0.63459388  0.98768537  1
  O  O216  1  0.26354242  0.35926765  -0.00954183  1
  O  O217  1  0.30639738  0.38052534  0.47906306  1
  O  O218  1  0.26447632  0.86657274  -0.01339722  1
  O  O219  1  0.27169888  0.88416914  0.51344482  1
  O  O220  1  0.81770027  0.41563482  -0.05580348  1
  O  O221  1  0.76290016  0.37648561  0.51828465  1
  O  O222  1  0.74835966  0.85911831  0.00313254  1
  O  O223  1  0.75609929  0.86816614  0.51033330  1
  O  O224  1  0.11937597  0.49792646  0.23392963  1
  O  O225  1  0.14273508  0.49402788  0.75838345  1
  O  O226  1  0.11862242  0.98767537  0.23585261  1
  O  O227  1  0.12873357  0.99098650  0.73830338  1
  O  O228  1  0.64594297  0.49861280  0.26139712  1
  O  O229  1  0.61952194  0.51361668  0.73450087  1
  O  O230  1  0.63292458  1.00087425  0.22804798  1
  O  O231  1  0.63762885  0.97917996  0.75974560  1
  O  O232  1  0.36750265  -0.02232415  0.27450666  1
  O  O233  1  0.35669658  -0.01005913  0.74261273  1
  O  O234  1  0.35965156  0.51320934  0.25848265  1
  O  O235  1  0.37019122  0.52167304  0.74415743  1
  O  O236  1  0.87957748  0.01820922  0.25774667  1
  O  O237  1  0.86429119  0.00802139  0.75257076  1
  O  O238  1  0.86030723  0.49581127  0.24820496  1
  O  O239  1  0.85285749  0.49189948  0.75818655  1
  O  O240  1  0.09283329  0.40430228  0.35898121  1
  O  O241  1  0.13686209  0.35669214  0.87834138  1
  O  O242  1  0.15283438  0.87222462  0.35700808  1
  O  O243  1  0.11893412  0.86524729  0.87466698  1
  O  O244  1  0.63147481  0.35602169  0.37660701  1
  O  O245  1  0.59543306  0.34983480  0.90766620  1
  O  O246  1  0.63031385  0.85547682  0.37580121  1
  O  O247  1  0.61662056  0.86541616  0.87613199  1
  O  O248  1  0.39601187  0.11820659  0.11974452  1
  O  O249  1  0.37128401  0.15211140  0.59104233  1
  O  O250  1  0.37313503  0.64000397  0.13617053  1
  O  O251  1  0.37370587  0.64153969  0.63646459  1
  O  O252  1  0.88499778  0.13692689  0.12576823  1
  O  O253  1  0.86556546  0.12556541  0.64475200  1
  O  O254  1  0.88721249  0.62909058  0.10846198  1
  O  O255  1  0.89911613  0.61607950  0.62060601  1
  O  O256  1  0.23262589  0.24738317  0.10766748  1
  O  O257  1  0.26390547  0.26375288  0.64115539  1
  O  O258  1  0.25988142  0.75111403  0.12722705  1
  O  O259  1  0.22464275  0.71467832  0.58389149  1
  O  O260  1  0.76542682  0.25426434  0.12181702  1
  O  O261  1  0.72084300  0.26757400  0.63717593  1
  O  O262  1  0.75987595  0.75057878  0.11254490  1
  O  O263  1  0.74388346  0.76221821  0.60425231  1
  O  O264  1  0.20688366  0.28498192  0.38323107  1
  O  O265  1  0.24370401  0.23301469  0.87553817  1
  O  O266  1  0.23840902  0.74414512  0.38674991  1
  O  O267  1  0.23582438  0.74142249  0.86985097  1
  O  O268  1  0.71737564  0.23257027  0.39449794  1
  O  O269  1  0.86388553  0.37297364  0.89528407  1
  O  O270  1  0.74188058  0.74582594  0.38399461  1
  O  O271  1  0.74520712  0.74297708  0.88341152  1
  O  O272  1  0.00895155  0.11817342  -0.00497613  1
  O  O273  1  -0.00808779  0.10603943  0.50943317  1
  O  O274  1  0.01498210  0.62725038  -0.00597431  1
  O  O275  1  0.01702968  0.61460050  0.52454370  1
  O  O276  1  0.51616656  0.13099593  0.01321854  1
  O  O277  1  0.50435637  0.10075766  0.49802997  1
  O  O278  1  0.51461669  0.62716118  -0.00442412  1
  O  O279  1  0.51695977  0.62334376  0.49936998  1
  O  O280  1  0.50100936  0.39786641  0.50374261  1
  O  O281  1  0.47922367  0.37299828  0.99920523  1
  O  O282  1  0.48393851  0.88399220  0.50832208  1
  O  O283  1  0.49585433  0.87049272  0.99021584  1
  O  O284  1  0.97544734  0.36181233  0.54089091  1
  O  O285  1  1.00639735  0.41431392  0.98158118  1
  O  O286  1  0.98089272  0.90730866  0.51478574  1
  O  O287  1  1.00141209  0.87182088  0.98308836  1
  O  O288  1  0.50851039  0.50764010  0.38666147  1
  O  O289  1  0.51991310  0.48256511  0.87699740  1
  O  O290  1  0.49639593  0.99506903  0.37368626  1
  O  O291  1  0.50022602  0.98462595  0.87651432  1
  O  O292  1  0.99020134  0.54612778  0.40009524  1
  O  O293  1  0.99088244  0.50446856  0.88311334  1
  O  O294  1  1.00851611  1.00222179  0.38089252  1
  O  O295  1  0.98671889  0.98433550  0.86616299  1
  O  O296  1  -0.01763960  0.01542331  0.11404077  1
  O  O297  1  0.01318978  0.00395297  0.63683099  1
  O  O298  1  0.01210467  0.52004633  0.11536131  1
  O  O299  1  0.00859024  0.51730239  0.63638972  1
  O  O300  1  0.50991350  -0.01281331  0.12659436  1
  O  O301  1  0.49750108  0.00196048  0.62148015  1
  O  O302  1  0.56493874  0.43719942  0.14452786  1
  O  O303  1  0.51191282  0.50531692  0.61724220  1
  O  O304  1  0.23485012  0.40165524  0.25221639  1
  O  O305  1  0.26879866  0.39405932  0.76432619  1
  O  O306  1  0.21649525  0.88475385  0.29851557  1
  O  O307  1  0.23464172  0.88950262  0.75884850  1
  O  O308  1  0.77465975  0.39804861  0.25849736  1
  O  O309  1  0.73070896  0.39033945  0.74928798  1
  O  O310  1  0.74558105  0.85727568  0.23458708  1
  O  O311  1  0.74254600  0.87508848  0.73374683  1
  O  O312  1  0.26684186  0.10852145  0.24696352  1
  O  O313  1  0.24906223  0.11474020  0.75999542  1
  O  O314  1  0.25603495  0.61463720  0.24458776  1
  O  O315  1  0.25660537  0.61747854  0.76215746  1
  O  O316  1  0.76741481  0.13154623  0.23669833  1
  O  O317  1  0.73766632  0.09798026  0.74617556  1
  O  O318  1  0.74859863  0.61517421  0.26331205  1
  O  O319  1  0.74026475  0.61191630  0.76548847  1
  O  O320  1  0.38596447  0.11035679  0.36785290  1
  O  O321  1  0.36077671  0.11879386  0.88284056  1
  O  O322  1  0.36664356  0.64047431  0.36041530  1
  O  O323  1  0.36183633  0.64158504  0.86701488  1
  O  O324  1  0.87986619  0.12900630  0.35442148  1
  O  O325  1  0.87009419  0.10024064  0.86685218  1
  O  O326  1  0.85876148  0.64194735  0.37427567  1
  O  O327  1  0.85714949  0.62287067  0.88136445  1
  O  O328  1  0.11424009  0.39177374  0.11612396  1
  O  O329  1  0.13974350  0.40168389  0.57554657  1
  O  O330  1  0.13657750  0.86679576  0.13044862  1
  O  O331  1  0.11947605  0.86425664  0.63316700  1
  O  O332  1  0.61554178  0.38852840  0.12504720  1
  O  O333  1  0.63298979  0.39876687  0.61512102  1
  O  O334  1  0.63906373  0.88157881  0.11668979  1
  O  O335  1  0.62147299  0.86686665  0.64097478  1
  O  O336  1  0.12782355  0.28813742  0.24245137  1
  O  O337  1  0.12221697  0.23980208  0.76908176  1
  O  O338  1  0.12913338  0.76221846  0.25822889  1
  O  O339  1  0.13363401  0.76343688  0.75873979  1
  O  O340  1  0.63065284  0.25466886  0.26989449  1
  O  O341  1  0.61033238  0.24319977  0.75987487  1
  O  O342  1  0.61277407  0.73818962  0.26132036  1
  O  O343  1  0.63738838  0.76146608  0.76579183  1
  O  O344  1  0.34769097  0.24521049  0.25224419  1
  O  O345  1  0.38293734  0.24734930  0.74272823  1
  O  O346  1  0.38048411  0.74782807  0.24137535  1
  O  O347  1  0.36114847  0.74418524  0.73521054  1
  O  O348  1  0.88315398  0.24344525  0.23251514  1
  O  O349  1  0.83214661  0.22463437  0.77417936  1
  O  O350  1  0.87008979  0.74117121  0.23171417  1
  O  O351  1  0.82500700  0.72845753  0.72951816  1
  O  O352  1  0.39206930  0.52287811  0.49641262  1
  O  O353  1  0.36506879  0.49405901  1.00878752  1
  O  O354  1  0.38875117  0.98849461  0.49045992  1
  O  O355  1  0.37019387  0.97943124  1.00734953  1
  O  O356  1  0.87422493  0.47353478  0.52875005  1
  O  O357  1  0.85776592  0.46992464  0.98633789  1
  O  O358  1  0.87755759  1.01568825  0.47138082  1
  O  O359  1  0.86733163  0.99188004  0.98206511  1
  O  O360  1  0.12942291  0.01019935  -0.00445261  1
  O  O361  1  0.11373404  -0.00324430  0.51763591  1
  O  O362  1  0.13386208  0.51542185  0.00365489  1
  O  O363  1  0.15223570  0.44830765  0.51924492  1
  O  O364  1  0.63487085  0.00672441  0.01684132  1
  O  O365  1  0.61024463  -0.02205044  0.50465887  1
  O  O366  1  0.63479836  0.51957531  0.00747280  1
  O  O367  1  0.62310768  0.51486790  0.50466674  1
  O  O368  1  0.37068254  0.37004329  0.11115732  1
  O  O369  1  0.38286370  0.36618041  0.62206931  1
  O  O370  1  0.37611801  0.86203570  0.11401457  1
  O  O371  1  0.37771879  0.85590841  0.62666920  1
  O  O372  1  0.88383043  0.36202334  0.11706719  1
  O  O373  1  0.84714044  0.36141761  0.65767756  1
  O  O374  1  0.86690496  0.85893971  0.12640734  1
  O  O375  1  0.87236292  0.86765825  0.63550685  1
  O  O376  1  0.13779558  0.13036627  0.36242208  1
  O  O377  1  0.12627720  0.12769054  0.88136508  1
  O  O378  1  0.12791903  0.63656549  0.35784133  1
  O  O379  1  0.13014611  0.63417659  0.87983444  1
  O  O380  1  0.60729552  0.14607046  0.36838599  1
  O  O381  1  0.62870822  0.11576700  0.89243983  1
  O  O382  1  0.63851932  0.63414296  0.38783732  1
  O  O383  1  0.62965633  0.64006976  0.87956017  1
