# generated using pymatgen
data_VZnO4
_symmetry_space_group_name_H-M   'P 1'
_cell_length_a   16.86256695
_cell_length_b   16.93047395
_cell_length_c   16.93296995
_cell_angle_alpha   89.86412799
_cell_angle_beta   89.79866176
_cell_angle_gamma   90.20419394
_symmetry_Int_Tables_number   1
_chemical_formula_structural   VZnO4
_chemical_formula_sum   'V64 Zn64 O256'
_cell_volume   4834.14048239
_cell_formula_units_Z   64
loop_
 _symmetry_equiv_pos_site_id
 _symmetry_equiv_pos_as_xyz
  1  'x, y, z'
loop_
 _atom_site_type_symbol
 _atom_site_label
 _atom_site_symmetry_multiplicity
 _atom_site_fract_x
 _atom_site_fract_y
 _atom_site_fract_z
 _atom_site_occupancy
  V  V0  1  0.75390543  0.74339796  0.50977323  1
  V  V1  1  0.25377924  0.14337974  0.88117849  1
  V  V2  1  0.65877575  0.12985558  0.50070368  1
  V  V3  1  0.39604325  0.11921730  0.23663047  1
  V  V4  1  0.49311863  0.90101719  0.37810929  1
  V  V5  1  0.37638975  0.49745426  0.88555629  1
  V  V6  1  0.09997477  0.38893139  0.21857516  1
  V  V7  1  0.24270998  0.75776836  0.48900957  1
  V  V8  1  0.01165848  0.86485549  0.39021951  1
  V  V9  1  0.24183744  0.49242872  0.74049251  1
  V  V10  1  0.50895094  0.63360360  0.13623531  1
  V  V11  1  0.24657137  0.88131923  0.62498957  1
  V  V12  1  0.73507448  0.38073443  0.12569547  1
  V  V13  1  0.84935283  0.87925190  -0.00162330  1
  V  V14  1  0.87139542  -0.00560220  0.36188154  1
  V  V15  1  0.51265121  0.11575900  0.09842913  1
  V  V16  1  0.11017272  0.13000127  0.50351260  1
  V  V17  1  0.00925351  0.49536700  -0.00527310  1
  V  V18  1  0.86408733  0.74900953  0.12430126  1
  V  V19  1  0.87474056  0.62601326  0.73186839  1
  V  V20  1  0.11532512  0.09928606  -0.00734129  1
  V  V21  1  0.37663220  0.76101027  0.61851652  1
  V  V22  1  0.24584967  0.64101580  0.87314835  1
  V  V23  1  -0.00370398  0.88002702  0.88753621  1
  V  V24  1  0.86790521  0.37461281  -0.01663562  1
  V  V25  1  0.25198034  0.25465180  0.52670086  1
  V  V26  1  0.62853818  0.39103301  0.74909889  1
  V  V27  1  0.23769240  0.90101455  0.13318814  1
  V  V28  1  -0.00408044  0.37035481  0.39149530  1
  V  V29  1  0.38236550  0.89290440  -0.00362862  1
  V  V30  1  0.75316549  0.62258200  0.36228084  1
  V  V31  1  0.61748600  0.24373766  0.86789355  1
  V  V32  1  0.87710616  0.50480695  0.34290026  1
  V  V33  1  -0.00351071  0.62991573  0.12654413  1
  V  V34  1  0.36344191  0.61861840  0.25304946  1
  V  V35  1  0.60684138  0.24909252  0.37302324  1
  V  V36  1  0.73616357  0.63209125  0.88088664  1
  V  V37  1  0.74237439  0.24020290  -0.01433915  1
  V  V38  1  0.86768998  0.51439328  0.87574089  1
  V  V39  1  0.75713013  0.39508819  0.62070714  1
  V  V40  1  0.61462776  0.74313044  0.37325509  1
  V  V41  1  0.63760426  0.89187789  0.26188058  1
  V  V42  1  0.87582234  0.24648314  0.60910426  1
  V  V43  1  0.23304139  0.14667087  0.36309317  1
  V  V44  1  -0.00367168  0.11234224  0.64533428  1
  V  V45  1  0.50850941  0.76317776  0.75926018  1
  V  V46  1  0.08251370  0.33486904  0.76640755  1
  V  V47  1  0.13064435  0.64969098  -0.00118351  1
  V  V48  1  0.36130320  0.75963770  0.13223498  1
  V  V49  1  0.48911019  0.24918935  0.72891840  1
  V  V50  1  0.51406416  0.50467828  0.00427664  1
  V  V51  1  0.00762354  0.74071335  0.74454731  1
  V  V52  1  0.52600263  0.48447822  0.50159684  1
  V  V53  1  0.63852948  0.00109423  0.11356721  1
  V  V54  1  0.23689606  0.60034969  0.37622002  1
  V  V55  1  0.50986398  0.62762862  0.61366767  1
  V  V56  1  0.87827516  0.24648494  0.12806618  1
  V  V57  1  0.63839332  -0.00466634  0.61664617  1
  V  V58  1  0.87165745  0.87596917  0.51602364  1
  V  V59  1  -0.00459759  0.09866187  0.12252421  1
  V  V60  1  0.37459396  0.62777347  0.74957740  1
  V  V61  1  0.12740535  0.87803834  0.76289536  1
  V  V62  1  0.26945580  0.00064675  0.76594536  1
  V  V63  1  0.34882789  0.00349142  0.37869444  1
  Zn  Zn64  1  0.13414504  0.16807592  0.20334590  1
  Zn  Zn65  1  0.17951408  0.18127685  0.69765859  1
  Zn  Zn66  1  0.18502085  0.68503996  0.18889110  1
  Zn  Zn67  1  0.18832353  0.69604527  0.69276728  1
  Zn  Zn68  1  0.64364872  0.22886817  0.16288210  1
  Zn  Zn69  1  0.67603607  0.20807347  0.66873092  1
  Zn  Zn70  1  0.68789840  0.69771537  0.19407122  1
  Zn  Zn71  1  0.68986075  0.69002649  0.70178552  1
  Zn  Zn72  1  0.31637900  0.30861842  0.27487077  1
  Zn  Zn73  1  0.31449956  0.31815998  0.81344229  1
  Zn  Zn74  1  0.31171755  0.82179834  0.30248599  1
  Zn  Zn75  1  0.32772964  0.81712127  0.81308289  1
  Zn  Zn76  1  0.82701870  0.33001079  0.29859103  1
  Zn  Zn77  1  0.80353435  0.30889340  0.79865410  1
  Zn  Zn78  1  0.82231655  0.80898884  0.31977587  1
  Zn  Zn79  1  0.84275618  0.78226964  0.83719889  1
  Zn  Zn80  1  0.18778542  0.40638057  0.41737983  1
  Zn  Zn81  1  0.18563770  0.44298669  0.91705173  1
  Zn  Zn82  1  0.17265215  0.94862631  0.44008910  1
  Zn  Zn83  1  0.19728890  0.92124680  0.94648379  1
  Zn  Zn84  1  0.70537270  0.42613011  0.43150158  1
  Zn  Zn85  1  0.68467698  0.43788562  0.93150030  1
  Zn  Zn86  1  0.69313660  0.93671361  0.44237944  1
  Zn  Zn87  1  0.71445923  0.74973669  0.99896188  1
  Zn  Zn88  1  0.31185347  0.06608428  0.05597494  1
  Zn  Zn89  1  0.26537982  0.04907749  0.54467458  1
  Zn  Zn90  1  0.35735404  0.62746542  0.02367884  1
  Zn  Zn91  1  0.27735647  0.59212127  0.57544165  1
  Zn  Zn92  1  0.80951300  0.06600187  0.05770406  1
  Zn  Zn93  1  0.82025226  0.05479801  0.57053757  1
  Zn  Zn94  1  0.80334326  0.56509478  0.06253370  1
  Zn  Zn95  1  0.69432105  0.56879002  0.55966496  1
  Zn  Zn96  1  0.42525101  0.44990588  0.18147713  1
  Zn  Zn97  1  0.45020150  0.44790432  0.69494443  1
  Zn  Zn98  1  0.44436495  0.94191652  0.19384285  1
  Zn  Zn99  1  0.46863510  0.96506907  0.70321002  1
  Zn  Zn100  1  0.93070451  0.43757261  0.16643014  1
  Zn  Zn101  1  0.91944629  0.41654306  0.71567042  1
  Zn  Zn102  1  0.81290849  0.93164185  0.18379385  1
  Zn  Zn103  1  0.93919472  0.93085660  0.69286415  1
  Zn  Zn104  1  0.02404933  0.07718862  0.32844007  1
  Zn  Zn105  1  0.06772482  0.05710697  0.81337006  1
  Zn  Zn106  1  0.06629232  0.55075755  0.30605738  1
  Zn  Zn107  1  0.06220685  0.56024037  0.81631645  1
  Zn  Zn108  1  0.57053931  0.07124569  0.32011017  1
  Zn  Zn109  1  0.57824653  0.08617901  0.78334363  1
  Zn  Zn110  1  0.54118786  0.57547816  0.33223478  1
  Zn  Zn111  1  0.55328648  0.56818845  0.81001861  1
  Zn  Zn112  1  0.41960212  0.19416040  0.43344101  1
  Zn  Zn113  1  0.43886849  0.18766806  0.93375558  1
  Zn  Zn114  1  0.42469713  0.68856605  0.43550694  1
  Zn  Zn115  1  0.49872792  0.72973244  0.96871307  1
  Zn  Zn116  1  0.92840307  0.18670949  0.43698108  1
  Zn  Zn117  1  0.96187619  0.19589920  0.94481629  1
  Zn  Zn118  1  0.92540620  0.69693885  0.42278802  1
  Zn  Zn119  1  0.94624166  0.69636248  0.94327646  1
  Zn  Zn120  1  0.06245988  0.30471153  0.04073619  1
  Zn  Zn121  1  0.06472404  0.31262455  0.57725017  1
  Zn  Zn122  1  0.05769828  0.81874973  0.06979537  1
  Zn  Zn123  1  0.06467816  0.81086956  0.56615936  1
  Zn  Zn124  1  0.53542386  0.30584011  0.04625748  1
  Zn  Zn125  1  0.57641002  0.30894469  0.56095275  1
  Zn  Zn126  1  0.56028125  0.82408343  0.08761369  1
  Zn  Zn127  1  0.56238709  0.81274454  0.55048567  1
  O  O128  1  0.10883948  0.13157214  0.09876900  1
  O  O129  1  0.10321262  0.13033532  0.62202008  1
  O  O130  1  0.11752797  0.63478168  0.10722124  1
  O  O131  1  0.15190599  0.62889517  0.60286863  1
  O  O132  1  0.62447653  0.11035709  0.12296592  1
  O  O133  1  0.63306222  0.12206237  0.60784596  1
  O  O134  1  0.60788605  0.62882736  0.14631620  1
  O  O135  1  0.61288070  0.62554768  0.62631374  1
  O  O136  1  0.40647184  0.36770208  0.25135187  1
  O  O137  1  0.37213298  0.39837497  0.87713443  1
  O  O138  1  0.38187684  0.89739913  0.36220646  1
  O  O139  1  0.37646084  0.86866599  0.89767620  1
  O  O140  1  0.87855285  0.39707451  0.37326994  1
  O  O141  1  0.86157943  0.39210402  0.88026945  1
  O  O142  1  0.88320537  0.88073771  0.38663540  1
  O  O143  1  0.88388111  0.87375293  0.88906054  1
  O  O144  1  0.24692001  0.00274660  0.36874143  1
  O  O145  1  0.25556298  -0.01397095  0.86485662  1
  O  O146  1  0.24785431  0.50146000  0.38955484  1
  O  O147  1  0.26145713  0.51346487  0.86118147  1
  O  O148  1  0.77183405  -0.00067848  0.38221178  1
  O  O149  1  0.72742020  -0.05882726  0.79657646  1
  O  O150  1  0.76560230  0.51043401  0.37959514  1
  O  O151  1  0.76125696  0.51379496  0.87601266  1
  O  O152  1  0.26681486  0.42571256  0.06644600  1
  O  O153  1  0.26049266  0.50525247  0.64029655  1
  O  O154  1  0.24821159  1.00174399  0.12778424  1
  O  O155  1  0.25926525  0.98519821  0.64064127  1
  O  O156  1  0.74199578  0.48109772  0.11112117  1
  O  O157  1  0.75526937  0.49527303  0.62237109  1
  O  O158  1  0.74440823  1.00869570  0.13444429  1
  O  O159  1  0.73751916  0.99962657  0.63361767  1
  O  O160  1  -0.00262850  0.38194780  0.24121493  1
  O  O161  1  -0.02002549  0.34904398  0.77876775  1
  O  O162  1  0.06807575  0.79935751  0.23172370  1
  O  O163  1  0.01511748  0.86636687  0.75330659  1
  O  O164  1  0.57184765  0.42417080  0.24846815  1
  O  O165  1  0.52019566  0.36937658  0.73506410  1
  O  O166  1  0.51466445  0.88331253  0.27052163  1
  O  O167  1  0.48815930  0.86131510  0.74826915  1
  O  O168  1  0.49332993  0.13084714  0.25892071  1
  O  O169  1  0.48969651  0.14864256  0.75017859  1
  O  O170  1  0.47899343  0.61240995  0.24450914  1
  O  O171  1  0.49103518  0.63217335  0.73295985  1
  O  O172  1  1.02588069  0.12643008  0.22489108  1
  O  O173  1  0.99959252  0.11708209  0.74505358  1
  O  O174  1  1.00943897  0.61676613  0.22381347  1
  O  O175  1  0.99545089  0.63429686  0.75620959  1
  O  O176  1  0.43006304  0.26226407  0.01619853  1
  O  O177  1  0.35078476  0.25387863  0.49966236  1
  O  O178  1  0.38401598  0.74578603  0.02579560  1
  O  O179  1  0.36629792  0.75308601  0.51371607  1
  O  O180  1  0.86787469  0.26471446  -0.01434699  1
  O  O181  1  0.86538366  0.24902156  0.51040959  1
  O  O182  1  0.87558120  0.76239953  0.00484124  1
  O  O183  1  0.86162598  0.75403393  0.49983293  1
  O  O184  1  0.12979647  0.23623075  0.51333044  1
  O  O185  1  0.22650897  0.26657538  1.04774337  1
  O  O186  1  0.14462956  0.75053087  0.50802228  1
  O  O187  1  0.12327359  0.74649938  0.99361818  1
  O  O188  1  0.63265543  0.23481029  0.49405815  1
  O  O189  1  0.63351408  0.25620798  0.98011102  1
  O  O190  1  0.64054245  0.75924887  0.47944698  1
  O  O191  1  0.60295449  0.75691546  1.00854615  1
  O  O192  1  0.52794691  0.21833146  0.12405045  1
  O  O193  1  0.50353770  0.25085541  0.62866786  1
  O  O194  1  0.49087070  0.73723103  0.13944936  1
  O  O195  1  0.49030398  0.74614377  0.62542320  1
  O  O196  1  0.97771049  0.25514434  0.11029302  1
  O  O197  1  0.97903159  0.24433395  0.62972927  1
  O  O198  1  0.98819760  0.73761121  0.11515318  1
  O  O199  1  1.00705796  0.74944034  0.64418424  1
  O  O200  1  -0.02272611  0.27254970  0.37468710  1
  O  O201  1  0.06861669  0.23002707  0.96093512  1
  O  O202  1  -0.01203865  0.76698942  0.36251970  1
  O  O203  1  -0.00801926  0.76576834  0.86023465  1
  O  O204  1  0.50588435  0.24972681  0.38405620  1
  O  O205  1  0.51443066  0.25279187  0.86800249  1
  O  O206  1  0.51380838  0.73928095  0.37697499  1
  O  O207  1  0.49441917  0.73970876  0.85613291  1
  O  O208  1  0.23965075  0.14551863  0.48557290  1
  O  O209  1  0.23395001  0.12418492  0.99002802  1
  O  O210  1  0.26083017  0.64377454  0.47694564  1
  O  O211  1  0.24113442  0.63028950  0.98513937  1
  O  O212  1  0.75826760  0.12708896  0.49908713  1
  O  O213  1  0.75534135  0.14231055  0.99143258  1
  O  O214  1  0.74803554  0.63720108  0.48631078  1
  O  O215  1  0.74304882  0.62655176  0.98473561  1
  O  O216  1  0.25579534  0.38679919  -0.00281034  1
  O  O217  1  0.22448681  0.35376163  0.50705105  1
  O  O218  1  0.27011424  0.87813801  0.02219067  1
  O  O219  1  0.24576536  0.87298243  0.52034288  1
  O  O220  1  0.75635432  0.37039656  -0.00160185  1
  O  O221  1  0.75157555  0.37246410  0.52291392  1
  O  O222  1  0.75183476  0.86451078  -0.01133650  1
  O  O223  1  0.76213100  0.85913626  0.49689516  1
  O  O224  1  0.12734031  0.48597150  0.23266780  1
  O  O225  1  0.14191280  0.51127658  0.75210385  1
  O  O226  1  0.04753427  0.86705327  0.26180402  1
  O  O227  1  0.13723347  0.98039302  0.75229211  1
  O  O228  1  0.61248835  0.47907833  0.27569307  1
  O  O229  1  0.61566045  0.49041180  0.74794123  1
  O  O230  1  0.63625127  0.99345421  0.26803744  1
  O  O231  1  0.58136540  1.00490972  0.71033665  1
  O  O232  1  0.37527107  0.01517263  0.26034432  1
  O  O233  1  0.36907576  -0.00176761  0.75203319  1
  O  O234  1  0.34877757  0.52184383  0.23868794  1
  O  O235  1  0.37652300  0.51311217  0.75704593  1
  O  O236  1  0.87522500  -0.01464451  0.26189574  1
  O  O237  1  0.85016525  -0.02070172  0.75667626  1
  O  O238  1  0.87033616  0.50185243  0.24464731  1
  O  O239  1  0.88886771  0.51468520  0.76637622  1
  O  O240  1  0.09606634  0.38724657  0.35627476  1
  O  O241  1  0.12388805  0.37975583  0.84997707  1
  O  O242  1  0.11229196  0.86455735  0.40475229  1
  O  O243  1  0.12088930  0.87117528  0.86810752  1
  O  O244  1  0.64786433  0.34307750  0.38247479  1
  O  O245  1  0.63315148  0.36848401  0.85472005  1
  O  O246  1  0.61625775  0.87416918  0.37392901  1
  O  O247  1  0.56736293  0.92464413  0.88806416  1
  O  O248  1  0.40194654  0.10604879  0.12761821  1
  O  O249  1  0.45449831  0.08652633  0.57263648  1
  O  O250  1  0.36899240  0.64079168  0.14084394  1
  O  O251  1  0.37502272  0.63884062  0.63210877  1
  O  O252  1  0.88711481  0.13447708  0.11449629  1
  O  O253  1  0.88740089  0.13313704  0.62157548  1
  O  O254  1  0.88591291  0.63460017  0.11025577  1
  O  O255  1  0.87458728  0.61685996  0.63745441  1
  O  O256  1  0.26681580  0.25863033  0.10704773  1
  O  O257  1  0.25104601  0.23567739  0.62592277  1
  O  O258  1  0.25798894  0.75522945  0.12877619  1
  O  O259  1  0.26117712  0.75625408  0.62051910  1
  O  O260  1  0.75884943  0.25427408  0.10115993  1
  O  O261  1  0.78292973  0.24259540  0.66372167  1
  O  O262  1  0.75907981  0.73277885  0.11130411  1
  O  O263  1  0.73839942  0.73848574  0.60805696  1
  O  O264  1  0.24879276  0.24620419  0.36430874  1
  O  O265  1  0.24929816  0.24246873  0.87053011  1
  O  O266  1  0.25602578  0.77458668  0.39184376  1
  O  O267  1  0.25176935  0.73890237  0.86293124  1
  O  O268  1  0.78036293  0.21671919  0.35778766  1
  O  O269  1  0.74064371  0.25628649  0.88002453  1
  O  O270  1  0.75309857  0.73368901  0.37788440  1
  O  O271  1  0.74806185  0.73729615  0.87705580  1
  O  O272  1  0.00358903  0.09938582  0.00597978  1
  O  O273  1  0.00849950  0.12717093  0.50341569  1
  O  O274  1  0.01811242  0.62115338  -0.00176828  1
  O  O275  1  -0.00868441  0.62635674  0.50651345  1
  O  O276  1  0.50803358  0.11262606  -0.00009430  1
  O  O277  1  0.48750426  0.12163106  0.51025659  1
  O  O278  1  0.48895580  0.62320077  0.02430677  1
  O  O279  1  0.49745677  0.63822606  0.51455027  1
  O  O280  1  0.51161070  0.38638441  0.50647453  1
  O  O281  1  0.49676821  0.40633003  1.00800301  1
  O  O282  1  0.49502410  0.86497397  0.47268333  1
  O  O283  1  0.48131557  0.87188860  1.01928650  1
  O  O284  1  1.01108246  0.37477778  0.49019569  1
  O  O285  1  0.97987571  0.39018402  0.99816369  1
  O  O286  1  0.98567197  0.85921864  0.49802427  1
  O  O287  1  1.00335016  0.87612343  0.98769967  1
  O  O288  1  0.48762261  0.51462320  0.41269418  1
  O  O289  1  0.48557786  0.51966646  0.88991816  1
  O  O290  1  0.49316018  1.00224902  0.38350774  1
  O  O291  1  0.52697249  0.98443747  0.88411110  1
  O  O292  1  0.98008723  0.50145848  0.36827572  1
  O  O293  1  0.98501117  0.51122765  0.88967370  1
  O  O294  1  0.99902242  0.96901877  0.36425995  1
  O  O295  1  0.99983303  0.97754358  0.86249574  1
  O  O296  1  -0.01115597  0.00404873  0.12987647  1
  O  O297  1  -0.01094498  0.01268074  0.63046311  1
  O  O298  1  -0.01332311  0.51743016  0.09973062  1
  O  O299  1  0.09328478  0.57000052  0.62228071  1
  O  O300  1  0.52308038  0.00935253  0.13574334  1
  O  O301  1  0.48302769  0.01401256  0.58779419  1
  O  O302  1  0.49009322  0.51536745  0.11632521  1
  O  O303  1  0.49059925  0.51713278  0.60506487  1
  O  O304  1  0.20465623  0.33285759  0.23310754  1
  O  O305  1  0.25572235  0.39374986  0.75051281  1
  O  O306  1  0.24524732  0.88065177  0.23352008  1
  O  O307  1  0.24627092  0.87731457  0.74824766  1
  O  O308  1  0.75002320  0.36877233  0.22556559  1
  O  O309  1  0.74373178  0.38455689  0.74078705  1
  O  O310  1  0.74215647  0.87517924  0.26156338  1
  O  O311  1  0.79132376  0.92113285  0.76330246  1
  O  O312  1  0.21737837  0.12388130  0.26639583  1
  O  O313  1  0.24292154  0.10636979  0.76819400  1
  O  O314  1  0.24878257  0.63505580  0.27040546  1
  O  O315  1  0.25643656  0.62312957  0.75518522  1
  O  O316  1  0.77506921  0.15801473  0.31471900  1
  O  O317  1  0.86046039  0.15453933  0.82203259  1
  O  O318  1  0.74606055  0.62332621  0.26327354  1
  O  O319  1  0.76930627  0.63111460  0.76042191  1
  O  O320  1  0.35155644  0.11951031  0.36397716  1
  O  O321  1  0.35415880  0.12808613  0.88773311  1
  O  O322  1  0.36422520  0.62960108  0.36021874  1
  O  O323  1  0.36036764  0.62414651  0.86231562  1
  O  O324  1  0.91248509  0.09464760  0.37363943  1
  O  O325  1  0.89455947  0.11812924  0.88123223  1
  O  O326  1  0.86643926  0.61425060  0.37015848  1
  O  O327  1  0.86892793  0.62008036  0.88078299  1
  O  O328  1  0.10207114  0.37517389  0.11761818  1
  O  O329  1  0.10146048  0.36820797  0.66971338  1
  O  O330  1  0.13928746  0.87942892  0.11458902  1
  O  O331  1  0.14167272  0.86541878  0.64122656  1
  O  O332  1  0.63568426  0.34736683  0.11473762  1
  O  O333  1  0.64857991  0.36267329  0.63685090  1
  O  O334  1  0.62489136  0.89060290  0.15305631  1
  O  O335  1  0.61489865  0.89806830  0.60314867  1
  O  O336  1  0.13903565  0.28010739  0.24496586  1
  O  O337  1  0.11001963  0.23676551  0.76725794  1
  O  O338  1  0.12502941  0.75802779  0.26737594  1
  O  O339  1  0.11700469  0.75628281  0.75626965  1
  O  O340  1  0.63186245  0.22876792  0.27584012  1
  O  O341  1  0.61712074  0.25820994  0.75371717  1
  O  O342  1  0.63213112  0.76633059  0.26940310  1
  O  O343  1  0.60807455  0.75470085  0.74184079  1
  O  O344  1  0.34876217  0.20748371  0.23382891  1
  O  O345  1  0.39225592  0.27486952  0.74449240  1
  O  O346  1  0.37138093  0.74552286  0.24053811  1
  O  O347  1  0.38150458  0.74334747  0.73869525  1
  O  O348  1  0.87126751  0.25271759  0.22643319  1
  O  O349  1  0.89184553  0.22917555  0.81072814  1
  O  O350  1  0.86585164  0.75686457  0.22484209  1
  O  O351  1  0.88895144  0.73666382  0.74484016  1
  O  O352  1  0.36020633  0.42077279  0.54470526  1
  O  O353  1  0.36825669  0.51738392  0.98572584  1
  O  O354  1  0.35427194  1.00926765  0.47914720  1
  O  O355  1  0.38025456  0.99369691  0.99922494  1
  O  O356  1  0.96731789  0.55803416  0.51858539  1
  O  O357  1  0.87290315  0.49384584  0.98835062  1
  O  O358  1  0.87296875  0.97896053  0.50001535  1
  O  O359  1  0.86132088  0.97934324  1.00649690  1
  O  O360  1  0.12697097  0.00102548  -0.00313345  1
  O  O361  1  0.14831407  0.02832089  0.51579870  1
  O  O362  1  0.10990128  0.49363642  -0.00832114  1
  O  O363  1  0.09369868  0.50984536  0.57957293  1
  O  O364  1  0.63724726  -0.01268109  0.01924919  1
  O  O365  1  0.63598902  0.01817941  0.50556441  1
  O  O366  1  0.61361466  0.50831541  -0.00968509  1
  O  O367  1  0.62881889  0.49765372  0.49368714  1
  O  O368  1  0.32089977  0.39493565  0.11127636  1
  O  O369  1  0.37379807  0.38434120  0.60647064  1
  O  O370  1  0.37059364  0.87049044  0.13061511  1
  O  O371  1  0.36423880  0.86182355  0.63388939  1
  O  O372  1  0.86060595  0.36626567  0.10546644  1
  O  O373  1  0.86607956  0.36456965  0.63217753  1
  O  O374  1  0.86589241  0.86049311  0.10981860  1
  O  O375  1  0.87715035  0.87097962  0.61574694  1
  O  O376  1  0.12249077  0.12615726  0.38988535  1
  O  O377  1  0.13568405  0.11185999  0.88561241  1
  O  O378  1  0.13660966  0.61188704  0.37575301  1
  O  O379  1  0.13714782  0.62246396  0.88510933  1
  O  O380  1  0.62679289  0.13362459  0.39606073  1
  O  O381  1  0.63294380  0.14343422  0.86001270  1
  O  O382  1  0.63356194  0.63552371  0.37037413  1
  O  O383  1  0.63906318  0.62208493  0.86013719  1
