# generated using pymatgen
data_VZnO4
_symmetry_space_group_name_H-M   'P 1'
_cell_length_a   17.01687882
_cell_length_b   17.05071393
_cell_length_c   17.10436541
_cell_angle_alpha   90.43605929
_cell_angle_beta   89.01939257
_cell_angle_gamma   90.08425692
_symmetry_Int_Tables_number   1
_chemical_formula_structural   VZnO4
_chemical_formula_sum   'V64 Zn64 O256'
_cell_volume   4961.95547731
_cell_formula_units_Z   64
loop_
 _symmetry_equiv_pos_site_id
 _symmetry_equiv_pos_as_xyz
  1  'x, y, z'
loop_
 _atom_site_type_symbol
 _atom_site_label
 _atom_site_symmetry_multiplicity
 _atom_site_fract_x
 _atom_site_fract_y
 _atom_site_fract_z
 _atom_site_occupancy
  V  V0  1  0.12278565  0.75820909  0.86609196  1
  V  V1  1  0.49249759  0.88381016  0.88475231  1
  V  V2  1  0.88435360  0.88656827  0.48912400  1
  V  V3  1  0.37609348  0.64077314  0.73736228  1
  V  V4  1  0.12173443  0.50925897  0.11859219  1
  V  V5  1  0.64034901  0.13159264  0.48368411  1
  V  V6  1  0.63746393  0.75226278  0.88139513  1
  V  V7  1  0.25381156  -0.00946010  0.74302433  1
  V  V8  1  0.50253203  0.00965566  0.49778735  1
  V  V9  1  0.71090894  0.46603275  0.75356111  1
  V  V10  1  -0.00435630  0.12319571  0.14003011  1
  V  V11  1  0.62822674  0.51169827  0.09642844  1
  V  V12  1  0.25514717  0.76391380  0.00633582  1
  V  V13  1  0.76373003  -0.00061823  0.75906104  1
  V  V14  1  0.90124939  0.36212481  0.00014508  1
  V  V15  1  0.74141152  0.62125401  0.38705333  1
  V  V16  1  0.10744318  0.63270946  0.00570717  1
  V  V17  1  0.91763432  0.59105943  0.77643310  1
  V  V18  1  0.85454653  0.87259536  0.01139225  1
  V  V19  1  0.30451945  0.26072454  0.66203837  1
  V  V20  1  0.25259964  0.50014256  0.24573122  1
  V  V21  1  0.36551468  0.01674687  0.88208252  1
  V  V22  1  0.62705742  0.87493970  0.75161284  1
  V  V23  1  0.52188973  0.22256198  0.74786855  1
  V  V24  1  0.72731746  0.49729198  0.26081569  1
  V  V25  1  0.62173842  0.01630552  0.63032550  1
  V  V26  1  0.00611473  -0.00452090  0.00271954  1
  V  V27  1  0.38460971  0.27423091  0.10832701  1
  V  V28  1  0.60492641  0.13089646  -0.01890975  1
  V  V29  1  0.88293152  0.75043308  0.12550708  1
  V  V30  1  0.26220584  0.39592379  0.09726676  1
  V  V31  1  0.73947170  0.74940942  0.50688301  1
  V  V32  1  0.01239184  0.62692522  0.60362648  1
  V  V33  1  -0.00182732  0.37729813  0.35885689  1
  V  V34  1  0.09319083  0.10874218  0.49836278  1
  V  V35  1  0.74717634  0.36699330  0.11817784  1
  V  V36  1  0.24169315  0.21627103  0.44968264  1
  V  V37  1  0.86177804  -0.00143680  0.35952125  1
  V  V38  1  0.25174106  0.50598851  0.74482631  1
  V  V39  1  0.13927334  0.48588114  0.60292110  1
  V  V40  1  0.48843955  0.13254837  0.12632779  1
  V  V41  1  0.23780376  0.23681120  -0.00670853  1
  V  V42  1  0.88842028  0.13993680  0.75137863  1
  V  V43  1  0.38616470  0.86581954  0.52162573  1
  V  V44  1  0.60643805  0.75336453  0.38130777  1
  V  V45  1  0.11589510  -0.01365231  0.14270268  1
  V  V46  1  0.10255793  -0.02302301  0.62069692  1
  V  V47  1  0.00477332  0.75840053  0.26427610  1
  V  V48  1  0.26214645  0.63591009  0.87952500  1
  V  V49  1  0.87361025  0.62237357  0.25440049  1
  V  V50  1  0.49888001  0.75382925  0.74298974  1
  V  V51  1  -0.00352188  0.86132490  0.88559980  1
  V  V52  1  0.88180037  0.74934601  0.62180459  1
  V  V53  1  0.36690015  0.33615342  0.45653455  1
  V  V54  1  0.47970590  0.54865742  0.00201523  1
  V  V55  1  0.88710838  0.25040580  0.60815683  1
  V  V56  1  0.74742821  0.87974010  0.62088760  1
  V  V57  1  0.76082913  0.13775773  0.88146851  1
  V  V58  1  0.37759291  0.50711764  0.37235986  1
  V  V59  1  0.61913514  0.01000522  0.13523614  1
  V  V60  1  0.37807671  0.64778733  0.24129619  1
  V  V61  1  0.85778393  0.13180144  0.25138383  1
  V  V62  1  0.27230407  0.00716662  0.24534779  1
  V  V63  1  0.26076692  0.87549739  0.12918031  1
  Zn  Zn64  1  0.17571918  0.17444200  0.18802854  1
  Zn  Zn65  1  0.15516222  0.14143416  0.70455980  1
  Zn  Zn66  1  0.19252748  0.68581019  0.19403171  1
  Zn  Zn67  1  0.17416289  0.66668074  0.69458174  1
  Zn  Zn68  1  0.70001228  0.15914628  0.15654717  1
  Zn  Zn69  1  0.71440559  0.27549044  0.71045390  1
  Zn  Zn70  1  0.67039013  0.67919505  0.20750470  1
  Zn  Zn71  1  0.73141128  0.64529799  0.77535535  1
  Zn  Zn72  1  0.34775978  0.17095396  0.27677597  1
  Zn  Zn73  1  0.21149230  0.29886092  0.79930117  1
  Zn  Zn74  1  0.30499389  0.82697914  0.32280516  1
  Zn  Zn75  1  0.31017816  0.82319537  0.81088353  1
  Zn  Zn76  1  0.82593602  0.32558590  0.27154545  1
  Zn  Zn77  1  0.83487030  0.32217792  0.83412133  1
  Zn  Zn78  1  0.81140470  0.80048463  0.31958319  1
  Zn  Zn79  1  0.84433139  0.77618391  0.82603723  1
  Zn  Zn80  1  0.19752512  0.41948252  0.42261006  1
  Zn  Zn81  1  0.18732725  0.45545695  0.93290413  1
  Zn  Zn82  1  0.21992852  1.00042692  0.45005474  1
  Zn  Zn83  1  0.18413199  0.94206100  0.94043870  1
  Zn  Zn84  1  0.71538489  0.43338993  0.45139369  1
  Zn  Zn85  1  0.72091402  0.57448777  0.92555670  1
  Zn  Zn86  1  0.68066851  0.93778955  0.43436452  1
  Zn  Zn87  1  0.68107965  0.95194488  0.94047194  1
  Zn  Zn88  1  0.30439569  0.06912418  0.06206857  1
  Zn  Zn89  1  0.31226960  0.07493824  0.58675899  1
  Zn  Zn90  1  0.31266698  0.59222705  0.07111188  1
  Zn  Zn91  1  0.33570064  0.51977454  0.55989214  1
  Zn  Zn92  1  0.81563244  0.05527019  0.06489617  1
  Zn  Zn93  1  0.81536005  0.06943299  0.56800861  1
  Zn  Zn94  1  0.81075671  0.55582278  0.08233462  1
  Zn  Zn95  1  0.76756312  0.58566622  0.60461213  1
  Zn  Zn96  1  0.44227095  0.45466950  0.17858139  1
  Zn  Zn97  1  0.45067995  0.36385769  0.61651280  1
  Zn  Zn98  1  0.44148773  0.94977448  0.05480581  1
  Zn  Zn99  1  0.43712818  0.94341729  0.69375090  1
  Zn  Zn100  1  0.92586604  0.44895897  0.15937340  1
  Zn  Zn101  1  0.96888227  0.43669757  0.67975719  1
  Zn  Zn102  1  0.92986387  0.93084408  0.19427735  1
  Zn  Zn103  1  0.92913319  0.90340046  0.69335818  1
  Zn  Zn104  1  0.04850312  0.04621832  0.32173343  1
  Zn  Zn105  1  0.03221380  0.00801212  0.78758098  1
  Zn  Zn106  1  0.06886747  0.57634318  0.29947329  1
  Zn  Zn107  1  0.07478544  0.57832679  0.81171111  1
  Zn  Zn108  1  0.53239496  0.08848408  0.31816655  1
  Zn  Zn109  1  0.56736151  0.05944617  0.81723019  1
  Zn  Zn110  1  0.55068821  0.57552708  0.32611458  1
  Zn  Zn111  1  0.55772631  0.56882675  0.81615735  1
  Zn  Zn112  1  0.37673011  0.10859222  0.44061767  1
  Zn  Zn113  1  0.42146595  0.20826216  0.91838660  1
  Zn  Zn114  1  0.43181423  0.66727829  0.47093514  1
  Zn  Zn115  1  0.44083214  0.71197681  0.93653915  1
  Zn  Zn116  1  0.92836187  0.18118768  0.42755254  1
  Zn  Zn117  1  0.93214563  0.17225729  0.94848549  1
  Zn  Zn118  1  0.92959067  0.68902924  0.43686368  1
  Zn  Zn119  1  0.92138423  0.55462987  0.96496068  1
  Zn  Zn120  1  0.07691945  0.30599513  0.09610256  1
  Zn  Zn121  1  0.10722652  0.27508525  0.60076123  1
  Zn  Zn122  1  0.06272747  0.81183176  0.06818106  1
  Zn  Zn123  1  0.06352191  0.81525385  0.54596829  1
  Zn  Zn124  1  0.59699788  0.29334758  0.08089225  1
  Zn  Zn125  1  0.51067762  0.22758012  0.54605283  1
  Zn  Zn126  1  0.59515145  0.83423944  0.05070344  1
  Zn  Zn127  1  0.56157692  0.82125703  0.56245085  1
  O  O128  1  0.10497683  0.09953323  0.13136972  1
  O  O129  1  0.11470810  0.09603630  0.61039001  1
  O  O130  1  0.13336411  0.62442382  0.10860522  1
  O  O131  1  0.11181558  0.64698587  0.60171445  1
  O  O132  1  0.60006974  0.13480674  0.10106259  1
  O  O133  1  0.63260240  0.11156609  0.62946288  1
  O  O134  1  0.63752548  0.60724500  0.12948486  1
  O  O135  1  0.69943593  0.64707745  0.67179295  1
  O  O136  1  0.38549517  0.33973179  0.36271535  1
  O  O137  1  0.41568043  0.41124468  0.84536245  1
  O  O138  1  0.34669387  0.89184722  0.41259429  1
  O  O139  1  0.39231261  0.87252698  0.87854910  1
  O  O140  1  0.89290363  0.38078443  0.35624506  1
  O  O141  1  0.90183353  0.38421975  0.90071531  1
  O  O142  1  0.85928736  0.87762140  0.38616417  1
  O  O143  1  0.88702750  0.85063775  0.90298701  1
  O  O144  1  0.24537348  -0.00071365  0.34172337  1
  O  O145  1  0.26425966  -0.00751178  0.88073183  1
  O  O146  1  0.25416446  0.48552137  0.34911080  1
  O  O147  1  0.24049830  0.53304198  0.85944877  1
  O  O148  1  0.75988703  -0.00704690  0.37985480  1
  O  O149  1  0.75301715  -0.00887280  0.85850918  1
  O  O150  1  0.74470419  0.51360274  0.37736392  1
  O  O151  1  0.75142411  0.53304919  0.82012703  1
  O  O152  1  0.25317347  0.50953631  0.12259748  1
  O  O153  1  0.24705302  0.51127876  0.63110739  1
  O  O154  1  0.23651670  0.98961344  0.12844124  1
  O  O155  1  0.25770119  0.99411015  0.64059679  1
  O  O156  1  0.73548281  0.48955041  0.14544509  1
  O  O157  1  0.73271133  0.49019846  0.65804198  1
  O  O158  1  0.72020410  1.04300171  0.12720144  1
  O  O159  1  0.74169813  0.99423403  0.63157157  1
  O  O160  1  -0.00687129  0.37457793  0.25308054  1
  O  O161  1  0.04129244  0.38056580  0.76487132  1
  O  O162  1  -0.00256653  0.85697745  0.24827124  1
  O  O163  1  -0.00823825  0.89272831  0.78860787  1
  O  O164  1  0.52011742  0.37441459  0.21705186  1
  O  O165  1  0.45149291  0.40745402  0.78305109  1
  O  O166  1  0.48731851  0.80363143  0.18733618  1
  O  O167  1  0.50756340  0.87167398  0.75994447  1
  O  O168  1  0.49938572  0.15041399  0.22083642  1
  O  O169  1  0.50834488  0.12315751  0.74812458  1
  O  O170  1  0.47571083  0.62677450  0.26183750  1
  O  O171  1  0.48797433  0.64349610  0.75913939  1
  O  O172  1  0.99074891  0.11159805  0.24306418  1
  O  O173  1  0.98278738  0.10506728  0.75817806  1
  O  O174  1  0.97595264  0.62607481  0.25361609  1
  O  O175  1  0.99721378  0.63229672  0.72367350  1
  O  O176  1  0.35805538  0.24950406  0.00426828  1
  O  O177  1  0.34705029  0.22684610  0.47150855  1
  O  O178  1  0.35322062  0.75830865  -0.00353647  1
  O  O179  1  0.38863647  0.76792854  0.50972269  1
  O  O180  1  0.88466681  0.26166530  -0.00171158  1
  O  O181  1  0.87917255  0.24035220  0.50967379  1
  O  O182  1  0.86078227  0.75769030  0.02696238  1
  O  O183  1  0.86247045  0.76241581  0.50413328  1
  O  O184  1  0.14382487  0.21171797  0.50427102  1
  O  O185  1  0.14300864  0.26767483  1.00991520  1
  O  O186  1  0.12816762  0.74961958  0.46774270  1
  O  O187  1  0.12952263  0.74278806  0.99932445  1
  O  O188  1  0.62152684  0.22763421  0.51271658  1
  O  O189  1  0.63486600  0.22729194  0.99300641  1
  O  O190  1  0.63772922  0.74830618  0.51077446  1
  O  O191  1  0.63317911  0.75764023  0.98093567  1
  O  O192  1  0.48951102  0.25177808  0.09709630  1
  O  O193  1  0.48952763  0.26337192  0.65606671  1
  O  O194  1  0.51473049  0.76257394  0.13354710  1
  O  O195  1  0.50848833  0.75926245  0.64563627  1
  O  O196  1  0.99818775  0.21878311  0.12366112  1
  O  O197  1  1.00074615  0.24322132  0.62381155  1
  O  O198  1  0.98464153  0.74731605  0.12992709  1
  O  O199  1  0.98810866  0.74483512  0.60385468  1
  O  O200  1  -0.00407540  0.27428017  0.36831502  1
  O  O201  1  0.02103382  0.23612091  0.88789608  1
  O  O202  1  -0.00669671  0.74648511  0.36311264  1
  O  O203  1  0.01288963  0.75791980  0.87734376  1
  O  O204  1  0.52142651  0.35540071  0.29565706  1
  O  O205  1  0.47930513  0.25704132  0.83437671  1
  O  O206  1  0.51487656  0.72318221  0.41341785  1
  O  O207  1  0.51507906  0.76754252  0.86974452  1
  O  O208  1  0.26420282  0.10588724  0.48224689  1
  O  O209  1  0.23321392  0.13782302  1.01259698  1
  O  O210  1  0.25367639  0.70571805  0.54001818  1
  O  O211  1  0.24511645  0.64396682  0.98857499  1
  O  O212  1  0.73914572  0.11797044  0.50077222  1
  O  O213  1  0.76911800  0.11741785  0.97997180  1
  O  O214  1  0.75678437  0.63806376  0.49605397  1
  O  O215  1  0.81463932  0.59676407  0.97833860  1
  O  O216  1  0.26419475  0.40722507  -0.00224842  1
  O  O217  1  0.24778387  0.32608690  0.46210222  1
  O  O218  1  0.23862447  0.86656253  0.00929733  1
  O  O219  1  0.28677883  0.89764217  0.47574445  1
  O  O220  1  0.77914213  0.37084016  0.02502396  1
  O  O221  1  0.81155829  0.42823942  0.52273302  1
  O  O222  1  0.75754158  0.88528116  0.00021386  1
  O  O223  1  0.74464436  0.86529124  0.50821422  1
  O  O224  1  0.14461824  0.52146363  0.22951773  1
  O  O225  1  0.14866031  0.54508337  0.73097608  1
  O  O226  1  0.11868009  0.99193894  0.24186409  1
  O  O227  1  0.12556311  0.98839740  0.72443335  1
  O  O228  1  0.62800829  0.51073145  0.26245902  1
  O  O229  1  0.61097623  0.47961349  0.76708751  1
  O  O230  1  0.59983205  1.02965099  0.23131538  1
  O  O231  1  0.63593357  0.99355648  0.74331322  1
  O  O232  1  0.36770672  -0.00021732  0.24034683  1
  O  O233  1  0.36220689  -0.00747514  0.76592022  1
  O  O234  1  0.37130545  0.51008999  0.25542750  1
  O  O235  1  0.35515373  0.53306011  0.74288837  1
  O  O236  1  0.86026214  -0.00213893  0.25590304  1
  O  O237  1  0.86154112  -0.01116292  0.73896345  1
  O  O238  1  0.85693279  0.52049110  0.23824171  1
  O  O239  1  0.89087420  0.50819638  0.72710460  1
  O  O240  1  0.10231550  0.37360486  0.36060614  1
  O  O241  1  0.12583674  0.37895118  0.86805572  1
  O  O242  1  0.16090749  0.79461646  0.41243419  1
  O  O243  1  0.11325386  0.86282820  0.88923148  1
  O  O244  1  0.70828780  0.31859130  0.41669651  1
  O  O245  1  0.60780704  0.36027116  0.88256081  1
  O  O246  1  0.61576223  0.85318983  0.39460216  1
  O  O247  1  0.61692400  0.87893699  0.86800316  1
  O  O248  1  0.38740484  0.13695725  0.10624794  1
  O  O249  1  0.34373331  0.17331046  0.62865494  1
  O  O250  1  0.37824678  0.65260844  0.14094910  1
  O  O251  1  0.37124791  0.65215607  0.64362127  1
  O  O252  1  0.88215107  0.10828391  0.14398573  1
  O  O253  1  0.87384901  0.13924985  0.64252437  1
  O  O254  1  0.84873028  0.64678065  0.14666829  1
  O  O255  1  0.87252141  0.64795241  0.62894994  1
  O  O256  1  0.26129868  0.28893681  0.09969229  1
  O  O257  1  0.19693079  0.25036975  0.67068043  1
  O  O258  1  0.24283859  0.76489490  0.11627285  1
  O  O259  1  0.24327146  0.74207930  0.60224295  1
  O  O260  1  0.70998990  0.27198691  0.14042036  1
  O  O261  1  0.78995942  0.27389402  0.63249057  1
  O  O262  1  0.74388219  0.77323969  0.17008662  1
  O  O263  1  0.76078909  0.76201611  0.61289657  1
  O  O264  1  0.23923886  0.20707971  0.35368071  1
  O  O265  1  0.24797682  0.25622219  0.89534902  1
  O  O266  1  0.21908417  0.75833698  0.37370904  1
  O  O267  1  0.23831842  0.75382839  0.88782001  1
  O  O268  1  0.75826073  0.27856868  0.37757158  1
  O  O269  1  0.75978824  0.23553502  0.87104283  1
  O  O270  1  0.73661911  0.74315500  0.39178114  1
  O  O271  1  0.73384599  0.76854366  0.85657334  1
  O  O272  1  -0.01748169  0.09706145  0.01949052  1
  O  O273  1  -0.00467385  0.12175076  0.49933559  1
  O  O274  1  0.00993998  0.62866451  0.00258691  1
  O  O275  1  -0.01784086  0.62000161  0.51007443  1
  O  O276  1  0.50625363  0.13683320  -0.03027518  1
  O  O277  1  0.51935475  0.11489291  0.51178311  1
  O  O278  1  0.49434117  0.64733138  0.00969727  1
  O  O279  1  0.42523163  0.57963800  0.53810142  1
  O  O280  1  0.46056938  0.32535004  0.50270982  1
  O  O281  1  0.55570391  0.36504807  0.93218578  1
  O  O282  1  0.49134563  0.89375317  0.51135542  1
  O  O283  1  0.50625911  0.87847048  0.98859175  1
  O  O284  1  0.98856325  0.39484298  0.45914210  1
  O  O285  1  0.99425703  0.36239394  1.03936892  1
  O  O286  1  0.98162957  0.87158566  0.49120957  1
  O  O287  1  0.99441015  0.87725219  0.99944844  1
  O  O288  1  0.47704902  0.49572295  0.37144764  1
  O  O289  1  0.51169741  0.52230143  0.90966215  1
  O  O290  1  0.51149452  1.00141839  0.40069175  1
  O  O291  1  0.48812568  0.98833703  0.86836882  1
  O  O292  1  1.00687618  0.48127664  0.34519851  1
  O  O293  1  1.06416122  0.41770940  0.82834456  1
  O  O294  1  0.96504130  0.98775086  0.37084287  1
  O  O295  1  1.00717952  0.98798187  0.90023879  1
  O  O296  1  0.00688042  -0.01278788  0.12393878  1
  O  O297  1  0.00355989  -0.03202076  0.63092405  1
  O  O298  1  0.02540352  0.50241782  0.13746444  1
  O  O299  1  0.03272928  0.51646931  0.61994577  1
  O  O300  1  0.50204186  0.02604983  0.11256663  1
  O  O301  1  0.51954613  -0.00297349  0.63080340  1
  O  O302  1  0.51810866  0.50101135  0.09518044  1
  O  O303  1  0.53585235  0.44635125  0.61010225  1
  O  O304  1  0.25816867  0.40336427  0.21632581  1
  O  O305  1  0.24165534  0.41058606  0.75932201  1
  O  O306  1  0.25743050  0.88380803  0.23352531  1
  O  O307  1  0.23594366  0.89054130  0.76696232  1
  O  O308  1  0.73701204  0.39837091  0.27338394  1
  O  O309  1  0.74666272  0.36959607  0.77464734  1
  O  O310  1  0.74243030  0.82961787  0.22342251  1
  O  O311  1  0.74095529  0.88464324  0.73633133  1
  O  O312  1  0.26007852  0.11267864  0.22285583  1
  O  O313  1  0.22554869  0.08656218  0.77103130  1
  O  O314  1  0.26687721  0.61586265  0.24539689  1
  O  O315  1  0.26476287  0.65374653  0.76529852  1
  O  O316  1  0.75851660  0.13684766  0.24918280  1
  O  O317  1  0.77032917  0.10895726  0.76351007  1
  O  O318  1  0.74741064  0.61854552  0.27189382  1
  O  O319  1  0.84545633  0.66028317  0.80521900  1
  O  O320  1  0.42261151  0.12927820  0.34479355  1
  O  O321  1  0.37115339  0.11345713  0.87254154  1
  O  O322  1  0.36376596  0.60381102  0.38891085  1
  O  O323  1  0.36202635  0.64229518  0.87597488  1
  O  O324  1  0.87171252  0.11056272  0.36045912  1
  O  O325  1  0.87028860  0.12236535  0.86423798  1
  O  O326  1  0.85471707  0.63627269  0.36356707  1
  O  O327  1  0.97017309  0.55793770  0.85951559  1
  O  O328  1  0.14879616  0.40691502  0.10660331  1
  O  O329  1  0.12621716  0.38990375  0.62039815  1
  O  O330  1  0.13260536  0.88293256  0.12562237  1
  O  O331  1  0.13394272  0.88089652  0.60236384  1
  O  O332  1  0.63716710  0.39831963  0.10646689  1
  O  O333  1  0.59518314  0.41669026  0.56586340  1
  O  O334  1  0.62061283  0.90890399  0.12515938  1
  O  O335  1  0.63320577  0.88031155  0.63398892  1
  O  O336  1  0.12502204  0.26985759  0.19273174  1
  O  O337  1  0.11071537  0.22187331  0.79071939  1
  O  O338  1  0.10103475  0.72900676  0.24404443  1
  O  O339  1  0.13033758  0.74722532  0.76887884  1
  O  O340  1  0.57054019  0.30332384  0.31326487  1
  O  O341  1  0.62101316  0.24210787  0.75405330  1
  O  O342  1  0.61040037  0.74015476  0.28127576  1
  O  O343  1  0.61252725  0.76671384  0.76046462  1
  O  O344  1  0.36539250  0.25523371  0.20403067  1
  O  O345  1  0.32659601  0.27187743  0.75634135  1
  O  O346  1  0.36257369  0.74111339  0.27823878  1
  O  O347  1  0.39123966  0.75501220  0.76136901  1
  O  O348  1  0.87896024  0.22918585  0.25984969  1
  O  O349  1  0.88994914  0.23977205  0.76205824  1
  O  O350  1  0.88338434  0.74499748  0.24651622  1
  O  O351  1  0.88309216  0.78953985  0.71722549  1
  O  O352  1  0.34859370  0.44966124  0.46485891  1
  O  O353  1  0.38204061  0.52966590  1.00460257  1
  O  O354  1  0.39804458  1.02048657  0.51801576  1
  O  O355  1  0.37116675  1.00647623  0.98753318  1
  O  O356  1  0.84258567  0.49548559  0.53456046  1
  O  O357  1  0.89365045  0.47566267  1.04727109  1
  O  O358  1  0.86688442  0.98774582  0.49761400  1
  O  O359  1  0.88546138  0.97486478  1.01674059  1
  O  O360  1  0.10977803  -0.00700105  0.01451514  1
  O  O361  1  0.12007406  0.00006805  0.50787850  1
  O  O362  1  0.12686557  0.52456064  0.00307854  1
  O  O363  1  0.15670587  0.48909695  0.50548967  1
  O  O364  1  0.62381988  0.02345331  0.00671792  1
  O  O365  1  0.62121439  0.00484802  0.51592323  1
  O  O366  1  0.65112272  0.52019375  0.00074569  1
  O  O367  1  0.62208474  0.46849320  0.51111501  1
  O  O368  1  0.37796397  0.38307650  0.11051444  1
  O  O369  1  0.33790791  0.34620423  0.61105694  1
  O  O370  1  0.35729305  0.88663030  0.10981198  1
  O  O371  1  0.37381710  0.88140540  0.61971671  1
  O  O372  1  0.84302696  0.36706673  0.16369346  1
  O  O373  1  0.92767760  0.34788038  0.62934086  1
  O  O374  1  0.86944374  0.86184500  0.12259874  1
  O  O375  1  0.86187825  0.87424719  0.60185386  1
  O  O376  1  0.11253367  0.10150584  0.39728746  1
  O  O377  1  0.07874849  0.19321008  0.86014408  1
  O  O378  1  0.10365000  0.61014525  0.39530443  1
  O  O379  1  0.13118763  0.64411339  0.88796333  1
  O  O380  1  0.62226212  0.12377567  0.38622186  1
  O  O381  1  0.64783153  0.11341095  0.88014961  1
  O  O382  1  0.63704578  0.62964504  0.38722120  1
  O  O383  1  0.64089755  0.64472531  0.86300347  1
