# generated using pymatgen
data_VZnO4
_symmetry_space_group_name_H-M   'P 1'
_cell_length_a   17.00966143
_cell_length_b   17.12206387
_cell_length_c   16.96290788
_cell_angle_alpha   89.97164942
_cell_angle_beta   90.72480374
_cell_angle_gamma   89.63336922
_symmetry_Int_Tables_number   1
_chemical_formula_structural   VZnO4
_chemical_formula_sum   'V64 Zn64 O256'
_cell_volume   4939.78869106
_cell_formula_units_Z   64
loop_
 _symmetry_equiv_pos_site_id
 _symmetry_equiv_pos_as_xyz
  1  'x, y, z'
loop_
 _atom_site_type_symbol
 _atom_site_label
 _atom_site_symmetry_multiplicity
 _atom_site_fract_x
 _atom_site_fract_y
 _atom_site_fract_z
 _atom_site_occupancy
  V  V0  1  0.25960220  0.87647697  0.11930319  1
  V  V1  1  0.22381642  0.23543162  0.02772313  1
  V  V2  1  0.23540071  0.12351832  0.87388050  1
  V  V3  1  0.43548236  0.71731618  0.24101862  1
  V  V4  1  0.87612014  0.61511350  0.25137672  1
  V  V5  1  -0.00770433  -0.00530886  0.50315058  1
  V  V6  1  0.51086797  0.62983397  0.62185736  1
  V  V7  1  0.46131213  0.56134033  0.09428209  1
  V  V8  1  0.12381619  0.88857961  0.24659373  1
  V  V9  1  0.86265971  0.63004072  0.75924848  1
  V  V10  1  0.63087330  0.78375250  0.90310073  1
  V  V11  1  0.35308975  0.26961669  0.63452300  1
  V  V12  1  0.74408401  0.87468236  0.60908987  1
  V  V13  1  0.25413153  0.37083468  0.14090188  1
  V  V14  1  0.00142013  0.11955674  0.65401539  1
  V  V15  1  0.25559039  0.09364727  0.38913943  1
  V  V16  1  -0.00353790  0.74773579  0.25481145  1
  V  V17  1  0.37416852  0.89506625  0.50074055  1
  V  V18  1  0.52001712  0.04276756  -0.01597433  1
  V  V19  1  0.01535379  0.40048816  0.87148713  1
  V  V20  1  0.74570051  0.49813689  0.75202224  1
  V  V21  1  0.01862865  0.52153925  0.01495220  1
  V  V22  1  0.12195543  0.61746455  0.50249049  1
  V  V23  1  0.64947131  0.59066378  0.00351745  1
  V  V24  1  0.24524539  0.25894668  0.49833966  1
  V  V25  1  0.35631261  0.12497880  0.75515336  1
  V  V26  1  0.66048872  0.25893384  0.86660006  1
  V  V27  1  0.49524386  0.49441822  0.48618021  1
  V  V28  1  0.51492437  0.35705747  0.90094618  1
  V  V29  1  0.88664793  0.39204944  0.00675293  1
  V  V30  1  0.48908351  0.11870667  0.62321796  1
  V  V31  1  0.01843650  0.74857604  0.74925026  1
  V  V32  1  0.51741168  0.26134920  0.74137537  1
  V  V33  1  0.21282988  0.76834612  -0.01960356  1
  V  V34  1  0.62875179  0.87809953  0.24322183  1
  V  V35  1  0.12845982  -0.01084425  0.64516391  1
  V  V36  1  0.74167692  0.65448487  0.36890712  1
  V  V37  1  -0.02064888  0.04810220  0.01343516  1
  V  V38  1  0.88468075  0.75344148  0.10648363  1
  V  V39  1  0.49589546  0.23710734  0.26984600  1
  V  V40  1  0.12477708  0.11877772  0.49872468  1
  V  V41  1  0.79786231  0.26063070  0.53880426  1
  V  V42  1  -0.00939290  0.27172492  0.27256547  1
  V  V43  1  0.12840724  0.36825899  0.26953076  1
  V  V44  1  0.38029095  0.60534804  0.75841187  1
  V  V45  1  0.24337341  0.86899322  0.64116252  1
  V  V46  1  0.12850830  0.75562027  0.38270734  1
  V  V47  1  0.37981928  0.74841730  0.64403854  1
  V  V48  1  0.37341261  0.09260937  0.25918349  1
  V  V49  1  0.37357300  0.22241998  0.13163564  1
  V  V50  1  0.14268000  0.51480591  0.14145823  1
  V  V51  1  0.75170064  -0.00080635  0.28647987  1
  V  V52  1  0.86950835  0.75755713  0.60805494  1
  V  V53  1  0.88468510  -0.02842170  0.85953686  1
  V  V54  1  0.75595374  0.00934103  0.73012790  1
  V  V55  1  0.13135870  0.27009703  0.85473050  1
  V  V56  1  -0.01356968  0.88024089  0.38254740  1
  V  V57  1  0.78477295  0.14529341  0.86098989  1
  V  V58  1  0.87522464  0.11122792  0.25613038  1
  V  V59  1  0.61831844  0.87798369  0.74358032  1
  V  V60  1  0.66674152  0.21541650  0.44587277  1
  V  V61  1  0.26009518  0.74765734  0.50331800  1
  V  V62  1  0.62635282  0.47990207  0.62047430  1
  V  V63  1  -0.00958705  0.61319876  0.61490203  1
  Zn  Zn64  1  0.04822219  0.15387300  0.15132711  1
  Zn  Zn65  1  0.16376668  0.19877873  0.67886827  1
  Zn  Zn66  1  0.29708344  0.66879608  0.11851294  1
  Zn  Zn67  1  0.19499102  0.58365401  0.68488621  1
  Zn  Zn68  1  0.69109373  0.17701479  0.19939420  1
  Zn  Zn69  1  0.67857728  0.18532058  0.63741154  1
  Zn  Zn70  1  0.71421402  0.69168795  0.17279656  1
  Zn  Zn71  1  0.68762456  0.70145580  0.69639879  1
  Zn  Zn72  1  0.26545264  0.24356094  0.28646700  1
  Zn  Zn73  1  0.31855563  0.30964100  0.83700766  1
  Zn  Zn74  1  0.30085924  0.83424362  0.32144556  1
  Zn  Zn75  1  0.22388057  0.74017906  0.77437655  1
  Zn  Zn76  1  0.79290733  0.29165882  0.32644458  1
  Zn  Zn77  1  0.81733943  0.30225303  0.73708752  1
  Zn  Zn78  1  0.81249952  0.82425517  0.30089216  1
  Zn  Zn79  1  0.79712684  0.80470479  0.80398327  1
  Zn  Zn80  1  0.12042811  0.40329733  0.48142760  1
  Zn  Zn81  1  0.18945483  0.42627308  0.96797816  1
  Zn  Zn82  1  0.17942115  0.92956442  0.45367249  1
  Zn  Zn83  1  0.16757971  1.04369923  1.03195867  1
  Zn  Zn84  1  0.66531778  0.39668150  0.46332272  1
  Zn  Zn85  1  0.69439592  0.43467323  0.93276776  1
  Zn  Zn86  1  0.67389513  0.82375341  0.42891371  1
  Zn  Zn87  1  0.68685703  0.97489047  0.89521999  1
  Zn  Zn88  1  0.20047203  0.05241854  0.19909718  1
  Zn  Zn89  1  0.30625142  0.06240703  0.58514574  1
  Zn  Zn90  1  0.32180930  0.59426117  -0.04720607  1
  Zn  Zn91  1  0.31706118  0.56055934  0.56021839  1
  Zn  Zn92  1  0.90164030  0.22658920  0.09169024  1
  Zn  Zn93  1  0.81561932  0.07307528  0.56468150  1
  Zn  Zn94  1  0.85616421  0.61487179  -0.02739077  1
  Zn  Zn95  1  0.78847805  0.58338664  0.56333216  1
  Zn  Zn96  1  0.45244134  0.39924090  0.17180156  1
  Zn  Zn97  1  0.44054801  0.43982562  0.68102773  1
  Zn  Zn98  1  0.43191059  0.90488563  0.21403304  1
  Zn  Zn99  1  0.42311062  0.94105811  0.69301537  1
  Zn  Zn100  1  0.95395428  0.44665228  0.18656640  1
  Zn  Zn101  1  0.93317847  0.44431191  0.70130976  1
  Zn  Zn102  1  0.93951847  0.93598231  0.17866780  1
  Zn  Zn103  1  0.94167447  0.92682483  0.68842895  1
  Zn  Zn104  1  0.05274024  0.06808962  0.32053409  1
  Zn  Zn105  1  0.07271245  0.05101368  0.83985718  1
  Zn  Zn106  1  0.07715814  0.56964845  0.31201041  1
  Zn  Zn107  1  0.03246570  0.59657520  0.83535231  1
  Zn  Zn108  1  0.58294620  0.08433866  0.30759877  1
  Zn  Zn109  1  0.58273637  0.09190217  0.77863073  1
  Zn  Zn110  1  0.53995482  0.57493546  0.29725795  1
  Zn  Zn111  1  0.56663478  0.53117121  0.81866134  1
  Zn  Zn112  1  0.42059846  0.18766246  0.44500338  1
  Zn  Zn113  1  0.41385448  0.20516421  0.93715703  1
  Zn  Zn114  1  0.55135222  0.68285502  0.42448293  1
  Zn  Zn115  1  0.49538405  0.65064199  0.91147142  1
  Zn  Zn116  1  0.94109918  0.18727607  0.43969103  1
  Zn  Zn117  1  0.94192242  0.21894861  0.91629427  1
  Zn  Zn118  1  0.93395235  0.68693015  0.43184266  1
  Zn  Zn119  1  1.01387764  0.72710145  0.96498730  1
  Zn  Zn120  1  0.05925179  0.32793743  0.07998636  1
  Zn  Zn121  1  -0.01938993  0.30443324  0.60327729  1
  Zn  Zn122  1  0.12705076  0.72525863  0.13067930  1
  Zn  Zn123  1  0.05829621  0.80674052  0.56808495  1
  Zn  Zn124  1  0.57361063  0.23803106  0.05042642  1
  Zn  Zn125  1  0.53929452  0.31036814  0.55960923  1
  Zn  Zn126  1  0.57968941  0.74426657  0.09840086  1
  Zn  Zn127  1  0.55557350  0.81769876  0.56412759  1
  O  O128  1  0.13955098  0.10813738  0.12189694  1
  O  O129  1  0.12584865  0.09891625  0.62298199  1
  O  O130  1  0.16581343  0.61287677  0.14801182  1
  O  O131  1  0.10391576  0.62024808  0.61200599  1
  O  O132  1  0.64722072  0.17090176  0.09792057  1
  O  O133  1  0.58900689  0.11697099  0.65781629  1
  O  O134  1  0.64193838  0.64313320  0.09824547  1
  O  O135  1  0.60799099  0.64163006  0.63845215  1
  O  O136  1  0.39400714  0.40323177  0.32401163  1
  O  O137  1  0.41666977  0.31244062  0.89715319  1
  O  O138  1  0.35904980  0.88717027  0.40203025  1
  O  O139  1  0.36661959  0.88141462  0.86248144  1
  O  O140  1  0.79341597  0.41668981  0.34303108  1
  O  O141  1  0.91576251  0.39677587  0.88818237  1
  O  O142  1  0.88919939  0.87421102  0.37601898  1
  O  O143  1  0.86006821  0.87697820  0.87115595  1
  O  O144  1  0.24365034  -0.00308038  0.38426925  1
  O  O145  1  0.22396390  0.02870228  0.87533519  1
  O  O146  1  0.34519756  0.41521021  0.37807345  1
  O  O147  1  0.19536945  0.53899789  0.83904359  1
  O  O148  1  0.76133071  -0.01043942  0.38129802  1
  O  O149  1  0.77870433  0.02770371  0.85310304  1
  O  O150  1  0.73913522  0.45579423  0.37683904  1
  O  O151  1  0.73670284  0.50650900  0.85056965  1
  O  O152  1  0.25231004  0.47175325  0.14216257  1
  O  O153  1  0.24152663  0.51052403  0.61955356  1
  O  O154  1  0.22730383  0.97680862  0.11140886  1
  O  O155  1  0.23894528  0.97941748  0.63445086  1
  O  O156  1  0.70400279  0.48348134  0.21275313  1
  O  O157  1  0.72901415  0.51160049  0.62330235  1
  O  O158  1  0.71718719  0.93134502  0.07216348  1
  O  O159  1  0.76084858  0.98521338  0.62320073  1
  O  O160  1  0.01483965  0.37714849  0.25748974  1
  O  O161  1  0.02205325  0.42602199  0.77532007  1
  O  O162  1  0.00481117  0.87345668  0.26923540  1
  O  O163  1  -0.00106215  0.84606682  0.74844701  1
  O  O164  1  0.51145663  0.33085625  0.23914352  1
  O  O165  1  0.48892168  0.35873041  0.74975474  1
  O  O166  1  0.40129415  0.80967969  0.27211641  1
  O  O167  1  0.52087507  0.90131664  0.73638598  1
  O  O168  1  0.47323919  0.10817825  0.27302130  1
  O  O169  1  0.47478270  0.15299412  0.75096903  1
  O  O170  1  0.49219926  0.57730725  0.19189485  1
  O  O171  1  0.48647474  0.61253187  0.73759748  1
  O  O172  1  0.99046542  0.13677267  0.25218402  1
  O  O173  1  1.01131468  0.10413352  0.75072497  1
  O  O174  1  0.98993388  0.64394939  0.27982229  1
  O  O175  1  0.98263126  0.62992283  0.72854985  1
  O  O176  1  0.34900398  0.22281572  0.02893768  1
  O  O177  1  0.35282044  0.24827641  0.51838163  1
  O  O178  1  0.39368139  0.83858718  -0.08558660  1
  O  O179  1  0.35859935  0.74833454  0.50208532  1
  O  O180  1  0.89106255  0.28570583  -0.00333931  1
  O  O181  1  0.90040255  0.25527025  0.52336307  1
  O  O182  1  0.90648161  0.71843193  0.00960274  1
  O  O183  1  0.87722084  0.75312895  0.50950571  1
  O  O184  1  0.13775634  0.21850843  0.51323586  1
  O  O185  1  0.12445701  0.24880788  1.01746260  1
  O  O186  1  0.12821665  0.75099969  0.49436833  1
  O  O187  1  0.11703369  0.74977002  1.01469053  1
  O  O188  1  0.62245775  0.23686271  0.53908685  1
  O  O189  1  0.67017382  0.25234626  0.96318304  1
  O  O190  1  0.60560789  0.75710567  0.48540254  1
  O  O191  1  0.62793401  0.78760178  1.00450802  1
  O  O192  1  0.47415191  0.22626726  0.12907400  1
  O  O193  1  0.47210278  0.24934867  0.63407466  1
  O  O194  1  0.48347487  0.73951664  0.15560502  1
  O  O195  1  0.48471780  0.74064821  0.61987914  1
  O  O196  1  1.00053736  0.25665233  0.15021972  1
  O  O197  1  1.03877067  0.21518722  0.64512523  1
  O  O198  1  1.01413267  0.73873924  0.15528540  1
  O  O199  1  0.98429444  0.74427002  0.62999683  1
  O  O200  1  0.00542724  0.25155231  0.37057522  1
  O  O201  1  0.02430028  0.28150426  0.86813829  1
  O  O202  1  0.00630059  0.76707689  0.37969325  1
  O  O203  1  0.02046874  0.71306780  0.85065514  1
  O  O204  1  0.48161284  0.24329862  0.36903462  1
  O  O205  1  0.54429584  0.25342593  0.85169732  1
  O  O206  1  0.48921738  0.67911445  0.32531465  1
  O  O207  1  0.53994311  0.74678921  0.87668784  1
  O  O208  1  0.23934123  0.10808681  0.50033078  1
  O  O209  1  0.23205434  0.13341666  0.98542406  1
  O  O210  1  0.23316841  0.64302025  0.50973472  1
  O  O211  1  0.27843271  0.69063956  1.00211702  1
  O  O212  1  0.74668360  0.15796549  0.53322384  1
  O  O213  1  0.78383705  0.14626268  0.95637576  1
  O  O214  1  0.75082047  0.62462813  0.46509795  1
  O  O215  1  0.74610157  0.60836507  0.98532554  1
  O  O216  1  0.24281008  0.34837008  0.03373754  1
  O  O217  1  0.22679959  0.35444380  0.49408628  1
  O  O218  1  0.24576809  0.86307239  0.01113450  1
  O  O219  1  0.25358374  0.86201714  0.51542329  1
  O  O220  1  0.79119658  0.40923495  -0.01494400  1
  O  O221  1  0.76048761  0.35226622  0.52026597  1
  O  O222  1  0.74388328  0.92419176  0.00459365  1
  O  O223  1  0.73865864  0.87549682  0.51002594  1
  O  O224  1  0.12743916  0.49287095  0.24896039  1
  O  O225  1  0.13797051  0.56936510  0.78613848  1
  O  O226  1  0.11741987  0.99125668  0.26156212  1
  O  O227  1  0.12194978  0.99092583  0.74247785  1
  O  O228  1  0.64016887  0.46478632  0.24013475  1
  O  O229  1  0.63304466  0.50696667  0.73137343  1
  O  O230  1  0.64619497  0.99943584  0.26469187  1
  O  O231  1  0.65217587  0.99574796  0.76227560  1
  O  O232  1  0.37054936  -0.00603798  0.25410075  1
  O  O233  1  0.36906159  0.02661385  0.75334769  1
  O  O234  1  0.39863479  0.45835428  0.26611591  1
  O  O235  1  0.36936938  0.50952128  0.74011096  1
  O  O236  1  0.86996793  0.00580226  0.24507106  1
  O  O237  1  0.86244806  -0.01618995  0.74846746  1
  O  O238  1  0.88889065  0.51755429  0.24776604  1
  O  O239  1  0.85751567  0.52297220  0.73512868  1
  O  O240  1  0.13477958  0.38969975  0.36656550  1
  O  O241  1  0.13151281  0.37393189  0.88717887  1
  O  O242  1  0.11710670  0.86714689  0.37678157  1
  O  O243  1  0.08073363  0.88096738  0.91647187  1
  O  O244  1  0.63670548  0.30362513  0.40116601  1
  O  O245  1  0.62969953  0.36542126  0.86693062  1
  O  O246  1  0.60973588  0.85814236  0.33869492  1
  O  O247  1  0.63183772  0.88253485  0.86088423  1
  O  O248  1  0.35551356  0.11780174  0.15547546  1
  O  O249  1  0.36788124  0.13996817  0.64274656  1
  O  O250  1  0.36065693  0.58004023  0.06684271  1
  O  O251  1  0.38280732  0.63791236  0.63381262  1
  O  O252  1  0.85620040  0.16414508  0.17009482  1
  O  O253  1  0.90417296  0.11921227  0.62968995  1
  O  O254  1  0.88650445  0.64643933  0.15448954  1
  O  O255  1  0.87602760  0.63941922  0.61658571  1
  O  O256  1  0.24380338  0.23746939  0.13038317  1
  O  O257  1  0.24781326  0.24872128  0.61581816  1
  O  O258  1  0.23361531  0.77033856  0.13007454  1
  O  O259  1  0.26220491  0.75653172  0.61780452  1
  O  O260  1  0.74927937  0.33107228  0.16132821  1
  O  O261  1  0.77693308  0.25185366  0.64064450  1
  O  O262  1  0.78606819  0.75575942  0.10896910  1
  O  O263  1  0.75919108  0.76181848  0.62305816  1
  O  O264  1  0.25039633  0.22474185  0.39919931  1
  O  O265  1  0.23447574  0.25683570  0.89952789  1
  O  O266  1  0.23611645  0.75976848  0.38897582  1
  O  O267  1  0.20714817  0.76930795  0.88167408  1
  O  O268  1  0.77242608  0.23627094  0.42083038  1
  O  O269  1  0.76440181  0.25628350  0.83024930  1
  O  O270  1  0.74754360  0.75758001  0.36733338  1
  O  O271  1  0.72116610  0.74827665  0.86946866  1
  O  O272  1  -0.03364915  0.14943271  0.01396300  1
  O  O273  1  0.01391318  0.10980115  0.50052747  1
  O  O274  1  0.03114417  0.61806061  0.00472147  1
  O  O275  1  0.00680816  0.63252787  0.50579771  1
  O  O276  1  0.51085715  0.14898715  -0.01905746  1
  O  O277  1  0.48614260  0.13634047  0.52430350  1
  O  O278  1  0.51242059  0.61555442  0.02384642  1
  O  O279  1  0.51021013  0.61600628  0.51712633  1
  O  O280  1  0.49608024  0.39304799  0.49770179  1
  O  O281  1  0.53681467  0.33290246  0.99712055  1
  O  O282  1  0.47217325  0.87766454  0.51745004  1
  O  O283  1  0.51716720  0.94184715  0.98684094  1
  O  O284  1  0.98906247  0.43883107  0.40925311  1
  O  O285  1  1.01172618  0.40000799  1.00289684  1
  O  O286  1  1.00373222  0.88562542  0.49551110  1
  O  O287  1  1.01806069  0.86105810  0.94612535  1
  O  O288  1  0.51426516  0.51122082  0.38811072  1
  O  O289  1  0.50403798  0.45579184  0.88141028  1
  O  O290  1  0.52045402  1.00136089  0.40378899  1
  O  O291  1  0.51843110  1.04686905  0.87668959  1
  O  O292  1  0.98452946  0.50560316  0.37995071  1
  O  O293  1  1.03694097  0.50588006  0.90384672  1
  O  O294  1  1.00281546  0.98918997  0.39192395  1
  O  O295  1  0.98179022  0.97810057  0.83966638  1
  O  O296  1  -0.01747156  0.01678182  0.10948512  1
  O  O297  1  0.01171205  -0.00377836  0.62189746  1
  O  O298  1  0.03132992  0.51234988  0.12760844  1
  O  O299  1  -0.02168867  0.51723798  0.61925404  1
  O  O300  1  0.54187050  0.05021534  0.08367960  1
  O  O301  1  0.47094971  0.02238092  0.63015114  1
  O  O302  1  0.47340150  0.46281282  0.08261886  1
  O  O303  1  0.51315690  0.50990432  0.62052164  1
  O  O304  1  0.23914222  0.34872265  0.24868737  1
  O  O305  1  0.29868871  0.43019044  0.84849729  1
  O  O306  1  0.23094746  0.87785688  0.24077187  1
  O  O307  1  0.24550019  0.85130656  0.73772259  1
  O  O308  1  0.72095383  0.28452452  0.23423370  1
  O  O309  1  0.75925935  0.40220736  0.74006366  1
  O  O310  1  0.74717502  0.89817024  0.24333969  1
  O  O311  1  0.74003038  0.88307831  0.73285296  1
  O  O312  1  0.25380186  0.11855022  0.27826712  1
  O  O313  1  0.24920944  0.13577938  0.75595812  1
  O  O314  1  0.26353417  0.55078898  0.33113351  1
  O  O315  1  0.27792421  0.64261055  0.74884139  1
  O  O316  1  0.75860358  0.10521085  0.26125813  1
  O  O317  1  0.75571360  0.10698702  0.71693153  1
  O  O318  1  0.76588356  0.63141418  0.25596054  1
  O  O319  1  0.75895820  0.62690311  0.74361523  1
  O  O320  1  0.35962735  0.10814559  0.38099620  1
  O  O321  1  0.34795176  0.14387755  0.86473903  1
  O  O322  1  0.31878246  0.58661507  0.35973779  1
  O  O323  1  0.39430307  0.61471652  0.86596907  1
  O  O324  1  0.88175144  0.13564128  0.35491501  1
  O  O325  1  0.88436255  0.15544540  0.84028803  1
  O  O326  1  0.85999456  0.63794393  0.36093594  1
  O  O327  1  0.88110280  0.62346726  0.85732172  1
  O  O328  1  0.13676727  0.38394034  0.14846957  1
  O  O329  1  0.03842251  0.37945957  0.54785319  1
  O  O330  1  0.10456321  0.87620527  0.15165359  1
  O  O331  1  0.13380260  0.87848402  0.62174519  1
  O  O332  1  0.69428513  0.34578567  0.11435044  1
  O  O333  1  0.61892519  0.38352300  0.62512697  1
  O  O334  1  0.54105114  0.90587357  0.19930825  1
  O  O335  1  0.63681387  0.87654288  0.62726788  1
  O  O336  1  0.11250543  0.26750364  0.26361955  1
  O  O337  1  0.15006122  0.28171655  0.75882736  1
  O  O338  1  0.11249484  0.76275807  0.27212177  1
  O  O339  1  0.11498177  0.73781851  0.72732625  1
  O  O340  1  0.58912008  0.19149957  0.25567455  1
  O  O341  1  0.61277140  0.25927593  0.71698051  1
  O  O342  1  0.64541213  0.78725547  0.19458780  1
  O  O343  1  0.62051086  0.77797886  0.74507528  1
  O  O344  1  0.37817184  0.22477603  0.25066245  1
  O  O345  1  0.35221730  0.25428147  0.74072041  1
  O  O346  1  0.35045651  0.66716138  0.21940699  1
  O  O347  1  0.38373621  0.75432777  0.74047182  1
  O  O348  1  0.89095939  0.28729731  0.26991142  1
  O  O349  1  0.91015425  0.33833968  0.68499989  1
  O  O350  1  0.89336032  0.76424404  0.24628265  1
  O  O351  1  0.87283939  0.73730118  0.74026344  1
  O  O352  1  0.39649823  0.51534440  0.49908235  1
  O  O353  1  0.30061679  0.45610052  0.92129937  1
  O  O354  1  0.36127013  0.99164208  0.51803247  1
  O  O355  1  0.41770529  1.04008504  0.98959234  1
  O  O356  1  0.86199259  0.50405555  0.48305314  1
  O  O357  1  0.91326366  0.51603231  1.00747332  1
  O  O358  1  0.89500732  1.00771200  0.51013297  1
  O  O359  1  0.89787188  1.00780465  0.96407427  1
  O  O360  1  0.07069391  0.03107818  -0.03505482  1
  O  O361  1  0.11542482  0.00164670  0.51520858  1
  O  O362  1  0.13856751  0.50066432  0.03343429  1
  O  O363  1  0.12884077  0.52285619  0.48290945  1
  O  O364  1  0.62426099  0.04170413  -0.03473399  1
  O  O365  1  0.56396689  -0.01048424  0.46089086  1
  O  O366  1  0.64434615  0.49297998  0.01979391  1
  O  O367  1  0.61800939  0.49064378  0.51183802  1
  O  O368  1  0.35615871  0.33845954  0.14399949  1
  O  O369  1  0.36451626  0.36703758  0.63041362  1
  O  O370  1  0.35755142  0.88039850  0.12677134  1
  O  O371  1  0.36104841  0.86526624  0.62707583  1
  O  O372  1  0.89167493  0.39382647  0.10906418  1
  O  O373  1  0.89319573  0.44096149  0.50137752  1
  O  O374  1  0.91010841  0.85062169  0.11074784  1
  O  O375  1  0.86519569  0.86211299  0.62473546  1
  O  O376  1  0.13449579  0.11115611  0.39374287  1
  O  O377  1  0.13026919  0.15661187  0.85851862  1
  O  O378  1  0.11677173  0.64690800  0.38833761  1
  O  O379  1  0.20677233  0.58445060  0.90148149  1
  O  O380  1  0.62881521  0.13556436  0.40121091  1
  O  O381  1  0.66351449  0.15204078  0.83901286  1
  O  O382  1  0.64230238  0.62911309  0.34915083  1
  O  O383  1  0.60368293  0.60008491  0.90401190  1
