# generated using pymatgen
data_VZnO4
_symmetry_space_group_name_H-M   'P 1'
_cell_length_a   17.01383299
_cell_length_b   17.05600192
_cell_length_c   16.98872272
_cell_angle_alpha   89.69534858
_cell_angle_beta   90.19591875
_cell_angle_gamma   89.95060572
_symmetry_Int_Tables_number   1
_chemical_formula_structural   VZnO4
_chemical_formula_sum   'V64 Zn64 O256'
_cell_volume   4929.82250351
_cell_formula_units_Z   64
loop_
 _symmetry_equiv_pos_site_id
 _symmetry_equiv_pos_as_xyz
  1  'x, y, z'
loop_
 _atom_site_type_symbol
 _atom_site_label
 _atom_site_symmetry_multiplicity
 _atom_site_fract_x
 _atom_site_fract_y
 _atom_site_fract_z
 _atom_site_occupancy
  V  V0  1  0.51549857  0.83971584  0.35281317  1
  V  V1  1  0.12519485  0.38569722  0.25094869  1
  V  V2  1  0.64336922  0.23363023  0.87730009  1
  V  V3  1  0.49602179  0.22641193  0.75999086  1
  V  V4  1  0.12171276  0.75035537  0.88197246  1
  V  V5  1  0.49974230  -0.00504486  0.51603442  1
  V  V6  1  0.19221256  -0.02002370  0.20587179  1
  V  V7  1  0.38993498  0.04028256  0.37477019  1
  V  V8  1  0.61789027  0.51196272  0.61808858  1
  V  V9  1  -0.00507896  0.00292405  0.00438303  1
  V  V10  1  0.47815428  0.14247972  0.12679054  1
  V  V11  1  0.75333285  0.37297368  0.12875306  1
  V  V12  1  0.77929121  0.63985974  0.38257552  1
  V  V13  1  0.51795853  0.48580751  -0.01476690  1
  V  V14  1  0.85850496  0.00303234  0.86817937  1
  V  V15  1  0.87936964  0.23504000  0.11298427  1
  V  V16  1  0.86467143  0.12791794  0.74822848  1
  V  V17  1  0.00667394  0.87889884  0.36649101  1
  V  V18  1  0.61296612  0.13583919  0.50205862  1
  V  V19  1  0.24645317  0.59761752  0.36017074  1
  V  V20  1  -0.01266481  0.75177724  0.74721123  1
  V  V21  1  0.87840892  0.75642568  0.10284916  1
  V  V22  1  0.74328008  0.86870469  0.12822206  1
  V  V23  1  0.25636660  0.11911105  0.86577777  1
  V  V24  1  -0.00427616  0.48694947  0.49950019  1
  V  V25  1  0.61656823  0.37372037  0.75728164  1
  V  V26  1  0.74624884  0.25452916  0.48801931  1
  V  V27  1  0.12837397  0.49812991  0.62799397  1
  V  V28  1  0.73845815  -0.00275460  0.25416127  1
  V  V29  1  0.13296945  0.63547975  0.50135600  1
  V  V30  1  -0.00591219  0.62849801  0.62361865  1
  V  V31  1  0.11183104  0.23987706  0.86452508  1
  V  V32  1  0.12525301  0.37614158  0.75122798  1
  V  V33  1  0.62105969  0.76811410  0.89536839  1
  V  V34  1  0.87546514  0.12149060  0.26404671  1
  V  V35  1  0.37886810  0.23760472  0.63240518  1
  V  V36  1  0.25177680  0.37055333  0.62028853  1
  V  V37  1  0.87748865  -0.00362376  0.38895743  1
  V  V38  1  0.47411539  0.00382593  0.01762025  1
  V  V39  1  0.87532005  0.37239963  -0.00243221  1
  V  V40  1  0.63063039  0.50778428  0.13066576  1
  V  V41  1  0.87900756  0.50000418  0.87866886  1
  V  V42  1  0.63632352  0.87844585  0.73651902  1
  V  V43  1  0.01005980  0.24447475  0.25400507  1
  V  V44  1  0.86740472  0.62813679  0.74494710  1
  V  V45  1  0.88766085  0.26193833  0.62645025  1
  V  V46  1  0.11290615  0.12782270  0.01285935  1
  V  V47  1  0.10667238  0.60238750  -0.00489022  1
  V  V48  1  0.25530251  0.61541941  0.87349298  1
  V  V49  1  0.74932458  0.37199219  0.62119625  1
  V  V50  1  0.75044973  0.49940709  0.74873947  1
  V  V51  1  -0.00793150  0.61456574  0.12945671  1
  V  V52  1  0.46866326  0.62271380  0.61770192  1
  V  V53  1  0.12133409  0.13916420  0.49178550  1
  V  V54  1  0.00577978  0.10371769  0.62603876  1
  V  V55  1  0.38712394  0.37483451  0.49360035  1
  V  V56  1  0.25296669  0.25197751  0.00347826  1
  V  V57  1  0.73857913  0.62593061  0.88523291  1
  V  V58  1  0.12089424  0.88340460  0.73396238  1
  V  V59  1  0.24677301  0.38209934  0.12018440  1
  V  V60  1  -0.01423730  0.87805623  0.87482755  1
  V  V61  1  -0.00233077  0.37457923  0.87260808  1
  V  V62  1  0.53085089  0.25105676  0.25595438  1
  V  V63  1  0.88858209  0.47443007  0.36736765  1
  Zn  Zn64  1  0.21310086  0.17842042  0.20049357  1
  Zn  Zn65  1  0.18490523  0.18588503  0.68285455  1
  Zn  Zn66  1  0.18034998  0.55764617  0.17426373  1
  Zn  Zn67  1  0.17321794  0.68135420  0.70229603  1
  Zn  Zn68  1  0.70227280  0.18997996  0.18830800  1
  Zn  Zn69  1  0.68418633  0.18938457  0.68708759  1
  Zn  Zn70  1  0.71784974  0.67086865  0.18581886  1
  Zn  Zn71  1  0.51075677  0.74140285  0.75039062  1
  Zn  Zn72  1  0.31555380  0.31100604  0.30157678  1
  Zn  Zn73  1  0.29758829  0.29399200  0.80247229  1
  Zn  Zn74  1  0.34007299  0.90901845  0.30255869  1
  Zn  Zn75  1  0.28794144  0.95895954  0.77970349  1
  Zn  Zn76  1  0.82330099  0.31038259  0.30573363  1
  Zn  Zn77  1  0.81413849  0.31224339  0.80692710  1
  Zn  Zn78  1  0.79932227  0.83107323  0.33296805  1
  Zn  Zn79  1  0.79830011  0.81044087  0.81338028  1
  Zn  Zn80  1  0.18218821  0.42970555  0.43910251  1
  Zn  Zn81  1  0.18336023  0.43290692  0.93098476  1
  Zn  Zn82  1  0.18218927  0.98516763  0.40326319  1
  Zn  Zn83  1  0.16203513  0.94809785  0.92146483  1
  Zn  Zn84  1  0.70732065  0.47451842  0.45301915  1
  Zn  Zn85  1  0.69372985  0.43308299  0.93773362  1
  Zn  Zn86  1  0.67268201  0.95605503  0.43655379  1
  Zn  Zn87  1  0.69160425  0.94549764  0.95459278  1
  Zn  Zn88  1  0.30558596  0.07717966  0.07545802  1
  Zn  Zn89  1  0.31926424  0.07472132  0.55190384  1
  Zn  Zn90  1  0.29261343  0.53836796  0.01423434  1
  Zn  Zn91  1  0.31400293  0.55196691  0.55681409  1
  Zn  Zn92  1  0.84045923  0.02853067  0.08118451  1
  Zn  Zn93  1  0.82762713  0.09559487  0.54777974  1
  Zn  Zn94  1  0.82129195  0.56053107  0.06500616  1
  Zn  Zn95  1  0.81260532  0.56173558  0.55751019  1
  Zn  Zn96  1  0.45553458  0.40462779  0.12452434  1
  Zn  Zn97  1  0.44110116  0.43595912  0.68073879  1
  Zn  Zn98  1  0.49743973  0.96301329  0.21259942  1
  Zn  Zn99  1  0.47546737  0.96053142  0.71738955  1
  Zn  Zn100  1  0.94415880  0.42898266  0.18560329  1
  Zn  Zn101  1  0.94044478  0.43981741  0.69118531  1
  Zn  Zn102  1  0.93914696  0.93060174  0.19600623  1
  Zn  Zn103  1  0.92392673  0.93894357  0.68579443  1
  Zn  Zn104  1  0.05121362  0.07026909  0.31678927  1
  Zn  Zn105  1  0.04946162  0.06143153  0.80599878  1
  Zn  Zn106  1  0.06247660  0.56631353  0.31752160  1
  Zn  Zn107  1  0.05810712  0.56216554  0.80923093  1
  Zn  Zn108  1  0.56794383  0.08515037  0.32645265  1
  Zn  Zn109  1  0.56555107  0.05240605  0.83546510  1
  Zn  Zn110  1  0.75251503  0.49899445  0.25577044  1
  Zn  Zn111  1  0.55718172  0.56456923  0.80148053  1
  Zn  Zn112  1  0.43792065  0.21838783  0.43239714  1
  Zn  Zn113  1  0.43916057  0.18896784  0.93675521  1
  Zn  Zn114  1  0.44029218  0.66823392  0.42171490  1
  Zn  Zn115  1  0.44488215  0.67999007  0.93279979  1
  Zn  Zn116  1  0.94221632  0.19886295  0.44420149  1
  Zn  Zn117  1  0.93267406  0.18480166  0.93148724  1
  Zn  Zn118  1  0.95554159  0.69152070  0.43741821  1
  Zn  Zn119  1  0.93274250  0.68513583  0.93488066  1
  Zn  Zn120  1  0.06147452  0.31200067  0.06451533  1
  Zn  Zn121  1  0.06886222  0.31147951  0.55990297  1
  Zn  Zn122  1  0.04580219  0.81038927  0.05865805  1
  Zn  Zn123  1  0.09786719  0.84736834  0.52596050  1
  Zn  Zn124  1  0.57455869  0.30729198  0.05322500  1
  Zn  Zn125  1  0.56210020  0.30451744  0.57022353  1
  Zn  Zn126  1  0.56442299  0.82098788  0.06025094  1
  Zn  Zn127  1  0.52934286  0.82912940  0.60264337  1
  O  O128  1  0.11079646  0.13450315  0.10784880  1
  O  O129  1  0.10725168  0.12406768  0.63015506  1
  O  O130  1  0.10768412  0.61333341  0.10376664  1
  O  O131  1  0.11390345  0.61485646  0.62241313  1
  O  O132  1  0.64251555  0.12798578  0.10442062  1
  O  O133  1  0.62999605  0.14147812  0.60504315  1
  O  O134  1  0.65173100  0.60641830  0.12231134  1
  O  O135  1  0.63429318  0.60601121  0.61874387  1
  O  O136  1  0.37004535  0.34225103  0.39789080  1
  O  O137  1  0.37381917  0.40435253  0.84041369  1
  O  O138  1  0.41984981  0.87171409  0.37434061  1
  O  O139  1  0.30899238  0.86160244  0.94819658  1
  O  O140  1  0.89362982  0.37666702  0.37165743  1
  O  O141  1  0.87987028  0.37912097  0.87597042  1
  O  O142  1  0.88951991  0.88904182  0.37841098  1
  O  O143  1  0.87588580  0.89095234  0.86537798  1
  O  O144  1  0.29472960  -0.01055952  0.38216355  1
  O  O145  1  0.23922840  0.01377106  0.87085855  1
  O  O146  1  0.25143820  0.50064235  0.38084860  1
  O  O147  1  0.26077237  0.51088882  0.90134023  1
  O  O148  1  0.76417489  -0.01138332  0.36441514  1
  O  O149  1  0.76154796  0.00306181  0.88291848  1
  O  O150  1  0.78020986  0.48758930  0.37093436  1
  O  O151  1  0.75990703  0.50190449  0.86524624  1
  O  O152  1  0.24176896  0.48866017  0.10493049  1
  O  O153  1  0.23575698  0.48414302  0.62398926  1
  O  O154  1  0.12903506  0.94192371  0.14185661  1
  O  O155  1  0.27398673  0.97459976  0.61909984  1
  O  O156  1  0.75644932  0.48676728  0.12498325  1
  O  O157  1  0.74615020  0.48973258  0.63050594  1
  O  O158  1  0.75951319  0.98472475  0.14519938  1
  O  O159  1  0.78251729  0.93195168  0.58297175  1
  O  O160  1  0.01721433  0.35761062  0.24077242  1
  O  O161  1  0.00795436  0.37522105  0.76183577  1
  O  O162  1  0.01586078  0.88381223  0.26705723  1
  O  O163  1  -0.00962875  0.86626104  0.75215895  1
  O  O164  1  0.47998463  0.35537563  0.23189654  1
  O  O165  1  0.51729192  0.37912389  0.74784909  1
  O  O166  1  0.51955450  0.86174317  0.25145208  1
  O  O167  1  0.49724308  0.84865226  0.71328042  1
  O  O168  1  0.51518178  0.14430042  0.23884870  1
  O  O169  1  0.50314964  0.12959323  0.75749467  1
  O  O170  1  0.46943942  0.56408134  0.27724604  1
  O  O171  1  0.50148818  0.63006511  0.73188130  1
  O  O172  1  0.98264449  0.12905843  0.24431496  1
  O  O173  1  0.98593918  0.12157622  0.73223752  1
  O  O174  1  1.01771114  0.62067678  0.22740629  1
  O  O175  1  0.98546727  0.62949722  0.74440541  1
  O  O176  1  0.35020855  0.25085649  -0.01304842  1
  O  O177  1  0.37721234  0.25995636  0.52947628  1
  O  O178  1  0.41301951  0.75468240  0.01891702  1
  O  O179  1  0.33101501  0.79102822  0.49288422  1
  O  O180  1  0.88124444  0.25382565  0.00728821  1
  O  O181  1  0.86526274  0.24794562  0.51961213  1
  O  O182  1  0.87304073  0.75677552  0.00331280  1
  O  O183  1  0.90752487  0.78197544  0.51898524  1
  O  O184  1  0.13287422  0.23832921  0.51208400  1
  O  O185  1  0.11815686  0.23839421  0.98638381  1
  O  O186  1  0.12260909  0.73345803  0.50956175  1
  O  O187  1  0.11201604  0.75998148  0.98248820  1
  O  O188  1  0.64214031  0.26021183  0.50024059  1
  O  O189  1  0.62883369  0.25202239  0.97471227  1
  O  O190  1  0.66784823  0.74541882  0.52251483  1
  O  O191  1  0.61292766  0.74281415  0.99392768  1
  O  O192  1  0.51784353  0.24156855  0.12785427  1
  O  O193  1  0.48770730  0.25442189  0.64702539  1
  O  O194  1  0.52009691  0.72050247  0.14253857  1
  O  O195  1  0.48901671  0.72357390  0.61338592  1
  O  O196  1  0.98258593  0.25160267  0.13304339  1
  O  O197  1  0.98641389  0.26461986  0.62593589  1
  O  O198  1  0.98329028  0.74459283  0.12356595  1
  O  O199  1  0.99886517  0.73189461  0.63864813  1
  O  O200  1  -0.01001350  0.24599817  0.35299355  1
  O  O201  1  0.00750360  0.25592774  0.87347433  1
  O  O202  1  0.00177142  0.77965456  0.38759740  1
  O  O203  1  -0.00862822  0.76163669  0.86617931  1
  O  O204  1  0.51702722  0.25334348  0.35487819  1
  O  O205  1  0.50863102  0.24556270  0.86281737  1
  O  O206  1  0.51025523  0.73799200  0.36982258  1
  O  O207  1  0.51997002  0.73592566  0.87180190  1
  O  O208  1  0.22670335  0.11745182  0.50966716  1
  O  O209  1  0.22866798  0.13358241  0.99127423  1
  O  O210  1  0.23165207  0.61787319  0.51112109  1
  O  O211  1  0.21485595  0.62602425  0.98411868  1
  O  O212  1  0.74453413  0.15087213  0.50195761  1
  O  O213  1  0.67898401  0.08884302  1.04656212  1
  O  O214  1  0.74248670  0.59795874  0.47214626  1
  O  O215  1  0.75646312  0.61183015  0.98175170  1
  O  O216  1  0.23012305  0.35874287  0.00574549  1
  O  O217  1  0.24532776  0.36751094  0.51932943  1
  O  O218  1  0.25051854  0.87888181  -0.01125352  1
  O  O219  1  0.27204621  0.91520522  0.57643494  1
  O  O220  1  0.76934116  0.37527512  0.00526650  1
  O  O221  1  0.75135847  0.37437598  0.51795483  1
  O  O222  1  0.75545949  0.88749234  0.02954431  1
  O  O223  1  0.75067350  0.89668142  0.52123633  1
  O  O224  1  0.11484133  0.48768901  0.24560771  1
  O  O225  1  0.11169279  0.49035682  0.73719938  1
  O  O226  1  0.14324225  1.00823283  0.29427402  1
  O  O227  1  0.10730803  0.98157441  0.74961850  1
  O  O228  1  0.63848777  0.49043226  0.22885644  1
  O  O229  1  0.63367797  0.48794749  0.74061129  1
  O  O230  1  0.64041581  1.01268308  0.25989146  1
  O  O231  1  0.58559481  0.96864834  0.76332987  1
  O  O232  1  0.40727981  0.00764467  0.27461184  1
  O  O233  1  0.37660451  0.00042174  0.73843917  1
  O  O234  1  0.41459876  0.54726603  0.23306678  1
  O  O235  1  0.37754993  0.46007850  0.79113031  1
  O  O236  1  0.87527013  0.01128561  0.25892672  1
  O  O237  1  0.87200990  0.01246165  0.75915003  1
  O  O238  1  0.89096108  0.49332434  0.26661936  1
  O  O239  1  0.86825506  0.50645451  0.75567955  1
  O  O240  1  0.13841216  0.37119582  0.35030182  1
  O  O241  1  0.11561816  0.36439808  0.86866340  1
  O  O242  1  0.09794940  0.89603025  0.42318668  1
  O  O243  1  0.10470794  0.86601137  0.86312976  1
  O  O244  1  0.60755650  0.40642413  0.36879367  1
  O  O245  1  0.63708977  0.36850177  0.85774802  1
  O  O246  1  0.60293428  0.87855888  0.39203931  1
  O  O247  1  0.62603101  0.86815959  0.90400504  1
  O  O248  1  0.38040257  0.14925501  0.13586660  1
  O  O249  1  0.36586050  0.14095521  0.63196942  1
  O  O250  1  0.34302379  0.72309154  0.04968808  1
  O  O251  1  0.37103604  0.60645753  0.63759080  1
  O  O252  1  0.86776883  0.13479900  0.11831520  1
  O  O253  1  0.88832578  0.13832007  0.63110025  1
  O  O254  1  0.87998776  0.64220684  0.12255669  1
  O  O255  1  0.87965349  0.61663583  0.63362149  1
  O  O256  1  0.24133424  0.24986691  0.10632250  1
  O  O257  1  0.26361703  0.26431354  0.64580069  1
  O  O258  1  0.30292964  0.76887534  0.09276802  1
  O  O259  1  0.24525311  0.73930924  0.63354153  1
  O  O260  1  0.77117326  0.26290900  0.12588727  1
  O  O261  1  0.75779980  0.26583538  0.62519674  1
  O  O262  1  0.76865449  0.75816665  0.13843124  1
  O  O263  1  0.72667895  0.74455740  0.56357800  1
  O  O264  1  0.26565651  0.21342794  0.29100329  1
  O  O265  1  0.23028333  0.24212729  0.88314940  1
  O  O266  1  0.27050154  0.80294149  0.45508866  1
  O  O267  1  0.21898824  0.73515938  0.87148090  1
  O  O268  1  0.76337474  0.26890507  0.39175247  1
  O  O269  1  0.74254772  0.24786818  0.86311145  1
  O  O270  1  0.77077087  0.73956009  0.38953424  1
  O  O271  1  0.73346236  0.73486360  0.87695505  1
  O  O272  1  0.00470478  0.11573145  -0.01010171  1
  O  O273  1  0.00556790  0.13551354  0.51933715  1
  O  O274  1  0.00247400  0.63058361  0.00785195  1
  O  O275  1  0.01098921  0.61799716  0.50885704  1
  O  O276  1  0.48647242  0.12822279  0.02088840  1
  O  O277  1  0.51431365  0.15847418  0.49866138  1
  O  O278  1  0.46904436  0.58858807  0.00859843  1
  O  O279  1  0.46980291  0.61048096  0.51423862  1
  O  O280  1  0.48611375  0.36822365  0.51240298  1
  O  O281  1  0.49595033  0.38604467  1.01266260  1
  O  O282  1  0.49853342  0.89477256  0.51563413  1
  O  O283  1  0.49888684  0.90744119  1.04142318  1
  O  O284  1  1.00772658  0.38919499  0.50342062  1
  O  O285  1  0.99027056  0.36787471  0.98344736  1
  O  O286  1  0.95258842  0.83991675  0.53108094  1
  O  O287  1  1.00339091  0.89286811  0.98772547  1
  O  O288  1  0.54106018  0.43431929  0.36461367  1
  O  O289  1  0.51755944  0.49455170  0.88582843  1
  O  O290  1  0.49707607  1.02449067  0.39502351  1
  O  O291  1  0.50236497  1.01287215  0.92060270  1
  O  O292  1  0.99693762  0.50552303  0.39069327  1
  O  O293  1  0.98618607  0.48952756  0.86501625  1
  O  O294  1  0.98367352  0.99612980  0.37853078  1
  O  O295  1  0.98891871  0.99185015  0.87870944  1
  O  O296  1  -0.03019787  -0.00306054  0.10219288  1
  O  O297  1  -0.01110973  0.00593099  0.61804423  1
  O  O298  1  -0.02606060  0.51709178  0.11896631  1
  O  O299  1  0.00339345  0.50610059  0.61636098  1
  O  O300  1  0.50262025  0.03434963  0.12724963  1
  O  O301  1  0.49463578  0.01629006  0.61237120  1
  O  O302  1  0.52722026  0.49521798  0.11918590  1
  O  O303  1  0.51055893  0.51198740  0.63450390  1
  O  O304  1  0.23807001  0.37339115  0.22980245  1
  O  O305  1  0.23118248  0.37385435  0.74804917  1
  O  O306  1  0.25978184  0.90572407  0.22664803  1
  O  O307  1  0.22046747  0.87459636  0.75283160  1
  O  O308  1  0.76766737  0.37789040  0.23153803  1
  O  O309  1  0.74761600  0.38590862  0.74272994  1
  O  O310  1  0.75172962  0.88848563  0.24894573  1
  O  O311  1  0.73463664  0.88810971  0.76167916  1
  O  O312  1  0.23769508  0.06779204  0.16627282  1
  O  O313  1  0.24459815  0.13446303  0.76676285  1
  O  O314  1  0.23520676  0.60797522  0.26017495  1
  O  O315  1  0.22377493  0.61151302  0.77766949  1
  O  O316  1  0.76687370  0.11083847  0.24434800  1
  O  O317  1  0.76672525  0.12355509  0.73165772  1
  O  O318  1  0.92996308  0.71837879  0.28121707  1
  O  O319  1  0.75799893  0.61056167  0.75805086  1
  O  O320  1  0.37646249  0.13872860  0.37553307  1
  O  O321  1  0.35315596  0.12997242  0.88185306  1
  O  O322  1  0.33392403  0.64370414  0.38523901  1
  O  O323  1  0.35096485  0.64146002  0.87989883  1
  O  O324  1  0.87788687  0.11872018  0.36731146  1
  O  O325  1  0.87695694  0.11963016  0.85584718  1
  O  O326  1  0.87982335  0.62223329  0.38694721  1
  O  O327  1  0.86762762  0.61668738  0.86507659  1
  O  O328  1  0.13208868  0.36774520  0.13404790  1
  O  O329  1  0.13151832  0.37783994  0.63339120  1
  O  O330  1  0.15701358  0.79459176  0.13985699  1
  O  O331  1  0.11007975  0.86856810  0.63424453  1
  O  O332  1  0.65223875  0.37551749  0.11331148  1
  O  O333  1  0.63919829  0.37032472  0.64038314  1
  O  O334  1  0.64457091  0.85710213  0.13444707  1
  O  O335  1  0.63529645  0.87011886  0.63643136  1
  O  O336  1  0.10774708  0.23127273  0.24109591  1
  O  O337  1  0.12368506  0.25768021  0.76137144  1
  O  O338  1  0.15772808  0.76882456  0.20761354  1
  O  O339  1  0.10188405  0.75569566  0.76006017  1
  O  O340  1  0.63104087  0.25830913  0.24281843  1
  O  O341  1  0.61439617  0.25720721  0.75469544  1
  O  O342  1  0.55444728  0.70383773  0.20508719  1
  O  O343  1  0.62337260  0.77972684  0.77614016  1
  O  O344  1  0.42077899  0.29598299  0.23804501  1
  O  O345  1  0.38864372  0.25254320  0.75037272  1
  O  O346  1  0.38625525  0.70209824  0.22385557  1
  O  O347  1  0.30821480  0.75862274  0.68266574  1
  O  O348  1  0.87731552  0.23223550  0.23917162  1
  O  O349  1  0.87254538  0.23930657  0.73735633  1
  O  O350  1  0.87737377  0.75952398  0.24957184  1
  O  O351  1  0.87446657  0.73863845  0.75657839  1
  O  O352  1  0.36588831  0.47258741  0.49634333  1
  O  O353  1  0.40993134  0.52604785  1.00875975  1
  O  O354  1  0.39577392  1.02273143  0.49128375  1
  O  O355  1  0.37259871  1.00667829  1.02089913  1
  O  O356  1  0.89123707  0.49737531  0.49516868  1
  O  O357  1  0.87412331  0.48977393  0.98403055  1
  O  O358  1  0.86629769  1.01239566  0.48656857  1
  O  O359  1  0.88521483  1.01629662  0.97701829  1
  O  O360  1  0.10631503  0.01537179  -0.00512971  1
  O  O361  1  0.14483165  0.02646528  0.50267142  1
  O  O362  1  0.10567365  0.50526993  -0.01928732  1
  O  O363  1  0.11467143  0.50301498  0.51101331  1
  O  O364  1  0.63376325  0.03020679  0.01561282  1
  O  O365  1  0.60813893  0.02324826  0.50360192  1
  O  O366  1  0.62235643  0.49131951  0.00518095  1
  O  O367  1  0.62209216  0.48261184  0.52125765  1
  O  O368  1  0.34675641  0.37733902  0.11692415  1
  O  O369  1  0.35943288  0.37846336  0.62666323  1
  O  O370  1  0.37262830  0.77162797  0.21093454  1
  O  O371  1  0.35296229  0.81160561  0.65655051  1
  O  O372  1  0.87541274  0.36817081  0.11195709  1
  O  O373  1  0.86449959  0.36828933  0.63767174  1
  O  O374  1  0.87430929  0.85935321  0.13272929  1
  O  O375  1  0.83416354  0.88604064  0.62288680  1
  O  O376  1  0.10371523  0.13662732  0.39392242  1
  O  O377  1  0.11854957  0.13556668  0.86978840  1
  O  O378  1  0.13700735  0.62070018  0.39090103  1
  O  O379  1  0.09844497  0.63907718  0.88416676  1
  O  O380  1  0.63830187  0.13270728  0.39952086  1
  O  O381  1  0.63494730  0.13464484  0.86586091  1
  O  O382  1  0.74322822  0.61839908  0.28429266  1
  O  O383  1  0.64065759  0.61146240  0.87069408  1
