# generated using pymatgen
data_VZnO4
_symmetry_space_group_name_H-M   'P 1'
_cell_length_a   17.19944980
_cell_length_b   17.03670877
_cell_length_c   16.94279246
_cell_angle_alpha   89.99186979
_cell_angle_beta   90.36947423
_cell_angle_gamma   89.98109360
_symmetry_Int_Tables_number   1
_chemical_formula_structural   VZnO4
_chemical_formula_sum   'V64 Zn64 O256'
_cell_volume   4964.50767836
_cell_formula_units_Z   64
loop_
 _symmetry_equiv_pos_site_id
 _symmetry_equiv_pos_as_xyz
  1  'x, y, z'
loop_
 _atom_site_type_symbol
 _atom_site_label
 _atom_site_symmetry_multiplicity
 _atom_site_fract_x
 _atom_site_fract_y
 _atom_site_fract_z
 _atom_site_occupancy
  V  V0  1  0.23385696  0.88430253  0.62824951  1
  V  V1  1  0.50313084  0.77968766  0.74832777  1
  V  V2  1  0.13285300  0.54779862  0.66058483  1
  V  V3  1  0.65877645  0.00606840  0.62849109  1
  V  V4  1  0.88086338  0.87065418  0.51427985  1
  V  V5  1  0.11979838  0.87745707  0.26822558  1
  V  V6  1  0.00040916  0.13998515  0.63545338  1
  V  V7  1  0.00520713  0.50793711  0.50008571  1
  V  V8  1  0.24116905  0.11345697  0.38063893  1
  V  V9  1  0.25822178  0.02231564  0.76351505  1
  V  V10  1  0.49919886  0.12775475  0.11243730  1
  V  V11  1  0.00145308  0.00338074  0.00038282  1
  V  V12  1  0.11723290  0.73773174  0.38811640  1
  V  V13  1  0.26758606  0.50797530  0.25871577  1
  V  V14  1  0.86845525  0.74677634  0.12000519  1
  V  V15  1  0.26361055  0.62660771  0.38657642  1
  V  V16  1  0.87178565  0.12298309  0.24910872  1
  V  V17  1  0.48660599  0.11965982  0.63343192  1
  V  V18  1  -0.00846483  0.75124014  0.25461223  1
  V  V19  1  0.01555593  0.63413007  0.12042208  1
  V  V20  1  0.74597860  0.63297489  0.35638308  1
  V  V21  1  0.35810502  0.48053089  0.86692428  1
  V  V22  1  0.12153107  0.49225992  0.14575615  1
  V  V23  1  0.74965846  0.75652529  -0.01518723  1
  V  V24  1  0.88267130  -0.01886131  0.37011906  1
  V  V25  1  0.75783031  0.60569112  0.86914050  1
  V  V26  1  0.64215664  0.15667566  -0.00786144  1
  V  V27  1  0.25757935  0.36199884  0.13719345  1
  V  V28  1  0.64636211  0.48004260  0.63836498  1
  V  V29  1  0.34827758  0.25117192  0.61946385  1
  V  V30  1  0.86762404  0.50429599  0.36630192  1
  V  V31  1  0.87841452  0.88115966  0.00753700  1
  V  V32  1  0.37735538  0.78277665  0.62865518  1
  V  V33  1  0.01028201  0.86779771  0.86799133  1
  V  V34  1  0.14239884  0.24712450  0.88517281  1
  V  V35  1  0.26323434  -0.01304369  0.25278317  1
  V  V36  1  0.75027560  -0.00925214  0.23549671  1
  V  V37  1  0.87077010  0.25810563  0.13036490  1
  V  V38  1  0.62173830  0.61470162  -0.00383908  1
  V  V39  1  0.12222776  0.36709801  0.74969060  1
  V  V40  1  0.24441282  0.74348502  -0.03780461  1
  V  V41  1  -0.01148559  0.65116527  0.62184867  1
  V  V42  1  0.86361338  0.37977317  0.51210597  1
  V  V43  1  0.87622525  0.38358162  0.01377955  1
  V  V44  1  0.00609579  0.12733613  0.13380631  1
  V  V45  1  0.76346036  0.12617047  0.38902510  1
  V  V46  1  0.50175821  0.58494072  0.62365304  1
  V  V47  1  0.37546046  0.86106203  -0.01372413  1
  V  V48  1  0.01331142  0.50620172  -0.00204562  1
  V  V49  1  0.63353613  0.61978420  0.50315976  1
  V  V50  1  0.74575866  0.75936907  0.52259929  1
  V  V51  1  0.11730557  0.01422786  0.62256720  1
  V  V52  1  0.23528244  0.38320560  0.60659942  1
  V  V53  1  0.12869697  -0.01524534  0.12428254  1
  V  V54  1  -0.00074981  0.36155620  0.88717819  1
  V  V55  1  0.63091706  0.00167055  0.09887313  1
  V  V56  1  0.60974565  0.86994270  0.24466160  1
  V  V57  1  0.01448633  0.25147416  0.27198587  1
  V  V58  1  0.88147981  0.01390626  0.85936665  1
  V  V59  1  0.14136289  0.12872491  0.00412159  1
  V  V60  1  0.62847373  0.25718340  0.38786158  1
  V  V61  1  0.56843484  0.30716514  0.79449138  1
  V  V62  1  0.87667606  0.63837649  0.74894678  1
  V  V63  1  0.60403942  0.11069190  0.48653550  1
  Zn  Zn64  1  0.18988324  0.17257046  0.20007807  1
  Zn  Zn65  1  0.17646796  0.19054675  0.68910000  1
  Zn  Zn66  1  0.18319564  0.68805958  0.20608875  1
  Zn  Zn67  1  0.18708021  0.70710919  0.70045627  1
  Zn  Zn68  1  0.69203341  0.29655025  0.21117410  1
  Zn  Zn69  1  0.76711953  0.13660769  0.88288312  1
  Zn  Zn70  1  0.62135934  0.65771970  0.20689029  1
  Zn  Zn71  1  0.68839152  0.68387014  0.68897369  1
  Zn  Zn72  1  0.27643335  0.29935015  0.29652238  1
  Zn  Zn73  1  0.38190202  0.26291432  0.81284015  1
  Zn  Zn74  1  0.29077095  0.81871429  0.33400031  1
  Zn  Zn75  1  0.31624737  0.82967039  0.80377477  1
  Zn  Zn76  1  0.83178742  0.31092117  0.32901819  1
  Zn  Zn77  1  0.70504584  0.33256455  0.93197033  1
  Zn  Zn78  1  0.79961805  0.80730218  0.30774346  1
  Zn  Zn79  1  0.83624467  0.81836259  0.81872850  1
  Zn  Zn80  1  0.20573028  0.48343270  0.46851743  1
  Zn  Zn81  1  0.17912004  0.42387831  0.95983697  1
  Zn  Zn82  1  0.18780506  0.94627069  0.44541185  1
  Zn  Zn83  1  0.19990423  0.92615872  0.92732107  1
  Zn  Zn84  1  0.69797101  0.44509138  0.44133717  1
  Zn  Zn85  1  0.55874380  0.43991720  0.93555064  1
  Zn  Zn86  1  0.69103611  0.93632592  0.42544485  1
  Zn  Zn87  1  0.71152771  0.94081526  0.92290071  1
  Zn  Zn88  1  0.31664175  0.04032222  0.06281277  1
  Zn  Zn89  1  0.32440974  0.05344575  0.56993586  1
  Zn  Zn90  1  0.29523979  0.59722220  0.07765528  1
  Zn  Zn91  1  0.29258566  0.61870893  0.59110429  1
  Zn  Zn92  1  0.81639621  0.07335854  0.06237510  1
  Zn  Zn93  1  0.84479782  0.05882502  0.56129448  1
  Zn  Zn94  1  0.81614634  0.57128760  0.05969495  1
  Zn  Zn95  1  0.81400852  0.56539433  0.56427154  1
  Zn  Zn96  1  0.42263813  0.44793045  0.07303596  1
  Zn  Zn97  1  0.43089412  0.41184760  0.67666338  1
  Zn  Zn98  1  0.44489921  0.94665272  0.15469071  1
  Zn  Zn99  1  0.42853212  0.95285543  0.69012831  1
  Zn  Zn100  1  0.80650644  0.44423287  0.19389029  1
  Zn  Zn101  1  0.82727545  0.44099364  0.70068798  1
  Zn  Zn102  1  0.94312076  0.93660521  0.18817935  1
  Zn  Zn103  1  0.94558390  0.93471354  0.68833909  1
  Zn  Zn104  1  0.04250084  0.09326528  0.35042513  1
  Zn  Zn105  1  0.07220584  0.06351269  0.80941150  1
  Zn  Zn106  1  0.04537988  0.56495113  0.31537973  1
  Zn  Zn107  1  -0.00807660  0.50999616  0.77686738  1
  Zn  Zn108  1  0.60902910  0.12024650  0.26606192  1
  Zn  Zn109  1  0.61281163  0.13176427  0.77346801  1
  Zn  Zn110  1  0.44811925  0.58878432  0.18768228  1
  Zn  Zn111  1  0.59062527  0.59312689  0.78840882  1
  Zn  Zn112  1  0.46612384  0.23180290  0.48340844  1
  Zn  Zn113  1  0.45743068  0.16318356  0.92522411  1
  Zn  Zn114  1  0.42191496  0.65723288  0.48580035  1
  Zn  Zn115  1  0.46802205  0.72938555  0.95219034  1
  Zn  Zn116  1  0.93655387  0.18727471  0.46034979  1
  Zn  Zn117  1  0.94243262  0.18977486  0.94875970  1
  Zn  Zn118  1  0.92090045  0.68821657  0.43781161  1
  Zn  Zn119  1  0.93744498  0.68554882  0.93639448  1
  Zn  Zn120  1  0.06452859  0.31214216  0.07660413  1
  Zn  Zn121  1  -0.00921447  0.34791389  0.61770826  1
  Zn  Zn122  1  0.06718089  0.80791631  0.04735667  1
  Zn  Zn123  1  0.06114882  0.82662817  0.56460692  1
  Zn  Zn124  1  0.54973140  0.31089608  0.06332033  1
  Zn  Zn125  1  0.60995330  0.26987621  0.61037367  1
  Zn  Zn126  1  0.58000113  0.83347726  0.05652039  1
  Zn  Zn127  1  0.59275906  0.80617308  0.60197983  1
  O  O128  1  0.12056042  0.11671247  0.12118442  1
  O  O129  1  0.11297506  0.12321952  0.61739983  1
  O  O130  1  0.11619473  0.63271671  0.12677318  1
  O  O131  1  0.09903756  0.65164017  0.64506339  1
  O  O132  1  0.63101025  0.11391187  0.09796444  1
  O  O133  1  0.59130323  0.09807687  0.60120489  1
  O  O134  1  0.63553111  0.63465389  0.09448196  1
  O  O135  1  0.62294059  0.60451377  0.62447053  1
  O  O136  1  0.38184970  0.33817554  0.34124494  1
  O  O137  1  0.36107330  0.37667814  0.85966300  1
  O  O138  1  0.36316428  0.85858816  0.42316031  1
  O  O139  1  0.38036048  0.88414005  0.88898370  1
  O  O140  1  0.86971715  0.39993367  0.39276339  1
  O  O141  1  0.89939052  0.36977648  0.90389269  1
  O  O142  1  0.87269357  0.88126177  0.35792976  1
  O  O143  1  0.88931715  0.89718522  0.88550277  1
  O  O144  1  0.25494994  -0.01524382  0.35902069  1
  O  O145  1  0.24122012  0.00756665  0.86384087  1
  O  O146  1  0.25620503  0.51228938  0.36742586  1
  O  O147  1  0.25505273  0.47836592  0.86877355  1
  O  O148  1  0.76143642  0.00755806  0.35532676  1
  O  O149  1  0.77885408  0.01397037  0.87260352  1
  O  O150  1  0.75888181  0.51831655  0.37889745  1
  O  O151  1  0.75916185  0.51141027  0.87950679  1
  O  O152  1  0.23038492  0.51357773  0.14385740  1
  O  O153  1  0.18387119  0.48205699  0.59978345  1
  O  O154  1  0.23155720  1.00077233  0.13862763  1
  O  O155  1  0.24152175  1.00081067  0.63020995  1
  O  O156  1  0.75584632  0.50577271  0.12079673  1
  O  O157  1  0.74888420  0.49770360  0.63447066  1
  O  O158  1  0.75423509  1.00586795  0.13045536  1
  O  O159  1  0.75633018  1.01196112  0.61417186  1
  O  O160  1  0.00689549  0.34516558  0.28674649  1
  O  O161  1  0.00955872  0.38629063  0.78395383  1
  O  O162  1  0.01333322  0.86126478  0.24235857  1
  O  O163  1  -0.00628071  0.87255898  0.76844062  1
  O  O164  1  0.43043197  0.35133527  0.27837523  1
  O  O165  1  0.51763229  0.37113710  0.73986841  1
  O  O166  1  0.51273458  0.89098013  0.22672481  1
  O  O167  1  0.49716134  0.88007454  0.74694940  1
  O  O168  1  0.51250310  0.10447305  0.21186859  1
  O  O169  1  0.50112700  0.11543826  0.73091689  1
  O  O170  1  0.52743704  0.62027910  0.24981157  1
  O  O171  1  0.50286764  0.61982804  0.72136909  1
  O  O172  1  0.99074378  0.11142931  0.23958035  1
  O  O173  1  1.00796751  0.12849050  0.73661066  1
  O  O174  1  1.00147143  0.64493268  0.23357135  1
  O  O175  1  0.98288196  0.62856875  0.73952928  1
  O  O176  1  0.36405569  0.17698832  -0.12251908  1
  O  O177  1  0.37811612  0.28321483  0.52836079  1
  O  O178  1  0.35805308  0.75355996  -0.01389376  1
  O  O179  1  0.34846047  0.72009202  0.55030474  1
  O  O180  1  0.89132888  0.26260244  0.02385693  1
  O  O181  1  0.88875686  0.28389807  0.49025145  1
  O  O182  1  0.87460014  0.76147264  0.00568260  1
  O  O183  1  0.85753454  0.76387665  0.49716584  1
  O  O184  1  0.12656222  0.24352623  0.48299581  1
  O  O185  1  0.12530481  0.23471423  1.00541607  1
  O  O186  1  0.10720555  0.75765850  0.48428833  1
  O  O187  1  0.14827524  0.75847674  0.99209880  1
  O  O188  1  0.63777224  0.21519687  0.50131134  1
  O  O189  1  0.64007169  0.25864193  1.00248495  1
  O  O190  1  0.63864285  0.74048884  0.51701539  1
  O  O191  1  0.65083850  0.76532878  0.99705310  1
  O  O192  1  0.50205063  0.22832086  0.11822903  1
  O  O193  1  0.50317637  0.22031343  0.59880816  1
  O  O194  1  0.40574890  0.71656509  0.15250167  1
  O  O195  1  0.47952776  0.77611127  0.61872452  1
  O  O196  1  1.00237326  0.24130983  0.14541640  1
  O  O197  1  1.00836562  0.23607959  0.61396200  1
  O  O198  1  1.00132565  0.74478261  0.12331147  1
  O  O199  1  0.99145519  0.74962189  0.61929891  1
  O  O200  1  0.00031961  0.20239899  0.36766111  1
  O  O201  1  0.01151730  0.26010311  0.89101506  1
  O  O202  1  -0.00175442  0.74309291  0.35856722  1
  O  O203  1  -0.00520184  0.77105283  0.89155016  1
  O  O204  1  0.52922170  0.26038910  0.39680686  1
  O  O205  1  0.50035452  0.25261065  0.84492851  1
  O  O206  1  0.45673395  0.78078220  0.34694869  1
  O  O207  1  0.50222661  0.75002634  0.84319126  1
  O  O208  1  0.29248674  0.09179267  0.46652845  1
  O  O209  1  0.23705817  0.11140866  1.01288604  1
  O  O210  1  0.24289010  0.60017743  0.48657477  1
  O  O211  1  0.25196582  0.64200131  0.98413766  1
  O  O212  1  0.77289880  0.11808318  0.48655098  1
  O  O213  1  0.74653834  0.13637580  0.99982520  1
  O  O214  1  0.74448796  0.64204790  0.51154921  1
  O  O215  1  0.75427365  0.64053093  0.98364999  1
  O  O216  1  0.23317285  0.36473997  0.03850389  1
  O  O217  1  0.22764402  0.37666191  0.50583818  1
  O  O218  1  0.26429759  0.85797928  -0.00852905  1
  O  O219  1  0.24008422  0.88057900  0.52534974  1
  O  O220  1  0.77924601  0.38080659  0.00087285  1
  O  O221  1  0.76594572  0.38267902  0.51218037  1
  O  O222  1  0.77114251  0.86871335  -0.00791378  1
  O  O223  1  0.74884039  0.86012996  0.49264588  1
  O  O224  1  0.11394377  0.51092531  0.24535555  1
  O  O225  1  0.10830845  0.49834782  0.74746013  1
  O  O226  1  0.12249866  0.98063398  0.24048819  1
  O  O227  1  0.14005117  1.01137815  0.73473120  1
  O  O228  1  0.60584744  0.43760900  0.17955521  1
  O  O229  1  0.62944976  0.49715633  0.73671502  1
  O  O230  1  0.64770663  1.01231465  0.23169058  1
  O  O231  1  0.64877812  1.03580192  0.72619181  1
  O  O232  1  0.35729401  -0.02620190  0.23180063  1
  O  O233  1  0.35890046  0.01482552  0.75298847  1
  O  O234  1  0.36277467  0.51566455  0.24944319  1
  O  O235  1  0.36229104  0.48304780  0.76308268  1
  O  O236  1  0.86893972  0.00162673  0.24851725  1
  O  O237  1  0.88839629  0.00528896  0.76186612  1
  O  O238  1  0.87817229  0.49847855  0.26795520  1
  O  O239  1  0.88214305  0.52033151  0.75610107  1
  O  O240  1  0.11379872  0.29983306  0.44040136  1
  O  O241  1  0.12151168  0.36148927  0.88314090  1
  O  O242  1  0.12222756  0.86994876  0.36978766  1
  O  O243  1  0.10690467  0.88596218  0.88067928  1
  O  O244  1  0.65274924  0.35224182  0.39479891  1
  O  O245  1  0.61704984  0.36683556  0.86900366  1
  O  O246  1  0.62566261  0.88853762  0.34407342  1
  O  O247  1  0.67593023  0.88661819  0.81858166  1
  O  O248  1  0.40372090  0.10588872  0.08951372  1
  O  O249  1  0.36911881  0.15121977  0.62617845  1
  O  O250  1  0.39775769  0.55500471  0.09588453  1
  O  O251  1  0.40308310  0.58568755  0.59619494  1
  O  O252  1  0.88877595  0.13657498  0.13027574  1
  O  O253  1  0.88257446  0.14180971  0.64787786  1
  O  O254  1  0.89082530  0.64456550  0.11454367  1
  O  O255  1  0.88007958  0.62937331  0.63648644  1
  O  O256  1  0.25371322  0.26491031  0.17622589  1
  O  O257  1  0.24422503  0.26899250  0.62571402  1
  O  O258  1  0.27190539  0.70470072  0.13206588  1
  O  O259  1  0.25554834  0.77970843  0.65383503  1
  O  O260  1  0.77454424  0.24859486  0.13622418  1
  O  O261  1  0.77572705  0.29655777  0.78214170  1
  O  O262  1  0.77148151  0.74848643  0.10967523  1
  O  O263  1  0.75040364  0.75891157  0.62261634  1
  O  O264  1  0.25530737  0.21256499  0.36432850  1
  O  O265  1  0.23566130  0.25269371  0.89144677  1
  O  O266  1  0.22854583  0.73472062  0.37920723  1
  O  O267  1  0.25081016  0.75427196  0.86081661  1
  O  O268  1  0.76173563  0.22775048  0.37512759  1
  O  O269  1  0.75927951  0.25896301  0.85548624  1
  O  O270  1  0.74787744  0.73575899  0.37718701  1
  O  O271  1  0.76280767  0.75745730  0.88498275  1
  O  O272  1  0.00854057  0.11779921  0.01673011  1
  O  O273  1  -0.05020213  0.10631138  0.53898087  1
  O  O274  1  -0.00012125  0.61606283  0.00793045  1
  O  O275  1  -0.01989277  0.62728394  0.51595567  1
  O  O276  1  0.53516625  0.13381882  -0.00555450  1
  O  O277  1  0.50781556  0.11557437  0.46675541  1
  O  O278  1  0.52608941  0.63926744  -0.02114697  1
  O  O279  1  0.52520012  0.62965539  0.51825350  1
  O  O280  1  0.48833602  0.44272768  0.44184351  1
  O  O281  1  0.49339119  0.38931909  1.01117665  1
  O  O282  1  0.43070614  0.82953950  0.43384279  1
  O  O283  1  0.47971360  0.83062419  1.01301276  1
  O  O284  1  0.99279527  0.40671703  0.51314977  1
  O  O285  1  1.00743419  0.38525755  1.00333890  1
  O  O286  1  0.97751444  0.86682846  0.49728476  1
  O  O287  1  0.99594697  0.88945139  0.99627225  1
  O  O288  1  0.49433632  0.38544297  0.29267501  1
  O  O289  1  0.46073501  0.48362996  0.87380783  1
  O  O290  1  0.48436148  0.97003449  0.37878719  1
  O  O291  1  0.52439486  0.97697827  0.88409320  1
  O  O292  1  0.97188402  0.52868259  0.39068519  1
  O  O293  1  1.01259548  0.49534250  0.89723429  1
  O  O294  1  0.98000787  0.99943793  0.36693840  1
  O  O295  1  0.99701079  1.00404633  0.88619919  1
  O  O296  1  0.01229679  0.00545891  0.12058079  1
  O  O297  1  0.01620192  0.00628675  0.63623212  1
  O  O298  1  0.01582597  0.52218561  0.12281434  1
  O  O299  1  0.03234791  0.53147520  0.60926621  1
  O  O300  1  0.52877166  0.00505604  0.09796604  1
  O  O301  1  0.44178484  0.02921605  0.60035523  1
  O  O302  1  0.54924855  0.47434369  0.14995752  1
  O  O303  1  0.51493646  0.48390354  0.62497882  1
  O  O304  1  0.24581166  0.40245303  0.24914139  1
  O  O305  1  0.21678423  0.38730383  0.73096834  1
  O  O306  1  0.22970610  0.87389258  0.25275030  1
  O  O307  1  0.25693783  0.90329688  0.73948861  1
  O  O308  1  0.76399163  0.36621497  0.25882902  1
  O  O309  1  0.76510004  0.37292993  0.78483867  1
  O  O310  1  0.74606187  0.88942551  0.24402210  1
  O  O311  1  0.73176546  0.87370609  0.77031435  1
  O  O312  1  0.24970112  0.09459499  0.26380774  1
  O  O313  1  0.24544837  0.12389503  0.74658286  1
  O  O314  1  0.24298447  0.61779681  0.27402467  1
  O  O315  1  0.22806043  0.60035505  0.68255714  1
  O  O316  1  0.76964447  0.11651940  0.25120610  1
  O  O317  1  0.85493670  0.17938424  0.72253690  1
  O  O318  1  0.72497718  0.63019218  0.25960415  1
  O  O319  1  0.75952888  0.62784839  0.76019587  1
  O  O320  1  0.41405509  0.16478077  0.30885345  1
  O  O321  1  0.46690853  0.01977479  0.88401342  1
  O  O322  1  0.36069886  0.64421301  0.39039678  1
  O  O323  1  0.35552189  0.58454361  0.86829579  1
  O  O324  1  0.87058038  0.10859835  0.36648898  1
  O  O325  1  0.88409889  0.11906337  0.88234428  1
  O  O326  1  0.85363579  0.62324607  0.37083113  1
  O  O327  1  0.86707300  0.63093242  0.86575294  1
  O  O328  1  0.12423695  0.39035386  0.14126716  1
  O  O329  1  0.09907315  0.35933381  0.65093599  1
  O  O330  1  0.12041368  0.88534953  0.12150109  1
  O  O331  1  0.12940199  0.88471777  0.63534829  1
  O  O332  1  0.62382100  0.36107147  0.14093489  1
  O  O333  1  0.63796661  0.38071269  0.61992938  1
  O  O334  1  0.63531064  0.89712500  0.13059013  1
  O  O335  1  0.62190156  0.91269543  0.62107660  1
  O  O336  1  0.11172800  0.22966958  0.25907920  1
  O  O337  1  0.12792433  0.25917409  0.77339545  1
  O  O338  1  0.11367139  0.76073139  0.26214132  1
  O  O339  1  0.11836805  0.71845175  0.80332343  1
  O  O340  1  0.62974066  0.23410465  0.28117057  1
  O  O341  1  0.62191230  0.24247311  0.73020002  1
  O  O342  1  0.62162494  0.77287332  0.22817139  1
  O  O343  1  0.59995052  0.75563818  0.71259513  1
  O  O344  1  0.38888700  0.19724006  0.24929795  1
  O  O345  1  0.38697365  0.29668449  0.70413695  1
  O  O346  1  0.40170781  0.79063799  0.29781265  1
  O  O347  1  0.38917147  0.76062915  0.73373686  1
  O  O348  1  0.89217065  0.23855558  0.24693224  1
  O  O349  1  0.89809073  0.23475038  0.74436631  1
  O  O350  1  0.88756227  0.76212128  0.23348118  1
  O  O351  1  0.87265269  0.73959467  0.75020718  1
  O  O352  1  0.42240404  0.46887076  0.43383357  1
  O  O353  1  0.35576540  0.47387592  0.97036024  1
  O  O354  1  0.42033795  0.99861122  0.39075144  1
  O  O355  1  0.37691614  0.94183705  1.05803085  1
  O  O356  1  0.87987131  0.49861592  0.50113322  1
  O  O357  1  0.89988896  0.48793169  1.01767875  1
  O  O358  1  0.86169959  0.97430523  0.47658753  1
  O  O359  1  0.88965038  0.99839506  1.00663409  1
  O  O360  1  0.11910097  0.00861757  0.01264724  1
  O  O361  1  0.12334408  -0.00412515  0.52252187  1
  O  O362  1  0.11653265  0.49875150  0.02009740  1
  O  O363  1  0.09628356  0.50793011  0.46326215  1
  O  O364  1  0.64750760  -0.01158839  -0.00006630  1
  O  O365  1  0.64128923  0.01364091  0.49698406  1
  O  O366  1  0.62217533  0.51444578  -0.01149951  1
  O  O367  1  0.64093289  0.51335352  0.51556551  1
  O  O368  1  0.35418068  0.38121408  0.13403666  1
  O  O369  1  0.32836254  0.41330665  0.61870379  1
  O  O370  1  0.33989932  0.74875030  0.16483349  1
  O  O371  1  0.36241714  0.88291477  0.61704956  1
  O  O372  1  0.88360238  0.36518744  0.12620207  1
  O  O373  1  0.88347373  0.38053810  0.62155586  1
  O  O374  1  0.88873110  0.86486997  0.11378510  1
  O  O375  1  0.87551286  0.88793736  0.61253247  1
  O  O376  1  0.14440391  0.09728264  0.39438056  1
  O  O377  1  0.12076718  0.13523728  0.89551891  1
  O  O378  1  0.11444413  0.63861936  0.37625851  1
  O  O379  1  0.10817835  0.65870879  0.84399191  1
  O  O380  1  0.64815910  0.12295462  0.38258019  1
  O  O381  1  0.64703783  0.13851522  0.88531850  1
  O  O382  1  0.64210066  0.62057969  0.40119617  1
  O  O383  1  0.65009374  0.62881402  0.87622068  1
