# generated using pymatgen
data_VZnO4
_symmetry_space_group_name_H-M   'P 1'
_cell_length_a   16.90905752
_cell_length_b   16.89217323
_cell_length_c   16.87921828
_cell_angle_alpha   89.89131393
_cell_angle_beta   89.95143838
_cell_angle_gamma   90.12910833
_symmetry_Int_Tables_number   1
_chemical_formula_structural   VZnO4
_chemical_formula_sum   'V64 Zn64 O256'
_cell_volume   4821.20075675
_cell_formula_units_Z   64
loop_
 _symmetry_equiv_pos_site_id
 _symmetry_equiv_pos_as_xyz
  1  'x, y, z'
loop_
 _atom_site_type_symbol
 _atom_site_label
 _atom_site_symmetry_multiplicity
 _atom_site_fract_x
 _atom_site_fract_y
 _atom_site_fract_z
 _atom_site_occupancy
  V  V0  1  -0.00304539  0.60616302  0.12844836  1
  V  V1  1  0.12592546  0.25201249  0.39053288  1
  V  V2  1  0.12851232  0.65071050  0.49546212  1
  V  V3  1  0.00010235  0.51431560  0.50100182  1
  V  V4  1  0.84813378  0.38030545  0.01350213  1
  V  V5  1  0.62463936  0.77125425  0.37579453  1
  V  V6  1  0.75338299  0.63686725  0.36340467  1
  V  V7  1  0.52665363  0.24937352  0.76010092  1
  V  V8  1  0.63449312  0.62365103  0.49451299  1
  V  V9  1  0.49784093  0.88383184  0.89212333  1
  V  V10  1  0.01182566  0.85951648  0.38448058  1
  V  V11  1  0.76021746  0.76134654  -0.00115540  1
  V  V12  1  -0.00930817  0.37157407  0.37828894  1
  V  V13  1  0.25920711  0.14584870  0.87093402  1
  V  V14  1  0.87950366  0.74729050  0.14227388  1
  V  V15  1  0.36886577  0.00397595  0.89446682  1
  V  V16  1  0.50345604  0.62303873  0.13077916  1
  V  V17  1  0.50865311  0.76677403  0.24852944  1
  V  V18  1  0.76340596  0.61591635  0.86741331  1
  V  V19  1  0.38313756  0.62815498  0.25618700  1
  V  V20  1  0.12656381  0.31736645  0.75586403  1
  V  V21  1  0.10598527  0.10109683  0.50377608  1
  V  V22  1  0.75001381  0.48735291  0.24752387  1
  V  V23  1  0.14792358  0.50040088  0.60716172  1
  V  V24  1  0.38938282  0.12980557  0.74163977  1
  V  V25  1  0.88467928  0.14865965  0.75595782  1
  V  V26  1  0.62558089  0.75143098  0.87684812  1
  V  V27  1  0.49753097  0.62386443  0.61838189  1
  V  V28  1  0.75304417  0.88039828  0.13537906  1
  V  V29  1  0.63038549  0.48858726  0.12463088  1
  V  V30  1  0.86356367  0.25643079  0.14883638  1
  V  V31  1  0.77120182  -0.01284585  0.75588249  1
  V  V32  1  0.12050412  0.37045939  0.24595200  1
  V  V33  1  -0.00937018  0.37221323  0.88437080  1
  V  V34  1  0.75456439  0.12848045  0.88909394  1
  V  V35  1  0.60972236  -0.00544575  0.12297193  1
  V  V36  1  0.49165483  0.74826805  0.75196395  1
  V  V37  1  0.85966014  0.74577742  0.61900690  1
  V  V38  1  0.86279524  0.89223124  0.50114512  1
  V  V39  1  0.24193585  0.90350917  0.62664336  1
  V  V40  1  0.25954171  0.50795681  0.74437580  1
  V  V41  1  0.49007410  0.39053782  0.87169713  1
  V  V42  1  0.76058303  0.12165399  0.39344146  1
  V  V43  1  0.11388178  -0.01915096  0.11016670  1
  V  V44  1  0.25280563  0.10041947  0.37839061  1
  V  V45  1  0.11505974  0.13426974  -0.00463468  1
  V  V46  1  0.38021107  0.50389582  0.39425722  1
  V  V47  1  0.76386857  0.01343742  0.24941004  1
  V  V48  1  0.25786354  0.73593079  -0.00404202  1
  V  V49  1  0.25628314  0.25014042  0.03224150  1
  V  V50  1  0.24754130  0.48715902  0.25699365  1
  V  V51  1  0.49316339  0.24745841  0.26664723  1
  V  V52  1  0.87704915  0.51043607  0.36920742  1
  V  V53  1  0.62651917  0.88562793  0.74574640  1
  V  V54  1  -0.00862429  0.09209444  0.62594177  1
  V  V55  1  0.00200229  0.13464462  0.15005026  1
  V  V56  1  0.12948310  0.89880440  0.77015836  1
  V  V57  1  0.63795940  0.49950178  0.63027445  1
  V  V58  1  0.37023323  0.76329175  0.61232892  1
  V  V59  1  0.37263391  0.38455248  0.01303469  1
  V  V60  1  0.01939593  0.74261093  0.73897176  1
  V  V61  1  0.24965811  0.66775504  0.37184421  1
  V  V62  1  0.62688947  0.62374654  0.00344322  1
  V  V63  1  0.60323272  0.12817402  0.00422059  1
  Zn  Zn64  1  0.17882491  0.18448819  0.19898342  1
  Zn  Zn65  1  0.19479414  0.18258942  0.67573018  1
  Zn  Zn66  1  0.19796493  0.63645474  0.17099647  1
  Zn  Zn67  1  0.19189471  0.68284583  0.68803433  1
  Zn  Zn68  1  0.67831134  0.18597563  0.17939752  1
  Zn  Zn69  1  0.71138472  0.18719824  0.70667724  1
  Zn  Zn70  1  0.68564275  0.69200829  0.18966320  1
  Zn  Zn71  1  0.68569571  0.68712499  0.68903199  1
  Zn  Zn72  1  0.30751598  0.32055607  0.35738289  1
  Zn  Zn73  1  0.32585945  0.32415153  0.79236582  1
  Zn  Zn74  1  0.32454979  0.82944073  0.28299423  1
  Zn  Zn75  1  0.30832774  0.82010257  0.81110019  1
  Zn  Zn76  1  0.79113634  0.30914123  0.34144078  1
  Zn  Zn77  1  0.81718677  0.31448394  0.83015833  1
  Zn  Zn78  1  0.81776765  0.82452876  0.32197769  1
  Zn  Zn79  1  0.81513533  0.79341464  0.80062434  1
  Zn  Zn80  1  0.18916188  0.44405733  0.43842481  1
  Zn  Zn81  1  0.20194799  0.40199867  0.91521184  1
  Zn  Zn82  1  0.19199558  0.92007655  0.44158776  1
  Zn  Zn83  1  0.18828578  0.94782627  0.95539868  1
  Zn  Zn84  1  0.67273655  0.43714194  0.43042599  1
  Zn  Zn85  1  0.68313163  0.44226840  0.92751994  1
  Zn  Zn86  1  0.69060205  0.96091362  0.43306525  1
  Zn  Zn87  1  0.68856978  0.94687910  0.93837428  1
  Zn  Zn88  1  0.29933156  0.05901620  0.06777229  1
  Zn  Zn89  1  0.28986599  0.10201422  0.57682289  1
  Zn  Zn90  1  0.31880782  0.55097485  0.07060798  1
  Zn  Zn91  1  0.31255358  0.59034310  0.55720130  1
  Zn  Zn92  1  0.81073807  0.08064950  0.08869757  1
  Zn  Zn93  1  0.80942695  0.05791875  0.57509374  1
  Zn  Zn94  1  0.81401979  0.56816687  0.06339376  1
  Zn  Zn95  1  0.81703553  0.56943760  0.56221343  1
  Zn  Zn96  1  0.43949372  0.44400088  0.19248746  1
  Zn  Zn97  1  0.45039657  0.42675255  0.67834626  1
  Zn  Zn98  1  0.40583850  0.96445349  0.16591940  1
  Zn  Zn99  1  0.41630757  0.92904446  0.72085605  1
  Zn  Zn100  1  0.93703839  0.43721413  0.19037006  1
  Zn  Zn101  1  0.97403183  0.42514233  0.69386930  1
  Zn  Zn102  1  0.93915817  0.94245227  0.17041346  1
  Zn  Zn103  1  0.93971624  0.90678561  0.69556753  1
  Zn  Zn104  1  0.09870325  0.05181511  0.29672572  1
  Zn  Zn105  1  0.08626650  0.10389021  0.79608802  1
  Zn  Zn106  1  0.06691621  0.57553971  0.31384467  1
  Zn  Zn107  1  0.05570350  0.54429595  0.78719866  1
  Zn  Zn108  1  0.57640451  0.04834435  0.31021263  1
  Zn  Zn109  1  0.56592681  0.06553356  0.82536168  1
  Zn  Zn110  1  0.56853576  0.54561879  0.31928520  1
  Zn  Zn111  1  0.56714390  0.56312368  0.80955220  1
  Zn  Zn112  1  0.43756867  0.17967637  0.44305478  1
  Zn  Zn113  1  0.43348019  0.20568264  0.93886919  1
  Zn  Zn114  1  0.44377797  0.69563038  0.43502199  1
  Zn  Zn115  1  0.44566984  0.67992734  0.93812697  1
  Zn  Zn116  1  0.96553705  0.15021881  0.39702618  1
  Zn  Zn117  1  0.92488538  0.20725859  0.94061989  1
  Zn  Zn118  1  0.93637093  0.70012316  0.43903431  1
  Zn  Zn119  1  0.93860890  0.67551171  0.94569848  1
  Zn  Zn120  1  0.06051739  0.30960711  0.06186464  1
  Zn  Zn121  1  0.06781968  0.32835816  0.56243427  1
  Zn  Zn122  1  0.08639908  0.77109374  0.09888071  1
  Zn  Zn123  1  0.06205622  0.83124018  0.57265682  1
  Zn  Zn124  1  0.58702200  0.32911564  0.01038908  1
  Zn  Zn125  1  0.62135526  0.29341599  0.60922608  1
  Zn  Zn126  1  0.56791201  0.81080455  0.06760528  1
  Zn  Zn127  1  0.57759432  0.80471036  0.56750727  1
  O  O128  1  0.11255313  0.12677274  0.11414271  1
  O  O129  1  0.10308647  0.12162811  0.61358882  1
  O  O130  1  0.10150551  0.65696763  0.12476393  1
  O  O131  1  0.13850894  0.62125178  0.59933266  1
  O  O132  1  0.62107690  0.10797898  0.11508801  1
  O  O133  1  0.60326751  0.14687911  0.50137458  1
  O  O134  1  0.62310783  0.62213155  0.11981518  1
  O  O135  1  0.61971660  0.62944766  0.61309457  1
  O  O136  1  0.38760672  0.40273546  0.37588396  1
  O  O137  1  0.38258614  0.37427077  0.87989801  1
  O  O138  1  0.38808295  0.90046256  0.36235464  1
  O  O139  1  0.38763390  0.88998553  0.86755976  1
  O  O140  1  0.88779591  0.39296274  0.37200013  1
  O  O141  1  0.88136226  0.37779738  0.90300246  1
  O  O142  1  0.88668014  0.87428572  0.39336072  1
  O  O143  1  0.88643240  0.85418815  0.88235107  1
  O  O144  1  0.25048684  -0.00097141  0.38417805  1
  O  O145  1  0.26671597  0.00542754  0.88638968  1
  O  O146  1  0.26200542  0.51412201  0.36259268  1
  O  O147  1  0.23847316  0.47590116  0.83876731  1
  O  O148  1  0.77104670  0.00132428  0.35199368  1
  O  O149  1  0.74985965  0.01154153  0.86463933  1
  O  O150  1  0.75691935  0.51450207  0.36427856  1
  O  O151  1  0.74297261  0.51714190  0.87212399  1
  O  O152  1  0.24498265  0.52704369  0.15592997  1
  O  O153  1  0.25003806  0.51587154  0.61975485  1
  O  O154  1  0.21569906  0.97783710  0.06923339  1
  O  O155  1  0.25624984  1.00280390  0.62383530  1
  O  O156  1  0.74415521  0.50479163  0.13824698  1
  O  O157  1  0.73717070  0.50915204  0.61437506  1
  O  O158  1  0.75080368  0.98850830  0.12203365  1
  O  O159  1  0.74867166  1.00668022  0.65865441  1
  O  O160  1  0.01364778  0.38940600  0.26851142  1
  O  O161  1  0.05311557  0.33828505  0.67992443  1
  O  O162  1  -0.00269415  0.90938041  0.27485753  1
  O  O163  1  0.02629693  0.86134915  0.75608510  1
  O  O164  1  0.49469603  0.34961646  0.24902278  1
  O  O165  1  0.50231409  0.36687883  0.76353451  1
  O  O166  1  0.50062988  0.86148088  0.23527656  1
  O  O167  1  0.51015271  0.86608211  0.76335916  1
  O  O168  1  0.49991681  0.14118754  0.28720771  1
  O  O169  1  0.49927959  0.13836301  0.76679756  1
  O  O170  1  0.50165710  0.62417281  0.24314433  1
  O  O171  1  0.51119985  0.64450471  0.73865004  1
  O  O172  1  1.01333894  0.12562498  0.24842407  1
  O  O173  1  0.99072810  0.12482132  0.73799464  1
  O  O174  1  1.00524646  0.62426491  0.23315595  1
  O  O175  1  1.00998908  0.64441822  0.77001714  1
  O  O176  1  0.36102411  0.25814649  0.01079194  1
  O  O177  1  0.38487647  0.26303363  0.50692227  1
  O  O178  1  0.36223929  0.74309697  0.00318283  1
  O  O179  1  0.38993416  0.76438648  0.51395779  1
  O  O180  1  0.88236628  0.27388010  0.01990879  1
  O  O181  1  0.86189798  0.27086536  0.53164296  1
  O  O182  1  0.86007569  0.74645619  0.01128835  1
  O  O183  1  0.87210523  0.75858286  0.51159753  1
  O  O184  1  0.10947413  0.24833233  0.49285511  1
  O  O185  1  0.14449311  0.24501573  1.00894638  1
  O  O186  1  0.11815372  0.74740096  0.50614458  1
  O  O187  1  0.15242824  0.73708639  0.99392358  1
  O  O188  1  0.56335463  0.20810957  0.50654303  1
  O  O189  1  0.62756580  0.22571119  1.02043894  1
  O  O190  1  0.62261015  0.74506636  0.48315227  1
  O  O191  1  0.63545944  0.74448675  0.99399862  1
  O  O192  1  0.46435873  0.22066805  0.17054250  1
  O  O193  1  0.52083091  0.26005063  0.65703170  1
  O  O194  1  0.51600819  0.73545450  0.13988211  1
  O  O195  1  0.49522029  0.75592998  0.63812238  1
  O  O196  1  0.99987360  0.24049932  0.13337437  1
  O  O197  1  0.92103562  0.27654424  0.57355265  1
  O  O198  1  0.97659916  0.76570986  0.13081759  1
  O  O199  1  1.01162403  0.74625094  0.63640441  1
  O  O200  1  -0.00787589  0.26993621  0.38259502  1
  O  O201  1  -0.01402064  0.27508110  0.85876016  1
  O  O202  1  -0.00350096  0.76087901  0.36308708  1
  O  O203  1  -0.02030290  0.75637741  0.86909078  1
  O  O204  1  0.50795133  0.25375363  0.37413379  1
  O  O205  1  0.49732260  0.26503559  0.86729977  1
  O  O206  1  0.51510977  0.75542400  0.36411294  1
  O  O207  1  0.50602975  0.75265079  0.86838870  1
  O  O208  1  0.21301418  0.11553415  0.48290013  1
  O  O209  1  0.24907740  0.14086966  0.99852710  1
  O  O210  1  0.24319762  0.64579155  0.47998647  1
  O  O211  1  0.25721731  0.63146877  0.99587156  1
  O  O212  1  0.75735257  0.11582294  0.49504374  1
  O  O213  1  0.77646381  0.11463925  0.98665567  1
  O  O214  1  0.73937357  0.62911193  0.48719049  1
  O  O215  1  0.74364922  0.63734150  0.99406471  1
  O  O216  1  0.25383219  0.35847957  0.00428651  1
  O  O217  1  0.26839585  0.36679685  0.45185620  1
  O  O218  1  0.25371931  0.84116330  -0.00175756  1
  O  O219  1  0.24599095  0.87431667  0.52916898  1
  O  O220  1  0.74920280  0.37498369  -0.00053150  1
  O  O221  1  0.74376490  0.35554485  0.43720326  1
  O  O222  1  0.74949058  0.86409530  -0.00044019  1
  O  O223  1  0.76015172  0.89330483  0.49357686  1
  O  O224  1  0.14021087  0.48842096  0.26964017  1
  O  O225  1  0.13821270  0.49893282  0.71594410  1
  O  O226  1  0.13362264  0.98500662  0.20870322  1
  O  O227  1  0.11822212  0.99879681  0.76331304  1
  O  O228  1  0.63921987  0.50459123  0.23541563  1
  O  O229  1  0.62871792  0.51079703  0.73067173  1
  O  O230  1  0.63968929  0.99947007  0.22748940  1
  O  O231  1  0.62002912  0.98667210  0.75835649  1
  O  O232  1  0.42636326  -0.03845979  0.32935252  1
  O  O233  1  0.39383442  0.02201442  0.77738180  1
  O  O234  1  0.36895373  0.51273521  0.25813286  1
  O  O235  1  0.35060557  0.46213255  0.72594621  1
  O  O236  1  0.86140657  0.00895371  0.22479447  1
  O  O237  1  0.87076827  -0.02319175  0.75903838  1
  O  O238  1  0.86331734  0.50183818  0.25849081  1
  O  O239  1  0.80162560  0.40514821  0.75479683  1
  O  O240  1  0.11522422  0.36321538  0.37721379  1
  O  O241  1  0.11217521  0.36223693  0.84930203  1
  O  O242  1  0.11408517  0.86624761  0.38226251  1
  O  O243  1  0.14088775  0.88561174  0.87059988  1
  O  O244  1  0.58496451  0.43696328  0.36250308  1
  O  O245  1  0.59756519  0.37570488  0.90368056  1
  O  O246  1  0.63312734  0.86901502  0.37930841  1
  O  O247  1  0.61425679  0.86743199  0.87685107  1
  O  O248  1  0.35170591  0.06169971  0.16558129  1
  O  O249  1  0.38956222  0.10897674  0.64457719  1
  O  O250  1  0.39682874  0.61593287  0.13449758  1
  O  O251  1  0.39381079  0.64533307  0.62110649  1
  O  O252  1  0.89330455  0.14315615  0.12995069  1
  O  O253  1  0.88510191  0.11747841  0.64384937  1
  O  O254  1  0.88229669  0.63781417  0.12936911  1
  O  O255  1  0.87726634  0.64465355  0.62137376  1
  O  O256  1  0.25269083  0.24169163  0.13179187  1
  O  O257  1  0.26652649  0.20877318  0.59878046  1
  O  O258  1  0.25378572  0.73244894  0.10174747  1
  O  O259  1  0.27285318  0.74026363  0.62610247  1
  O  O260  1  0.76553064  0.23831443  0.12976391  1
  O  O261  1  0.71126201  0.23236235  0.60888324  1
  O  O262  1  0.74936372  0.76114877  0.11634075  1
  O  O263  1  0.75946486  0.75418370  0.63288643  1
  O  O264  1  0.22520965  0.23307081  0.37993970  1
  O  O265  1  0.26214687  0.24525337  0.87525473  1
  O  O266  1  0.26348397  0.76671985  0.36260134  1
  O  O267  1  0.26131368  0.74145298  0.89117955  1
  O  O268  1  0.72810391  0.21410581  0.36651728  1
  O  O269  1  0.75546586  0.22963334  0.87331316  1
  O  O270  1  0.73785350  0.74337115  0.36528921  1
  O  O271  1  0.74500263  0.74695265  0.88633076  1
  O  O272  1  0.01793389  0.15339915  -0.01665995  1
  O  O273  1  -0.00784110  0.11962685  0.51994623  1
  O  O274  1  -0.00265342  0.63021224  0.02476407  1
  O  O275  1  0.01655508  0.62322190  0.48432019  1
  O  O276  1  0.50531548  0.12798729  -0.00989055  1
  O  O277  1  0.46966967  0.08129848  0.49650165  1
  O  O278  1  0.51362160  0.63402527  0.01716835  1
  O  O279  1  0.51277004  0.63941345  0.51387654  1
  O  O280  1  0.43351133  0.31913508  0.53723471  1
  O  O281  1  0.47723406  0.37118650  0.99204327  1
  O  O282  1  0.54278617  0.91864206  0.51392312  1
  O  O283  1  0.49789260  0.85848579  0.98905955  1
  O  O284  1  1.00731840  0.39996845  0.48423223  1
  O  O285  1  1.02255065  0.38328309  0.98030358  1
  O  O286  1  0.99667048  0.87341449  0.48871027  1
  O  O287  1  0.95921345  0.83320110  0.89641699  1
  O  O288  1  0.47505006  0.53959499  0.38226437  1
  O  O289  1  0.49613020  0.49250775  0.86381564  1
  O  O290  1  0.49783339  0.97530889  0.36119627  1
  O  O291  1  0.50309467  0.98615929  0.88794416  1
  O  O292  1  0.99274027  0.50629802  0.37802506  1
  O  O293  1  0.98959117  0.45059256  0.80542897  1
  O  O294  1  1.00892755  0.97092043  0.33042283  1
  O  O295  1  0.97231633  0.98990630  0.93385396  1
  O  O296  1  0.00315892  0.02460239  0.11816170  1
  O  O297  1  -0.00346899  -0.00471502  0.63353779  1
  O  O298  1  0.00253666  0.50605379  0.12650672  1
  O  O299  1  0.01706734  0.49976598  0.60433381  1
  O  O300  1  0.51121102  -0.01688315  0.12933116  1
  O  O301  1  0.41508603  -0.03567363  0.53445472  1
  O  O302  1  0.51949985  0.51200300  0.13528615  1
  O  O303  1  0.50313473  0.52286281  0.63037303  1
  O  O304  1  0.24440886  0.38285705  0.25979517  1
  O  O305  1  0.22213152  0.34006709  0.73299391  1
  O  O306  1  0.18297988  0.83540769  0.23718551  1
  O  O307  1  0.23857370  0.87709001  0.74315364  1
  O  O308  1  0.74676721  0.39005978  0.26036541  1
  O  O309  1  0.80795655  0.38416290  0.67814032  1
  O  O310  1  0.75113763  0.88443185  0.23831529  1
  O  O311  1  0.73716029  0.88086218  0.76832429  1
  O  O312  1  0.20611344  0.11255077  0.28346008  1
  O  O313  1  0.26972935  0.12770082  0.76652798  1
  O  O314  1  0.26484218  0.64005747  0.26316010  1
  O  O315  1  0.26131377  0.60874204  0.74707140  1
  O  O316  1  0.74308818  0.11364831  0.24447210  1
  O  O317  1  0.77393619  0.11290585  0.76505339  1
  O  O318  1  0.74483819  0.62185852  0.26128041  1
  O  O319  1  0.75027420  0.64157572  0.76995780  1
  O  O320  1  0.34839913  0.12830088  0.38827957  1
  O  O321  1  0.36754174  0.12097107  0.88524099  1
  O  O322  1  0.36139442  0.63597339  0.37367374  1
  O  O323  1  0.36027540  0.62894158  0.89284555  1
  O  O324  1  0.86175725  0.12813299  0.37517992  1
  O  O325  1  0.88040521  0.13221745  0.86248147  1
  O  O326  1  0.85956578  0.62648609  0.37894634  1
  O  O327  1  0.86255112  0.62311542  0.88149381  1
  O  O328  1  0.11702503  0.37071244  0.14733070  1
  O  O329  1  0.15474049  0.40456881  0.57628998  1
  O  O330  1  0.08583559  0.88501522  0.08942143  1
  O  O331  1  0.13713665  0.88750424  0.63989299  1
  O  O332  1  0.61954519  0.39131356  0.10921478  1
  O  O333  1  0.61207670  0.40385486  0.60763221  1
  O  O334  1  0.64192121  0.88435419  0.11467697  1
  O  O335  1  0.62593115  0.86992177  0.64743525  1
  O  O336  1  0.12280908  0.26561372  0.26706694  1
  O  O337  1  0.12486573  0.21399806  0.75867972  1
  O  O338  1  0.13877686  0.77773618  0.22408055  1
  O  O339  1  0.12404972  0.75037916  0.75002369  1
  O  O340  1  0.59513785  0.24630436  0.24413344  1
  O  O341  1  0.62652459  0.23756396  0.77016384  1
  O  O342  1  0.61925810  0.75191947  0.26294933  1
  O  O343  1  0.61980252  0.76061112  0.76351209  1
  O  O344  1  0.38921798  0.25579717  0.28947113  1
  O  O345  1  0.38583806  0.23478239  0.74885106  1
  O  O346  1  0.39917228  0.73784739  0.25543113  1
  O  O347  1  0.39008566  0.75508119  0.75279682  1
  O  O348  1  0.86418242  0.26681705  0.24900353  1
  O  O349  1  0.87081223  0.24619855  0.74490812  1
  O  O350  1  0.86015623  0.75508075  0.24011063  1
  O  O351  1  0.89608974  0.77075284  0.72705570  1
  O  O352  1  0.36562896  0.51315036  0.49344162  1
  O  O353  1  0.35507365  0.48339050  0.99143981  1
  O  O354  1  0.40436857  1.02883442  0.49731606  1
  O  O355  1  0.38016490  1.00354999  0.99371415  1
  O  O356  1  0.89315689  0.51720528  0.48966750  1
  O  O357  1  0.87056723  0.48031711  1.01965017  1
  O  O358  1  0.88103949  0.99094603  0.51214086  1
  O  O359  1  0.91233338  0.98216440  0.97358510  1
  O  O360  1  0.10659883  0.02737002  -0.00479773  1
  O  O361  1  0.10607079  0.00417025  0.49236062  1
  O  O362  1  0.12613480  0.52088418  -0.04135869  1
  O  O363  1  0.12088543  0.52229534  0.49028522  1
  O  O364  1  0.62785881  0.00984714  0.01302673  1
  O  O365  1  0.59214701  -0.02623037  0.52429177  1
  O  O366  1  0.63740416  0.51579199  0.01463120  1
  O  O367  1  0.62380235  0.52121592  0.50393032  1
  O  O368  1  0.37719309  0.38933942  0.11483755  1
  O  O369  1  0.39670572  0.37115420  0.58134037  1
  O  O370  1  0.33505441  0.88485252  0.18696342  1
  O  O371  1  0.36081211  0.86852504  0.64228059  1
  O  O372  1  0.87269571  0.36661259  0.12685443  1
  O  O373  1  0.87043119  0.41659990  0.64006628  1
  O  O374  1  0.85951438  0.86702354  0.12225225  1
  O  O375  1  0.88175796  0.86436590  0.60705074  1
  O  O376  1  0.08389046  0.13647302  0.39253484  1
  O  O377  1  0.15029629  0.12709944  0.88789387  1
  O  O378  1  0.14265300  0.64416403  0.37477523  1
  O  O379  1  0.10668540  0.57009689  0.90648762  1
  O  O380  1  0.64918202  0.06370638  0.39401701  1
  O  O381  1  0.64306314  0.11800131  0.89772693  1
  O  O382  1  0.63440805  0.62776001  0.38277972  1
  O  O383  1  0.62623393  0.63568776  0.88472379  1
