# generated using pymatgen
data_VZnO4
_symmetry_space_group_name_H-M   'P 1'
_cell_length_a   16.98790720
_cell_length_b   17.17739736
_cell_length_c   17.02035939
_cell_angle_alpha   89.58540108
_cell_angle_beta   90.49300657
_cell_angle_gamma   89.99441175
_symmetry_Int_Tables_number   1
_chemical_formula_structural   VZnO4
_chemical_formula_sum   'V64 Zn64 O256'
_cell_volume   4966.36363028
_cell_formula_units_Z   64
loop_
 _symmetry_equiv_pos_site_id
 _symmetry_equiv_pos_as_xyz
  1  'x, y, z'
loop_
 _atom_site_type_symbol
 _atom_site_label
 _atom_site_symmetry_multiplicity
 _atom_site_fract_x
 _atom_site_fract_y
 _atom_site_fract_z
 _atom_site_occupancy
  V  V0  1  0.62627761  0.75087961  0.36799188  1
  V  V1  1  0.52831283  0.14947911  0.10532241  1
  V  V2  1  0.02851529  0.25731870  0.24475488  1
  V  V3  1  0.37277713  0.50371163  0.87305154  1
  V  V4  1  -0.00196646  0.10326919  0.13444910  1
  V  V5  1  0.63685581  0.24220490  0.87306459  1
  V  V6  1  0.40741616  0.12455685  0.26068798  1
  V  V7  1  0.24934012  0.00209529  0.76086649  1
  V  V8  1  0.11346239  0.49483183  0.62168582  1
  V  V9  1  -0.00793838  0.36896081  0.87790497  1
  V  V10  1  0.88788406  0.72969809  0.14484119  1
  V  V11  1  0.62174155  0.47957886  0.62792569  1
  V  V12  1  0.25131094  0.11027210  0.36250817  1
  V  V13  1  0.62326637  0.49916046  0.13143897  1
  V  V14  1  0.48117564  0.14349409  0.61354273  1
  V  V15  1  0.49844123  0.62959702  0.12470189  1
  V  V16  1  0.12167012  0.63737713  0.50395169  1
  V  V17  1  0.36674684  0.50118453  0.37663267  1
  V  V18  1  -0.01010186  0.64085767  0.62244357  1
  V  V19  1  0.49516209  0.62423855  0.63501835  1
  V  V20  1  0.01844574  0.37961637  0.36666886  1
  V  V21  1  0.13322535  0.88807008  0.26521061  1
  V  V22  1  0.00413818  0.83988154  0.38023025  1
  V  V23  1  0.76682566  0.48834287  0.24884508  1
  V  V24  1  0.24656728  0.63056386  0.39249747  1
  V  V25  1  0.61957697  0.27478648  0.35240318  1
  V  V26  1  0.87826770  0.48254936  0.39762229  1
  V  V27  1  0.75397429  0.60907631  0.37131102  1
  V  V28  1  0.63234439  0.63813928  -0.00994291  1
  V  V29  1  0.75238097  0.49071008  0.73952136  1
  V  V30  1  0.38344956  0.87561359  0.49311935  1
  V  V31  1  0.36045315  0.62618266  0.24188340  1
  V  V32  1  -0.02277935  -0.01513879  0.49434607  1
  V  V33  1  0.75597204  0.84568978  0.14150019  1
  V  V34  1  0.87065377  0.63948010  0.74652888  1
  V  V35  1  0.49773618  0.74825394  0.25665694  1
  V  V36  1  0.86681417  0.50674546  0.87917727  1
  V  V37  1  0.25295651  0.50393340  0.75456163  1
  V  V38  1  0.75669306  0.38695390  0.10738809  1
  V  V39  1  0.49728011  0.49748854  -0.00265821  1
  V  V40  1  0.12616603  0.13790488  0.49627479  1
  V  V41  1  0.25085134  0.75641438  -0.00318314  1
  V  V42  1  0.01684742  0.61526899  0.13362178  1
  V  V43  1  0.19513178  0.12942457  0.87586631  1
  V  V44  1  0.61830960  0.60299756  0.49658432  1
  V  V45  1  0.21429396  0.23515645  0.00191746  1
  V  V46  1  0.38579647  0.37925536  0.50922597  1
  V  V47  1  0.25066946  0.36568082  0.63177855  1
  V  V48  1  0.87111724  0.25065008  0.13852753  1
  V  V49  1  0.75408043  0.22920881  -0.00024185  1
  V  V50  1  0.79358121  0.10991867  0.36623353  1
  V  V51  1  0.71288715  0.91447642  0.65311116  1
  V  V52  1  0.25192718  0.26623022  0.46370506  1
  V  V53  1  0.74241222  -0.00536419  0.80185099  1
  V  V54  1  0.51227149  0.38318488  0.86427624  1
  V  V55  1  0.75947599  0.74745972  0.49765118  1
  V  V56  1  0.49147055  0.38422085  0.34913660  1
  V  V57  1  0.00047793  -0.01142876  -0.01069607  1
  V  V58  1  0.12117331  0.36489146  0.76232941  1
  V  V59  1  0.87965257  0.85623894  -0.01390924  1
  V  V60  1  0.02720483  0.50980225  -0.00519436  1
  V  V61  1  0.12668628  -0.00270519  0.62334648  1
  V  V62  1  0.85771222  0.11880824  0.79400695  1
  V  V63  1  0.45078259  0.24281789  0.77867630  1
  Zn  Zn64  1  0.18741303  0.17203274  0.17503974  1
  Zn  Zn65  1  0.18356958  0.19147848  0.69973456  1
  Zn  Zn66  1  0.18328642  0.69945963  0.18651767  1
  Zn  Zn67  1  0.17313724  0.67465647  0.69774810  1
  Zn  Zn68  1  0.69938126  0.20463095  0.19356421  1
  Zn  Zn69  1  0.84542549  0.20520911  0.64612045  1
  Zn  Zn70  1  0.68805469  0.67576639  0.19048728  1
  Zn  Zn71  1  0.68932338  0.67759890  0.67717108  1
  Zn  Zn72  1  0.33361144  0.30755454  0.28385388  1
  Zn  Zn73  1  0.33814723  0.29974255  0.91177943  1
  Zn  Zn74  1  0.30415232  0.80372891  0.31071569  1
  Zn  Zn75  1  0.17163087  0.82602428  0.81967117  1
  Zn  Zn76  1  0.81726825  0.29184090  0.34237290  1
  Zn  Zn77  1  0.81095055  0.31239832  0.81465830  1
  Zn  Zn78  1  0.82355940  0.79208149  0.31344687  1
  Zn  Zn79  1  0.87344741  0.86096288  0.76628835  1
  Zn  Zn80  1  0.19438790  0.44835283  0.43958680  1
  Zn  Zn81  1  0.19523372  0.42090520  0.94163294  1
  Zn  Zn82  1  0.17940536  0.94478008  0.43763098  1
  Zn  Zn83  1  0.17795923  0.95310515  0.95128791  1
  Zn  Zn84  1  0.68941273  0.41821366  0.43502854  1
  Zn  Zn85  1  0.68489696  0.46064100  0.93685103  1
  Zn  Zn86  1  0.82045603  0.92546449  0.42240168  1
  Zn  Zn87  1  0.69174149  0.87607496  0.94617761  1
  Zn  Zn88  1  0.37530824  0.22032930  0.10162603  1
  Zn  Zn89  1  0.27367468  0.10716788  0.58644123  1
  Zn  Zn90  1  0.30967715  0.56250502  0.05682011  1
  Zn  Zn91  1  0.31034742  0.55202070  0.56795967  1
  Zn  Zn92  1  0.80769597  0.04246721  -0.03448079  1
  Zn  Zn93  1  0.78388441  0.05761899  0.54805620  1
  Zn  Zn94  1  0.81211087  0.57119692  0.06107030  1
  Zn  Zn95  1  0.80916678  0.56136028  0.56155114  1
  Zn  Zn96  1  0.43514889  0.46416003  0.19202551  1
  Zn  Zn97  1  0.43953008  0.43593946  0.68899424  1
  Zn  Zn98  1  0.44740666  0.94642357  0.22964762  1
  Zn  Zn99  1  0.41053007  0.99701271  0.66470644  1
  Zn  Zn100  1  0.94449987  0.43698732  0.17974087  1
  Zn  Zn101  1  0.93416664  0.43994235  0.69492711  1
  Zn  Zn102  1  0.97198169  0.89737646  0.17540020  1
  Zn  Zn103  1  0.92073202  1.01435129  0.66940725  1
  Zn  Zn104  1  0.05987172  0.07237309  0.31693259  1
  Zn  Zn105  1  0.04006726  0.05799971  0.80412591  1
  Zn  Zn106  1  0.05734261  0.56600357  0.32518902  1
  Zn  Zn107  1  0.04301837  0.54253537  0.79354234  1
  Zn  Zn108  1  0.61476970  0.10850563  0.29136719  1
  Zn  Zn109  1  0.62418567  0.06727879  0.66454356  1
  Zn  Zn110  1  0.55639702  0.56138767  0.31210656  1
  Zn  Zn111  1  0.56843877  0.56652279  0.80781404  1
  Zn  Zn112  1  0.43559623  0.20284858  0.42697592  1
  Zn  Zn113  1  0.45967423  0.16214104  0.93588570  1
  Zn  Zn114  1  0.43770611  0.68290513  0.44320099  1
  Zn  Zn115  1  0.43124963  0.67490187  0.93743923  1
  Zn  Zn116  1  0.95249495  0.22853755  0.44696701  1
  Zn  Zn117  1  0.94207542  0.18532323  0.96018667  1
  Zn  Zn118  1  0.93688458  0.67032513  0.43420996  1
  Zn  Zn119  1  0.93915771  0.67947410  0.93795443  1
  Zn  Zn120  1  0.03358005  0.31609432  0.05168763  1
  Zn  Zn121  1  0.08289138  0.33121774  0.54081833  1
  Zn  Zn122  1  0.06002777  0.80836522  0.06905836  1
  Zn  Zn123  1  0.00666395  0.85209490  0.61685465  1
  Zn  Zn124  1  0.57565835  0.32104197  0.05452081  1
  Zn  Zn125  1  0.63515567  0.27041758  0.66468477  1
  Zn  Zn126  1  0.57133345  0.80187669  0.08121488  1
  Zn  Zn127  1  0.57605872  0.79382690  0.55831443  1
  O  O128  1  0.09607514  0.12092605  0.12883553  1
  O  O129  1  0.15669960  0.13643154  0.60184037  1
  O  O130  1  0.11689924  0.62557780  0.12953844  1
  O  O131  1  0.11401312  0.61363739  0.62069376  1
  O  O132  1  0.61461182  0.13169023  0.16124058  1
  O  O133  1  0.58735619  0.17125672  0.64357465  1
  O  O134  1  0.61322809  0.61935983  0.11868841  1
  O  O135  1  0.61907390  0.61003635  0.60869829  1
  O  O136  1  0.37888824  0.38444627  0.37454262  1
  O  O137  1  0.40143836  0.39463380  0.88529116  1
  O  O138  1  0.37905681  0.85649043  0.38879887  1
  O  O139  1  0.40959284  0.77451118  0.82004000  1
  O  O140  1  0.88201378  0.38268595  0.37400519  1
  O  O141  1  0.88668309  0.39478710  0.86430157  1
  O  O142  1  0.89641329  0.85172246  0.37907837  1
  O  O143  1  0.87414390  0.85546614  0.88697312  1
  O  O144  1  0.25384036  0.01480156  0.38057997  1
  O  O145  1  0.22384508  0.01946512  0.87188174  1
  O  O146  1  0.25676415  0.51538202  0.37322344  1
  O  O147  1  0.26259480  0.48756493  0.86745749  1
  O  O148  1  0.82953337  0.01844921  0.35084952  1
  O  O149  1  0.72619512  -0.01843289  0.90396532  1
  O  O150  1  0.76258649  0.48893284  0.36624342  1
  O  O151  1  0.76219013  0.50402695  0.86084173  1
  O  O152  1  0.26235168  0.46861951  0.10448049  1
  O  O153  1  0.24154719  0.48906634  0.63924978  1
  O  O154  1  0.35052821  0.95147353  0.08618985  1
  O  O155  1  0.23473982  1.00922940  0.64696159  1
  O  O156  1  0.74707558  0.49991249  0.13151200  1
  O  O157  1  0.74321641  0.49880221  0.63346499  1
  O  O158  1  0.76438617  0.98009660  0.13487008  1
  O  O159  1  0.69680864  1.00656491  0.59956278  1
  O  O160  1  0.00124426  0.37013220  0.25549690  1
  O  O161  1  0.01015475  0.38735167  0.76689342  1
  O  O162  1  0.00689178  0.86956719  0.28184433  1
  O  O163  1  -0.05520223  0.90590819  0.69185247  1
  O  O164  1  0.47828847  0.37862069  0.24923022  1
  O  O165  1  0.49475128  0.36402517  0.76264419  1
  O  O166  1  0.48730039  0.84657428  0.25499949  1
  O  O167  1  0.46170541  0.88793094  0.73200052  1
  O  O168  1  0.50035631  0.12342824  0.29565860  1
  O  O169  1  0.45648674  0.15134462  0.82048810  1
  O  O170  1  0.48743597  0.62562057  0.24028885  1
  O  O171  1  0.50298108  0.62237044  0.73529429  1
  O  O172  1  1.00531410  0.15163217  0.24473660  1
  O  O173  1  0.95101911  0.10241612  0.74969653  1
  O  O174  1  1.00456751  0.59549284  0.23161326  1
  O  O175  1  0.98854398  0.61854205  0.72972522  1
  O  O176  1  0.37796170  0.22028720  -0.01340391  1
  O  O177  1  0.35874993  0.27412377  0.48822030  1
  O  O178  1  0.35559060  0.75031544  -0.01285371  1
  O  O179  1  0.37695522  0.77042897  0.50175397  1
  O  O180  1  0.86099833  0.24984193  0.01843114  1
  O  O181  1  0.91353191  0.25417131  0.56321534  1
  O  O182  1  0.89011323  0.75310758  0.00536619  1
  O  O183  1  0.85739083  0.72681734  0.48856751  1
  O  O184  1  0.14908539  0.25097920  0.49580785  1
  O  O185  1  0.11742150  0.25453196  1.01678275  1
  O  O186  1  0.12895878  0.73036258  0.51051597  1
  O  O187  1  0.14672133  0.75950261  1.00820513  1
  O  O188  1  0.74920179  0.29291945  0.53333173  1
  O  O189  1  0.64849872  0.26004869  0.99105174  1
  O  O190  1  0.63205613  0.72512266  0.47972751  1
  O  O191  1  0.61633255  0.73733936  1.00144893  1
  O  O192  1  0.50512796  0.24900833  0.10295128  1
  O  O193  1  0.45335364  0.22961751  0.67608759  1
  O  O194  1  0.49999111  0.73761163  0.14159274  1
  O  O195  1  0.50987235  0.72128800  0.61351479  1
  O  O196  1  0.98156526  0.27282963  0.13954093  1
  O  O197  1  0.91394780  0.33560519  0.57874766  1
  O  O198  1  0.99720839  0.72488244  0.12328163  1
  O  O199  1  0.99903692  0.73768086  0.62186717  1
  O  O200  1  0.01585903  0.26459723  0.34887034  1
  O  O201  1  -0.01662635  0.27228143  0.89478968  1
  O  O202  1  0.01032569  0.74103483  0.38399129  1
  O  O203  1  0.01750697  0.74079973  0.86426990  1
  O  O204  1  0.50184350  0.28092207  0.37281532  1
  O  O205  1  0.52085885  0.27342639  0.87738798  1
  O  O206  1  0.51390386  0.72759553  0.36506079  1
  O  O207  1  0.46804019  0.76461747  0.86457712  1
  O  O208  1  0.25745875  0.15564054  0.47531533  1
  O  O209  1  0.21261719  0.12731191  0.98122404  1
  O  O210  1  0.23995818  0.61961163  0.49887892  1
  O  O211  1  0.25079014  0.65044362  1.00372830  1
  O  O212  1  0.74142782  0.09893650  0.45061558  1
  O  O213  1  0.75068136  0.13175072  1.01023683  1
  O  O214  1  0.73994298  0.61866170  0.48655977  1
  O  O215  1  0.73110960  0.62433614  1.00351677  1
  O  O216  1  0.25337637  0.33557432  -0.01547697  1
  O  O217  1  0.24647953  0.36819312  0.50906456  1
  O  O218  1  0.25942088  0.85857966  -0.00589533  1
  O  O219  1  0.28042206  0.88858309  0.48956200  1
  O  O220  1  0.75259093  0.39686152  0.00828116  1
  O  O221  1  0.74384526  0.36905120  0.53681893  1
  O  O222  1  0.77435912  0.86303858  0.02219461  1
  O  O223  1  0.75288860  0.84431152  0.46855926  1
  O  O224  1  0.15215267  0.50494947  0.24789489  1
  O  O225  1  0.13058498  0.49383120  0.74098274  1
  O  O226  1  0.11606135  0.98721173  0.26768432  1
  O  O227  1  0.10269194  1.01875581  0.71992116  1
  O  O228  1  0.62108555  0.50515848  0.23317867  1
  O  O229  1  0.64316655  0.50772019  0.73834435  1
  O  O230  1  0.61085046  0.98840981  0.25603642  1
  O  O231  1  0.65588088  0.98905710  0.74336465  1
  O  O232  1  0.38004916  0.02656715  0.25424541  1
  O  O233  1  0.34894487  0.00026468  0.75959331  1
  O  O234  1  0.36772399  0.52137145  0.26159005  1
  O  O235  1  0.36010849  0.48945176  0.75715051  1
  O  O236  1  0.80447500  0.01146648  0.18726387  1
  O  O237  1  0.84878908  0.00404470  0.78860877  1
  O  O238  1  0.86642645  0.49368949  0.24653859  1
  O  O239  1  0.86669937  0.51018746  0.75304605  1
  O  O240  1  0.11562513  0.40059355  0.37049834  1
  O  O241  1  0.11327194  0.37522758  0.86692285  1
  O  O242  1  0.11494707  0.87284794  0.37907175  1
  O  O243  1  0.12205265  0.86581325  0.90834096  1
  O  O244  1  0.59336998  0.39387773  0.37082480  1
  O  O245  1  0.61331045  0.39655471  0.87559185  1
  O  O246  1  0.62555181  0.84443653  0.37069010  1
  O  O247  1  0.63480154  0.81855344  0.85928394  1
  O  O248  1  0.44029826  0.11319706  0.14585962  1
  O  O249  1  0.37884738  0.10403186  0.61904633  1
  O  O250  1  0.37766903  0.61861125  0.13651690  1
  O  O251  1  0.39758291  0.60584894  0.61135257  1
  O  O252  1  0.89119748  0.15223994  0.13761725  1
  O  O253  1  0.84909715  0.09541456  0.62994721  1
  O  O254  1  0.88988170  0.62787366  0.11711407  1
  O  O255  1  0.88539485  0.62114928  0.62713789  1
  O  O256  1  0.25506438  0.22112110  0.09845257  1
  O  O257  1  0.25191724  0.26728555  0.63786162  1
  O  O258  1  0.25595790  0.75565283  0.10280939  1
  O  O259  1  0.25068642  0.75862280  0.65420686  1
  O  O260  1  0.75262696  0.26744276  0.11236900  1
  O  O261  1  0.74022340  0.25418680  0.60765147  1
  O  O262  1  0.76945588  0.73853782  0.13685365  1
  O  O263  1  0.74246324  0.73589995  0.59609889  1
  O  O264  1  0.25014607  0.27929685  0.36575837  1
  O  O265  1  0.22854501  0.22854976  0.88508172  1
  O  O266  1  0.24870008  0.72740813  0.37725998  1
  O  O267  1  0.23691087  0.75056112  0.89371674  1
  O  O268  1  0.71477754  0.31135651  0.38563390  1
  O  O269  1  0.75294036  0.25427361  0.89563525  1
  O  O270  1  0.73980162  0.72459053  0.36807755  1
  O  O271  1  0.67295406  0.76452886  0.81746385  1
  O  O272  1  -0.01895003  0.09751078  0.02409436  1
  O  O273  1  0.02886022  0.15497266  0.49646608  1
  O  O274  1  0.01093074  0.61136266  -0.00049730  1
  O  O275  1  0.01088349  0.62098605  0.51356102  1
  O  O276  1  0.53148776  0.11509107  0.01088175  1
  O  O277  1  0.48886250  0.16173389  0.51626830  1
  O  O278  1  0.50043717  0.62139620  0.01080160  1
  O  O279  1  0.51721002  0.61259973  0.49281913  1
  O  O280  1  0.48151671  0.37733355  0.50352837  1
  O  O281  1  0.51034148  0.39578588  0.99384493  1
  O  O282  1  0.48677619  0.85701612  0.50218143  1
  O  O283  1  0.52415179  0.89081180  1.01140792  1
  O  O284  1  1.00242406  0.34422274  0.46583250  1
  O  O285  1  1.00189567  0.39761483  0.98444341  1
  O  O286  1  1.00238683  0.88389774  0.49108039  1
  O  O287  1  0.98827414  0.87814225  1.01252502  1
  O  O288  1  0.47912995  0.49423037  0.36704711  1
  O  O289  1  0.49623560  0.49830807  0.87498040  1
  O  O290  1  0.56781713  1.01069001  0.40851300  1
  O  O291  1  0.52737076  0.88535421  0.76315177  1
  O  O292  1  0.98627947  0.48810929  0.37447309  1
  O  O293  1  0.99344069  0.49969826  0.88437622  1
  O  O294  1  1.00249203  1.02300392  0.40545990  1
  O  O295  1  1.00574790  0.99227767  0.89094026  1
  O  O296  1  -0.01964123  0.00935193  0.15700539  1
  O  O297  1  0.01405874  0.01993199  0.58594467  1
  O  O298  1  0.00145577  0.50372033  0.10199541  1
  O  O299  1  0.01187411  0.49521904  0.62786659  1
  O  O300  1  0.56147911  -0.01948773  0.19854705  1
  O  O301  1  0.51095606  0.04422003  0.63915111  1
  O  O302  1  0.50300690  0.50918147  0.11596667  1
  O  O303  1  0.51891964  0.50177315  0.63493082  1
  O  O304  1  0.27725759  0.37737718  0.20129316  1
  O  O305  1  0.22768253  0.38514776  0.74635504  1
  O  O306  1  0.23583838  0.87995607  0.26751713  1
  O  O307  1  0.22499351  0.90461370  0.76498843  1
  O  O308  1  0.74582155  0.39285706  0.23320712  1
  O  O309  1  0.76117175  0.39323358  0.75021487  1
  O  O310  1  0.76643446  0.86016890  0.24055721  1
  O  O311  1  0.75994144  0.89445000  0.75698845  1
  O  O312  1  0.23698512  0.12286658  0.26342336  1
  O  O313  1  0.23097314  0.11776476  0.77031888  1
  O  O314  1  0.25887871  0.63603042  0.25160471  1
  O  O315  1  0.24264334  0.60183095  0.75032960  1
  O  O316  1  0.73135001  0.13260404  0.28219361  1
  O  O317  1  0.75024664  0.10051588  0.78386591  1
  O  O318  1  0.74191468  0.60048802  0.26239472  1
  O  O319  1  0.76769993  0.61685601  0.73815218  1
  O  O320  1  0.35986137  0.14513040  0.36010076  1
  O  O321  1  0.40870195  -0.01645633  0.92535094  1
  O  O322  1  0.36112604  0.61866588  0.38108920  1
  O  O323  1  0.38224223  0.60301029  0.86553680  1
  O  O324  1  0.86241289  0.18911043  0.38568602  1
  O  O325  1  0.87140650  0.12124370  0.89532613  1
  O  O326  1  0.86521242  0.59567401  0.38097383  1
  O  O327  1  0.88623194  0.61457769  0.85575401  1
  O  O328  1  0.12858172  0.45737145  0.19868753  1
  O  O329  1  0.12715817  0.38328785  0.63092213  1
  O  O330  1  0.09306464  0.87233539  0.15852334  1
  O  O331  1  0.11599116  0.89968014  0.61547967  1
  O  O332  1  0.64147641  0.39204450  0.11534140  1
  O  O333  1  0.61901024  0.38222448  0.63398638  1
  O  O334  1  0.65679185  0.85685990  0.12705556  1
  O  O335  1  0.63484437  0.85553936  0.62768591  1
  O  O336  1  0.12423097  0.26136054  0.22549338  1
  O  O337  1  0.11400581  0.26943356  0.74269147  1
  O  O338  1  0.12879158  0.77400475  0.24459468  1
  O  O339  1  0.11396773  0.74278211  0.76757632  1
  O  O340  1  0.62696070  0.27054796  0.25356577  1
  O  O341  1  0.65065556  0.27026118  0.77681891  1
  O  O342  1  0.61168067  0.73107531  0.25922436  1
  O  O343  1  0.62748729  0.73677467  0.75868171  1
  O  O344  1  0.37335172  0.22253640  0.22113005  1
  O  O345  1  0.35955151  0.27259261  0.79795102  1
  O  O346  1  0.38527688  0.73111371  0.26456320  1
  O  O347  1  0.32153846  0.75354456  0.67677784  1
  O  O348  1  0.85008228  0.26409151  0.23519062  1
  O  O349  1  0.84977421  0.22062475  0.76084987  1
  O  O350  1  0.88820227  0.72621636  0.24390851  1
  O  O351  1  0.87296048  0.73629961  0.75150955  1
  O  O352  1  0.36157094  0.48343217  0.48830038  1
  O  O353  1  0.38509966  0.51029958  0.98635468  1
  O  O354  1  0.40773186  0.97034153  0.46635256  1
  O  O355  1  0.40607379  0.91753113  0.89861956  1
  O  O356  1  0.86888813  0.48553743  0.49595917  1
  O  O357  1  0.87064688  0.51337539  0.97863831  1
  O  O358  1  0.87547178  0.98788359  0.50517890  1
  O  O359  1  0.88553386  0.97151916  1.00284505  1
  O  O360  1  0.09716910  -0.01204663  0.02181564  1
  O  O361  1  0.14425864  0.02577818  0.51022355  1
  O  O362  1  0.12597731  0.49923969  -0.01125620  1
  O  O363  1  0.13113730  0.50129622  0.52097713  1
  O  O364  1  0.57242756  -0.07907555  -0.03775110  1
  O  O365  1  0.58769780  -0.00035615  0.47729595  1
  O  O366  1  0.61406442  0.51715992  0.01059207  1
  O  O367  1  0.63614829  0.49673933  0.51411491  1
  O  O368  1  0.31553071  0.41735635  0.14308683  1
  O  O369  1  0.36568368  0.38639407  0.61411541  1
  O  O370  1  0.39267071  0.90291552  0.12252240  1
  O  O371  1  0.37921834  0.89715903  0.59369860  1
  O  O372  1  0.86025024  0.37594226  0.12268980  1
  O  O373  1  0.87865604  0.34995539  0.64886151  1
  O  O374  1  0.88071193  0.84132470  0.12992879  1
  O  O375  1  0.79419313  0.88824115  0.60953904  1
  O  O376  1  0.14181134  0.12728797  0.38744619  1
  O  O377  1  0.09571108  0.13626043  0.86623867  1
  O  O378  1  0.13283744  0.61336965  0.39451171  1
  O  O379  1  0.07345719  0.69887912  0.83429194  1
  O  O380  1  0.61928590  0.18181142  0.38544263  1
  O  O381  1  0.62304160  0.14923601  0.87258789  1
  O  O382  1  0.63516864  0.60132123  0.38544687  1
  O  O383  1  0.61623885  0.62285194  0.89167745  1
