# generated using pymatgen
data_VZnO4
_symmetry_space_group_name_H-M   'P 1'
_cell_length_a   16.93845372
_cell_length_b   16.94333881
_cell_length_c   16.92551804
_cell_angle_alpha   89.88730212
_cell_angle_beta   89.73798649
_cell_angle_gamma   89.97374601
_symmetry_Int_Tables_number   1
_chemical_formula_structural   VZnO4
_chemical_formula_sum   'V64 Zn64 O256'
_cell_volume   4857.46077472
_cell_formula_units_Z   64
loop_
 _symmetry_equiv_pos_site_id
 _symmetry_equiv_pos_as_xyz
  1  'x, y, z'
loop_
 _atom_site_type_symbol
 _atom_site_label
 _atom_site_symmetry_multiplicity
 _atom_site_fract_x
 _atom_site_fract_y
 _atom_site_fract_z
 _atom_site_occupancy
  V  V0  1  0.23742529  0.75281056  0.01128643  1
  V  V1  1  0.13283257  0.26744849  0.36772942  1
  V  V2  1  0.25410262  0.39610518  0.61662389  1
  V  V3  1  0.25266887  -0.00687686  0.22926555  1
  V  V4  1  0.62416608  0.50192377  0.61442547  1
  V  V5  1  0.86246131  0.45802530  0.38785056  1
  V  V6  1  0.02412831  0.22403702  0.72647445  1
  V  V7  1  0.47909325  0.62988458  0.62651033  1
  V  V8  1  0.12892189  0.38413000  0.74690506  1
  V  V9  1  0.49233999  0.86388748  0.37417597  1
  V  V10  1  0.25507426  0.63818035  0.84429778  1
  V  V11  1  0.83286039  0.60533521  0.27128657  1
  V  V12  1  0.48287398  0.37544133  0.38773026  1
  V  V13  1  0.00643843  0.27001642  0.23982153  1
  V  V14  1  0.48956321  0.62844549  0.13322453  1
  V  V15  1  0.62178530  0.25397251  0.38688360  1
  V  V16  1  0.47674336  0.76049474  0.74710305  1
  V  V17  1  0.36796710  0.25799777  0.61814847  1
  V  V18  1  0.09984678  0.88114343  0.25414480  1
  V  V19  1  0.87707935  0.23169511  0.11973390  1
  V  V20  1  0.37682595  0.77484702  0.12705069  1
  V  V21  1  0.40451799  0.02459833  0.87252238  1
  V  V22  1  0.10850393  0.73972901  0.84874250  1
  V  V23  1  0.24626723  0.13238126  0.38318731  1
  V  V24  1  0.37149377  0.13105204  0.22656217  1
  V  V25  1  0.13248955  0.89663305  0.77030892  1
  V  V26  1  0.74190448  0.23331381  0.00102716  1
  V  V27  1  0.00076994  0.71691026  0.26300589  1
  V  V28  1  0.63454335  0.87878884  0.74862359  1
  V  V29  1  -0.00623693  0.49074486  0.51481766  1
  V  V30  1  0.62151507  0.01062266  0.13877107  1
  V  V31  1  0.38027908  0.00820975  0.38458918  1
  V  V32  1  0.49546317  0.24737902  0.23358887  1
  V  V33  1  0.88395763  0.88543307  -0.02359092  1
  V  V34  1  0.87282949  0.01852621  0.85364176  1
  V  V35  1  0.61418106  -0.00730894  0.62126109  1
  V  V36  1  0.36813784  0.52214942  0.37724668  1
  V  V37  1  0.00244932  0.50725816  0.01194597  1
  V  V38  1  0.35287691  0.48692509  0.87166477  1
  V  V39  1  0.00485444  0.10570455  0.12142684  1
  V  V40  1  0.91065917  0.86213729  0.49658345  1
  V  V41  1  0.62423476  0.63973540  -0.00638815  1
  V  V42  1  0.22402407  0.63332763  0.37689396  1
  V  V43  1  0.62088991  0.37918875  0.24824786  1
  V  V44  1  0.25984850  0.26638891  -0.00107787  1
  V  V45  1  0.11906329  0.25365877  0.88145405  1
  V  V46  1  0.65159279  0.23984989  0.83377956  1
  V  V47  1  0.62865086  0.63967775  0.50008641  1
  V  V48  1  0.75644066  0.12263443  0.37241174  1
  V  V49  1  0.26050541  0.76375825  0.49852745  1
  V  V50  1  0.74581689  0.86478685  0.60167854  1
  V  V51  1  0.75953537  -0.01211031  0.25434408  1
  V  V52  1  0.12700128  0.10297003  -0.00151832  1
  V  V53  1  0.75929558  0.38622619  0.12754139  1
  V  V54  1  0.63726163  0.74846681  0.87149787  1
  V  V55  1  0.50134965  0.13610948  0.63684436  1
  V  V56  1  0.50011776  0.88029695  0.88573788  1
  V  V57  1  0.53881372  0.38408361  0.86529827  1
  V  V58  1  0.63105420  0.75130134  0.36648142  1
  V  V59  1  0.61495142  0.49643979  0.11134798  1
  V  V60  1  0.35736156  0.13579316  0.75100757  1
  V  V61  1  0.61433511  0.11063233  0.49357538  1
  V  V62  1  0.85716474  0.74822707  0.14182207  1
  V  V63  1  0.88818408  0.73330956  0.63200226  1
  Zn  Zn64  1  0.18833818  0.19484465  0.17320941  1
  Zn  Zn65  1  0.18284590  0.19365864  0.67650094  1
  Zn  Zn66  1  0.20199902  0.72604572  0.20778116  1
  Zn  Zn67  1  0.22957949  0.75864812  0.69409135  1
  Zn  Zn68  1  0.68547783  0.18660079  0.18833886  1
  Zn  Zn69  1  0.69029117  0.16634685  0.69446351  1
  Zn  Zn70  1  0.67583654  0.67720440  0.19613166  1
  Zn  Zn71  1  0.67620457  0.68983797  0.68354144  1
  Zn  Zn72  1  0.31197704  0.31692411  0.30330222  1
  Zn  Zn73  1  0.29474083  0.30429478  0.80901060  1
  Zn  Zn74  1  0.31489312  0.81499927  0.31679747  1
  Zn  Zn75  1  0.29971550  0.83883626  0.85167159  1
  Zn  Zn76  1  0.80665234  0.29703298  0.29967202  1
  Zn  Zn77  1  0.86575089  0.14503859  0.74395865  1
  Zn  Zn78  1  0.82148999  0.80687666  0.32392621  1
  Zn  Zn79  1  0.82099935  0.81639855  0.81013716  1
  Zn  Zn80  1  0.18699022  0.44266179  0.43541469  1
  Zn  Zn81  1  0.18833420  0.43967817  0.92941339  1
  Zn  Zn82  1  0.19517461  0.94023141  0.42050343  1
  Zn  Zn83  1  0.15481385  0.89425881  0.97243118  1
  Zn  Zn84  1  0.65934384  0.45770886  0.43069283  1
  Zn  Zn85  1  0.68937711  0.42077296  0.94882859  1
  Zn  Zn86  1  0.68050379  0.93464336  0.42526163  1
  Zn  Zn87  1  0.71316002  0.92119981  0.94511577  1
  Zn  Zn88  1  0.30837009  0.06987835  0.04780821  1
  Zn  Zn89  1  0.37480274  -0.10218456  0.52806351  1
  Zn  Zn90  1  0.33336976  0.59411468  0.02437063  1
  Zn  Zn91  1  0.30990489  0.56788565  0.54904489  1
  Zn  Zn92  1  0.80693216  0.05018162  0.06640048  1
  Zn  Zn93  1  0.79171534  0.07046320  0.57360674  1
  Zn  Zn94  1  0.81694120  0.60031872  0.06038037  1
  Zn  Zn95  1  0.80992494  0.55997309  0.55134373  1
  Zn  Zn96  1  0.45226309  0.46321454  0.21895956  1
  Zn  Zn97  1  0.43838735  0.43792116  0.69938854  1
  Zn  Zn98  1  0.44060455  0.94255117  0.19491629  1
  Zn  Zn99  1  0.43243605  0.94401515  0.69590727  1
  Zn  Zn100  1  0.93548559  0.45590219  0.19997026  1
  Zn  Zn101  1  0.95543717  0.40063411  0.65693593  1
  Zn  Zn102  1  0.92415821  0.93590747  0.19074100  1
  Zn  Zn103  1  0.92233439  0.94785467  0.66904139  1
  Zn  Zn104  1  0.09033630  0.08807278  0.27197923  1
  Zn  Zn105  1  0.05735399  0.05765083  0.83303906  1
  Zn  Zn106  1  0.02527342  0.57057073  0.37081449  1
  Zn  Zn107  1  0.06046460  0.55861402  0.81925022  1
  Zn  Zn108  1  0.55851112  0.06242566  0.30304082  1
  Zn  Zn109  1  0.58172727  0.06601090  0.81490266  1
  Zn  Zn110  1  0.55745329  0.56657845  0.31931689  1
  Zn  Zn111  1  0.52183817  0.56056526  0.79962993  1
  Zn  Zn112  1  0.43516104  0.18591289  0.43673477  1
  Zn  Zn113  1  0.45022825  0.23460730  0.91770831  1
  Zn  Zn114  1  0.43009345  0.69229874  0.44812664  1
  Zn  Zn115  1  0.43987644  0.69602908  0.94318090  1
  Zn  Zn116  1  0.96108355  0.16775697  0.39917465  1
  Zn  Zn117  1  0.93866842  0.18601286  0.93455058  1
  Zn  Zn118  1  0.92214727  0.68195879  0.44467585  1
  Zn  Zn119  1  0.96726486  0.71585162  0.98229974  1
  Zn  Zn120  1  0.05605881  0.32085577  0.05863533  1
  Zn  Zn121  1  0.07745573  0.31386886  0.55906141  1
  Zn  Zn122  1  0.04663513  0.81393875  0.09467790  1
  Zn  Zn123  1  0.07726238  0.79806701  0.59032182  1
  Zn  Zn124  1  0.55727741  0.31402537  0.05008625  1
  Zn  Zn125  1  0.55836846  0.31556620  0.56963409  1
  Zn  Zn126  1  0.56026561  0.81400041  0.06849437  1
  Zn  Zn127  1  0.54463872  0.81410042  0.55660867  1
  O  O128  1  0.11341215  0.12172576  0.11385275  1
  O  O129  1  0.15615494  0.06521937  0.62837858  1
  O  O130  1  0.15567573  0.55082345  0.18786309  1
  O  O131  1  0.13145897  0.59174469  0.64261732  1
  O  O132  1  0.62950271  0.11065208  0.12407178  1
  O  O133  1  0.61860730  0.11594032  0.61270834  1
  O  O134  1  0.61502323  0.61331194  0.11665708  1
  O  O135  1  0.61173341  0.62689371  0.61214674  1
  O  O136  1  0.38399343  0.35864919  0.38121077  1
  O  O137  1  0.35055419  0.38692833  0.86700615  1
  O  O138  1  0.37830936  0.89658723  0.37229745  1
  O  O139  1  0.39889537  0.90217779  0.86634905  1
  O  O140  1  0.86281637  0.35790802  0.37700036  1
  O  O141  1  0.83775289  0.43731985  0.88134375  1
  O  O142  1  0.88572601  0.86507723  0.39972438  1
  O  O143  1  0.88642199  0.88712397  0.86913575  1
  O  O144  1  0.25988753  0.01862605  0.35872946  1
  O  O145  1  0.34327025  0.01926569  0.95169592  1
  O  O146  1  0.25311948  0.52627121  0.38424779  1
  O  O147  1  0.24981257  0.52321495  0.86689747  1
  O  O148  1  0.73954286  0.01486552  0.36886444  1
  O  O149  1  0.77643515  -0.00250335  0.88976811  1
  O  O150  1  0.76030378  0.47885925  0.39412183  1
  O  O151  1  0.78071645  0.48275191  0.89523884  1
  O  O152  1  0.27421934  0.45798296  0.12659476  1
  O  O153  1  0.26479295  0.49504949  0.62680171  1
  O  O154  1  0.26152545  1.00302063  0.13004839  1
  O  O155  1  0.21064433  1.01796417  0.61944095  1
  O  O156  1  0.72843342  0.48701847  0.12654490  1
  O  O157  1  0.72387909  0.50249228  0.60675213  1
  O  O158  1  0.74329445  1.00162700  0.14775907  1
  O  O159  1  0.72515081  0.97896162  0.61339528  1
  O  O160  1  0.00086467  0.36910856  0.23840338  1
  O  O161  1  0.02803509  0.34759803  0.72989365  1
  O  O162  1  0.00125795  0.89489160  0.26590784  1
  O  O163  1  0.02598408  0.90562341  0.71710453  1
  O  O164  1  0.50208509  0.36167203  0.26039208  1
  O  O165  1  0.49617775  0.36866058  0.77547758  1
  O  O166  1  0.49666165  0.88494648  0.27480189  1
  O  O167  1  0.51151041  0.87021087  0.75659492  1
  O  O168  1  0.48821586  0.13980246  0.24866729  1
  O  O169  1  0.51435257  0.12345675  0.73509773  1
  O  O170  1  0.50488591  0.62170265  0.23245952  1
  O  O171  1  0.49590619  0.65416487  0.74493266  1
  O  O172  1  1.00254579  0.13880343  0.22586242  1
  O  O173  1  1.02370436  0.12388040  0.74725879  1
  O  O174  1  1.00915932  0.61636177  0.26386111  1
  O  O175  1  0.95760213  0.59922283  0.76373900  1
  O  O176  1  0.35744865  0.24344576  -0.01888131  1
  O  O177  1  0.38497900  0.24709177  0.52063252  1
  O  O178  1  0.36257005  0.73979914  0.01967251  1
  O  O179  1  0.35902682  0.75758183  0.51835227  1
  O  O180  1  0.87042145  0.24851474  0.01425640  1
  O  O181  1  0.92686808  0.23938761  0.50300643  1
  O  O182  1  0.87211724  0.70483771  0.04265334  1
  O  O183  1  0.87859799  0.75923703  0.51680100  1
  O  O184  1  0.11691487  0.25960725  0.46590576  1
  O  O185  1  0.12133677  0.26118601  0.98823696  1
  O  O186  1  0.10553868  0.62216639  0.58294583  1
  O  O187  1  0.13322845  0.77819753  1.01344329  1
  O  O188  1  0.62092231  0.24916869  0.48914826  1
  O  O189  1  0.64290106  0.24338554  1.02066860  1
  O  O190  1  0.61374408  0.74420487  0.49415935  1
  O  O191  1  0.62574612  0.74762739  0.98871923  1
  O  O192  1  0.50016247  0.25920171  0.13559523  1
  O  O193  1  0.49695173  0.24089649  0.63048532  1
  O  O194  1  0.48771343  0.74164124  0.12266890  1
  O  O195  1  0.49231051  0.75024412  0.64020994  1
  O  O196  1  0.98813254  0.25421768  0.12277540  1
  O  O197  1  1.07333330  0.21954476  0.63207783  1
  O  O198  1  0.97936255  0.74212997  0.15685474  1
  O  O199  1  0.98937728  0.73501143  0.62974590  1
  O  O200  1  0.01570625  0.25013749  0.34766514  1
  O  O201  1  0.01424890  0.24425697  0.86320801  1
  O  O202  1  -0.01362661  0.74039969  0.36055928  1
  O  O203  1  0.01328627  0.72222708  0.87926888  1
  O  O204  1  0.50794860  0.25689005  0.37051713  1
  O  O205  1  0.55296383  0.23105221  0.86122288  1
  O  O206  1  0.48364003  0.76251283  0.37384659  1
  O  O207  1  0.50289558  0.76701205  0.86795849  1
  O  O208  1  0.24345045  0.13105499  0.47848041  1
  O  O209  1  0.22483688  0.13713941  1.00577990  1
  O  O210  1  0.25010989  0.64726663  0.49041389  1
  O  O211  1  0.23610625  0.64832565  1.00129252  1
  O  O212  1  0.72612857  0.12043376  0.48699732  1
  O  O213  1  0.75661117  0.13392146  1.00818734  1
  O  O214  1  0.72708498  0.62991299  0.49975736  1
  O  O215  1  0.72208453  0.61538505  1.00166488  1
  O  O216  1  0.24785836  0.36760240  -0.00800394  1
  O  O217  1  0.24859474  0.38443989  0.51686625  1
  O  O218  1  0.26369403  0.84997820  -0.03498389  1
  O  O219  1  0.25571149  0.86905079  0.48708136  1
  O  O220  1  0.74721271  0.35941538  0.02526691  1
  O  O221  1  0.78853700  0.34228865  0.53889740  1
  O  O222  1  0.79150182  0.84595209  -0.01030887  1
  O  O223  1  0.73880931  0.87000655  0.50267309  1
  O  O224  1  0.14341466  0.49586648  0.23283611  1
  O  O225  1  0.11012756  0.48226199  0.75434726  1
  O  O226  1  0.14464394  0.99392159  0.24754863  1
  O  O227  1  0.14539460  0.99135084  0.79468556  1
  O  O228  1  0.61316721  0.48298083  0.25076742  1
  O  O229  1  0.63855396  0.53503864  0.73575174  1
  O  O230  1  0.63488884  1.00106139  0.24608948  1
  O  O231  1  0.62083879  0.98291161  0.73990512  1
  O  O232  1  0.36990710  0.01952629  0.25103383  1
  O  O233  1  0.37719987  0.02086167  0.76810061  1
  O  O234  1  0.36155241  0.48092520  0.27881329  1
  O  O235  1  0.40819816  0.51465053  0.78733230  1
  O  O236  1  0.85852774  0.00749973  0.25199790  1
  O  O237  1  0.87584303  0.01243374  0.74964890  1
  O  O238  1  0.86472636  0.49877354  0.27769916  1
  O  O239  1  0.83146013  0.49933115  0.72454960  1
  O  O240  1  0.15025155  0.36579645  0.35524183  1
  O  O241  1  0.12805148  0.36592831  0.86037093  1
  O  O242  1  0.14066995  0.87429566  0.34782505  1
  O  O243  1  0.11069244  0.85409893  0.86739406  1
  O  O244  1  0.61751100  0.36519323  0.36976398  1
  O  O245  1  0.64258640  0.36140566  0.86464690  1
  O  O246  1  0.60466853  0.85945403  0.38526914  1
  O  O247  1  0.62330100  0.87031175  0.86683577  1
  O  O248  1  0.37602956  0.12513672  0.12808271  1
  O  O249  1  0.38958237  0.13537660  0.64220850  1
  O  O250  1  0.38981896  0.61406603  0.12239033  1
  O  O251  1  0.38056118  0.62344382  0.62536100  1
  O  O252  1  0.88759265  0.12903574  0.11883498  1
  O  O253  1  0.90279032  0.19459008  0.55643403  1
  O  O254  1  0.85907194  0.61199367  0.16718507  1
  O  O255  1  0.85746288  0.63793665  0.61954117  1
  O  O256  1  0.24768023  0.25471630  0.10058681  1
  O  O257  1  0.26622375  0.25127799  0.62199045  1
  O  O258  1  0.25694963  0.76470736  0.11667167  1
  O  O259  1  0.19006172  0.76419801  0.58554614  1
  O  O260  1  0.76771243  0.24973911  0.12621808  1
  O  O261  1  0.77439769  0.28515539  0.58118321  1
  O  O262  1  0.75575101  0.73979398  0.14646407  1
  O  O263  1  0.73977150  0.76498233  0.62478715  1
  O  O264  1  0.24315900  0.24226991  0.35862068  1
  O  O265  1  0.23133454  0.24527462  0.88672155  1
  O  O266  1  0.25099965  0.74825303  0.38960767  1
  O  O267  1  0.22503678  0.74026956  0.87704631  1
  O  O268  1  0.72643181  0.23890494  0.36783172  1
  O  O269  1  0.74197134  0.25175924  0.89724101  1
  O  O270  1  0.72929056  0.75515006  0.37513463  1
  O  O271  1  0.73536192  0.75014007  0.86373534  1
  O  O272  1  0.00987283  0.12709224  0.01304466  1
  O  O273  1  0.01225349  0.08942367  0.47181499  1
  O  O274  1  0.01995753  0.61126018  0.02006583  1
  O  O275  1  -0.01154370  0.59623325  0.48302655  1
  O  O276  1  0.51836343  0.14258591  -0.00117604  1
  O  O277  1  0.51119116  0.13160466  0.51318912  1
  O  O278  1  0.51410887  0.63200257  0.01240932  1
  O  O279  1  0.49710783  0.63806787  0.52294897  1
  O  O280  1  0.50352106  0.37163225  0.48465280  1
  O  O281  1  0.49782719  0.34263863  0.95635148  1
  O  O282  1  0.48271708  0.87874667  0.48674964  1
  O  O283  1  0.50444682  0.87277221  0.98360523  1
  O  O284  1  0.98250075  0.37455991  0.54644823  1
  O  O285  1  0.98509556  0.40401232  1.00433437  1
  O  O286  1  1.00995581  0.85846354  0.51363882  1
  O  O287  1  0.97077537  0.83221185  1.00702554  1
  O  O288  1  0.48744457  0.48292490  0.36585975  1
  O  O289  1  0.54409233  0.48425194  0.87751826  1
  O  O290  1  0.48332353  1.01073746  0.37305388  1
  O  O291  1  0.51096640  0.99899894  0.87808243  1
  O  O292  1  0.97225318  0.47172851  0.38971743  1
  O  O293  1  0.99527082  0.51847222  0.90641738  1
  O  O294  1  1.05320633  1.02985175  0.43775569  1
  O  O295  1  0.97016679  1.00863063  0.88676360  1
  O  O296  1  -0.00433346  0.00790048  0.13056536  1
  O  O297  1  -0.10067953  0.01697400  0.57050099  1
  O  O298  1  0.00846523  0.50045474  0.11674133  1
  O  O299  1  -0.01778255  0.50754166  0.61603131  1
  O  O300  1  0.52079568  -0.00225353  0.13713029  1
  O  O301  1  0.50867979  0.00995860  0.62881434  1
  O  O302  1  0.50808311  0.50629052  0.12829947  1
  O  O303  1  0.50549907  0.52595677  0.65112953  1
  O  O304  1  0.24698310  0.37127023  0.22250760  1
  O  O305  1  0.23794667  0.37460087  0.73765770  1
  O  O306  1  0.26520262  0.89501759  0.24603366  1
  O  O307  1  0.23111938  0.86011041  0.75565946  1
  O  O308  1  0.72999458  0.35838154  0.23277036  1
  O  O309  1  0.79997140  0.43102326  0.72169435  1
  O  O310  1  0.75670075  0.88907738  0.27208791  1
  O  O311  1  0.73536544  0.87290310  0.74236703  1
  O  O312  1  0.26258155  0.12476368  0.24023712  1
  O  O313  1  0.25944484  0.12849271  0.74617207  1
  O  O314  1  0.24043511  0.64611048  0.27588881  1
  O  O315  1  0.26036661  0.65786561  0.74629681  1
  O  O316  1  0.74313481  0.12456490  0.26904433  1
  O  O317  1  0.79193114  0.14051892  0.66132803  1
  O  O318  1  0.73276632  0.60712249  0.26963338  1
  O  O319  1  0.69392681  0.58924254  0.74874351  1
  O  O320  1  0.36459642  0.12519809  0.36721291  1
  O  O321  1  0.40322992  0.13238672  0.85649036  1
  O  O322  1  0.38210823  0.62197737  0.37056258  1
  O  O323  1  0.35237960  0.64494427  0.87885048  1
  O  O324  1  0.85425227  0.13511901  0.38575005  1
  O  O325  1  0.87240994  0.12702188  0.85882197  1
  O  O326  1  0.86097743  0.62048386  0.37030434  1
  O  O327  1  0.89882276  0.61355042  0.80586053  1
  O  O328  1  0.11512845  0.40134824  0.10533043  1
  O  O329  1  0.14592406  0.37650617  0.63224345  1
  O  O330  1  0.11968313  0.87798184  0.15066936  1
  O  O331  1  0.09377562  0.89828725  0.66338183  1
  O  O332  1  0.61349516  0.38597063  0.12933307  1
  O  O333  1  0.60270519  0.40384840  0.62211625  1
  O  O334  1  0.63941926  0.89555056  0.09649772  1
  O  O335  1  0.62296136  0.87334356  0.63196057  1
  O  O336  1  0.11324272  0.25552649  0.23700456  1
  O  O337  1  0.13349490  0.24922829  0.76837963  1
  O  O338  1  0.10130213  0.76130274  0.24871686  1
  O  O339  1  0.10926647  0.75600661  0.74957551  1
  O  O340  1  0.60890838  0.25457268  0.25471530  1
  O  O341  1  0.66102986  0.26963903  0.73724685  1
  O  O342  1  0.61554692  0.74418994  0.26747583  1
  O  O343  1  0.61726183  0.76100833  0.76078998  1
  O  O344  1  0.38466496  0.24172503  0.24668489  1
  O  O345  1  0.37100023  0.24095525  0.74520390  1
  O  O346  1  0.36054603  0.75758713  0.22644194  1
  O  O347  1  0.38084692  0.77308025  0.76447163  1
  O  O348  1  0.88903994  0.25317049  0.23034684  1
  O  O349  1  0.92525028  0.23932127  0.71134771  1
  O  O350  1  0.87298166  0.72565136  0.25683311  1
  O  O351  1  0.86644965  0.75468640  0.72998632  1
  O  O352  1  0.37312369  0.50071394  0.47732253  1
  O  O353  1  0.38460049  0.51162941  0.96519312  1
  O  O354  1  0.36588364  1.00983751  0.48247584  1
  O  O355  1  0.48000822  1.08205425  1.01406129  1
  O  O356  1  0.87392698  0.48263294  0.49660745  1
  O  O357  1  0.89972422  0.52588791  1.01782089  1
  O  O358  1  0.88966245  0.97403055  0.49992569  1
  O  O359  1  0.88048563  0.97843688  1.01722647  1
  O  O360  1  0.13225475  0.00299622  -0.00853306  1
  O  O361  1  0.10863667  0.00006228  0.48445807  1
  O  O362  1  0.10673537  0.49422037  -0.00303734  1
  O  O363  1  0.09345696  0.47723680  0.49114602  1
  O  O364  1  0.64072152  -0.04476704  0.03343480  1
  O  O365  1  0.61451467  0.00732100  0.49911846  1
  O  O366  1  0.62176074  0.49641311  0.01060571  1
  O  O367  1  0.60489226  0.52166124  0.50575063  1
  O  O368  1  0.29388922  0.39418702  0.15940176  1
  O  O369  1  0.36929916  0.36604365  0.63680394  1
  O  O370  1  0.39152959  0.87243500  0.11784481  1
  O  O371  1  0.35954590  0.88821861  0.63701851  1
  O  O372  1  0.85873999  0.39004027  0.13655254  1
  O  O373  1  0.84811691  0.37091976  0.70069859  1
  O  O374  1  0.86937474  0.84952981  0.14004065  1
  O  O375  1  0.85905825  0.86654630  0.61108574  1
  O  O376  1  0.14084678  0.13942155  0.35728840  1
  O  O377  1  0.11654012  0.13469888  0.89710067  1
  O  O378  1  0.12650693  0.62522257  0.38539350  1
  O  O379  1  0.13775515  0.63275517  0.85356655  1
  O  O380  1  0.61348862  0.13484821  0.38531794  1
  O  O381  1  0.67003873  0.13554346  0.81450287  1
  O  O382  1  0.60469322  0.64061344  0.39014676  1
  O  O383  1  0.61252927  0.64334981  0.88416748  1
