# generated using pymatgen
data_VZnO4
_symmetry_space_group_name_H-M   'P 1'
_cell_length_a   16.96387853
_cell_length_b   16.91489802
_cell_length_c   16.94828288
_cell_angle_alpha   90.03128602
_cell_angle_beta   90.24792681
_cell_angle_gamma   90.34856634
_symmetry_Int_Tables_number   1
_chemical_formula_structural   VZnO4
_chemical_formula_sum   'V64 Zn64 O256'
_cell_volume   4863.04253591
_cell_formula_units_Z   64
loop_
 _symmetry_equiv_pos_site_id
 _symmetry_equiv_pos_as_xyz
  1  'x, y, z'
loop_
 _atom_site_type_symbol
 _atom_site_label
 _atom_site_symmetry_multiplicity
 _atom_site_fract_x
 _atom_site_fract_y
 _atom_site_fract_z
 _atom_site_occupancy
  V  V0  1  0.00494743  0.37716403  0.38291138  1
  V  V1  1  0.36833190  0.73742857  0.12795111  1
  V  V2  1  0.87524551  0.87272523  0.00517852  1
  V  V3  1  0.51284519  0.63087030  0.64079714  1
  V  V4  1  0.47773235  0.49724642  0.50100116  1
  V  V5  1  0.61257980  0.37330186  0.77066460  1
  V  V6  1  0.76220335  0.87376082  0.60516863  1
  V  V7  1  -0.00741327  0.88024209  0.87510939  1
  V  V8  1  0.37351035  0.09281360  0.72898934  1
  V  V9  1  0.24042747  0.87942712  0.11411666  1
  V  V10  1  0.87217780  0.36184478  0.50289646  1
  V  V11  1  0.11734166  0.25141269  0.85661810  1
  V  V12  1  0.86111772  0.62182192  0.25447005  1
  V  V13  1  0.63374252  0.72935130  0.37051816  1
  V  V14  1  -0.00237200  0.25768121  0.24564180  1
  V  V15  1  0.62465407  0.49026662  0.63457286  1
  V  V16  1  0.37201644  0.74309571  0.62823156  1
  V  V17  1  0.12917572  0.88338847  0.25255162  1
  V  V18  1  0.12697478  0.88157766  0.75303703  1
  V  V19  1  0.47817615  0.24943141  0.74526000  1
  V  V20  1  0.11908374  0.75041071  0.88838362  1
  V  V21  1  0.12301185  0.23451340  0.38427922  1
  V  V22  1  0.63255319  0.36955519  0.25945469  1
  V  V23  1  0.35185226  -0.00911479  0.37383037  1
  V  V24  1  0.11983709  0.60272455  0.00324149  1
  V  V25  1  0.12262677  -0.00302583  0.60916435  1
  V  V26  1  0.75205377  0.00419957  0.24801747  1
  V  V27  1  0.75532803  0.87385647  0.12680595  1
  V  V28  1  0.25876711  0.11843395  0.87701567  1
  V  V29  1  0.37024952  0.38297376  -0.00034332  1
  V  V30  1  0.37850334  0.86164966  0.50296794  1
  V  V31  1  0.50732315  0.00934876  0.49883292  1
  V  V32  1  -0.00205183  0.00050904  -0.00172395  1
  V  V33  1  0.60302349  0.63085606  -0.01926317  1
  V  V34  1  0.87591032  0.62433357  0.74252232  1
  V  V35  1  0.49353819  0.72676875  0.24597994  1
  V  V36  1  -0.01513919  0.12182567  0.12099745  1
  V  V37  1  0.24050482  0.62838113  0.87514245  1
  V  V38  1  0.62086902  0.51229044  0.12604984  1
  V  V39  1  -0.00639854  0.61965773  0.12051384  1
  V  V40  1  0.23755379  0.49301686  0.75223771  1
  V  V41  1  0.77222752  0.24785610  0.00181456  1
  V  V42  1  0.88224936  0.12389812  0.27717251  1
  V  V43  1  0.12024737  0.50655996  0.61794529  1
  V  V44  1  0.12577197  0.13412921  0.00568287  1
  V  V45  1  0.25393518  0.23398572  0.50328989  1
  V  V46  1  0.74954077  0.75363404  0.00423846  1
  V  V47  1  -0.00363577  0.50806668  0.50309180  1
  V  V48  1  0.76313966  0.63243368  0.88416536  1
  V  V49  1  0.39355295  0.87360023  -0.00233203  1
  V  V50  1  0.50203184  0.87258711  0.37128032  1
  V  V51  1  -0.00368048  0.74736895  0.73969416  1
  V  V52  1  0.37166188  0.62589055  0.75810073  1
  V  V53  1  0.62379675  0.00060154  0.62729379  1
  V  V54  1  0.00280291  0.75518110  0.25669918  1
  V  V55  1  0.72609199  0.12935939  0.38574391  1
  V  V56  1  0.61755315  0.24080416  0.88653846  1
  V  V57  1  0.62476250  0.87932222  0.24507796  1
  V  V58  1  0.72383528  0.25419248  0.50457905  1
  V  V59  1  0.75706582  0.48518628  0.76635978  1
  V  V60  1  0.77017114  0.12219953  0.86590286  1
  V  V61  1  0.25978282  0.37769517  0.60959824  1
  V  V62  1  0.25279303  0.87073117  0.63351873  1
  V  V63  1  -0.03211927  0.17135988  0.64038230  1
  Zn  Zn64  1  0.15973542  0.23983815  0.16158751  1
  Zn  Zn65  1  0.19774758  0.18056688  0.68619573  1
  Zn  Zn66  1  0.17779546  0.69673658  0.18172187  1
  Zn  Zn67  1  0.18326450  0.68883057  0.68589600  1
  Zn  Zn68  1  0.71873506  0.22695213  0.21401143  1
  Zn  Zn69  1  0.67647324  0.19180279  0.68939273  1
  Zn  Zn70  1  0.67391854  0.68367798  0.17802550  1
  Zn  Zn71  1  0.69671222  0.69459568  0.69522362  1
  Zn  Zn72  1  0.30662081  0.17477217  0.32287488  1
  Zn  Zn73  1  0.28973320  0.30463001  0.81483620  1
  Zn  Zn74  1  0.30793411  0.80770204  0.31006376  1
  Zn  Zn75  1  0.30783233  0.81143903  0.81773692  1
  Zn  Zn76  1  0.81471787  0.31819093  0.32537254  1
  Zn  Zn77  1  0.79219350  0.27697748  0.78714515  1
  Zn  Zn78  1  0.81628355  0.79973121  0.30730831  1
  Zn  Zn79  1  0.81776112  0.81169914  0.81255218  1
  Zn  Zn80  1  0.18229262  0.43655930  0.43539203  1
  Zn  Zn81  1  0.18352708  0.43380488  0.93466090  1
  Zn  Zn82  1  0.17469050  0.89337615  0.44989002  1
  Zn  Zn83  1  0.17990967  0.94075707  0.94085263  1
  Zn  Zn84  1  0.68036001  0.43396129  0.45224368  1
  Zn  Zn85  1  0.70087199  0.45051127  0.96033352  1
  Zn  Zn86  1  0.69418128  0.94055387  0.43030990  1
  Zn  Zn87  1  0.70143060  0.95283851  0.78221148  1
  Zn  Zn88  1  0.30224999  0.04308775  0.04568847  1
  Zn  Zn89  1  0.30631912  0.04492453  0.54952792  1
  Zn  Zn90  1  0.30904926  0.56702683  0.05929760  1
  Zn  Zn91  1  0.30621190  0.56845670  0.56116783  1
  Zn  Zn92  1  0.80750847  0.06211903  0.05632929  1
  Zn  Zn93  1  0.78309950  0.09035887  0.59523983  1
  Zn  Zn94  1  0.80844269  0.55311930  0.07958797  1
  Zn  Zn95  1  0.83200497  0.51386309  0.59548212  1
  Zn  Zn96  1  0.46157688  0.42397414  0.18194027  1
  Zn  Zn97  1  0.43942787  0.45137195  0.71680907  1
  Zn  Zn98  1  0.41901855  0.92661995  0.19365075  1
  Zn  Zn99  1  0.44920817  0.92905030  0.68265749  1
  Zn  Zn100  1  0.95260723  0.45768928  0.21015875  1
  Zn  Zn101  1  0.95400614  0.37984969  0.67157848  1
  Zn  Zn102  1  0.93743316  0.94154921  0.19227400  1
  Zn  Zn103  1  0.93758999  0.93330915  0.67134998  1
  Zn  Zn104  1  0.07830659  0.06509398  0.29860445  1
  Zn  Zn105  1  0.05758708  0.07175733  0.80820190  1
  Zn  Zn106  1  0.06558650  0.56448521  0.30445255  1
  Zn  Zn107  1  0.06363243  0.56506098  0.80589822  1
  Zn  Zn108  1  0.56208270  0.05375326  0.31559471  1
  Zn  Zn109  1  0.56101358  0.07736013  0.80101317  1
  Zn  Zn110  1  0.57760164  0.52431019  0.31849955  1
  Zn  Zn111  1  0.57463939  0.54500427  0.84621108  1
  Zn  Zn112  1  0.42582974  0.17827646  0.44642466  1
  Zn  Zn113  1  0.43550324  0.20023165  0.94154687  1
  Zn  Zn114  1  0.49125692  0.70159606  0.46769207  1
  Zn  Zn115  1  0.41834160  0.71688294  0.92436199  1
  Zn  Zn116  1  0.95241529  0.18613499  0.45607796  1
  Zn  Zn117  1  0.94121794  0.19524423  0.92998873  1
  Zn  Zn118  1  0.95129178  0.66528897  0.41519827  1
  Zn  Zn119  1  0.93754743  0.68872516  0.94066455  1
  Zn  Zn120  1  0.06377088  0.32884549  0.04788010  1
  Zn  Zn121  1  0.07828908  0.31375493  0.57046232  1
  Zn  Zn122  1  0.05553033  0.80803138  0.07048550  1
  Zn  Zn123  1  0.06481407  0.79892651  0.56207231  1
  Zn  Zn124  1  0.65356177  0.31652443  0.07708960  1
  Zn  Zn125  1  0.54870947  0.31704243  0.57252255  1
  Zn  Zn126  1  0.56448527  0.80554601  0.06567787  1
  Zn  Zn127  1  0.60754897  0.83058649  0.53821729  1
  O  O128  1  0.10645358  0.14129349  0.11188197  1
  O  O129  1  0.14723707  0.09218150  0.63548251  1
  O  O130  1  0.12714139  0.62637489  0.10309161  1
  O  O131  1  0.12881071  0.60857756  0.62124636  1
  O  O132  1  0.59442118  0.13145966  0.17344253  1
  O  O133  1  0.63753857  0.10378365  0.62922618  1
  O  O134  1  0.62182548  0.62399799  0.08877013  1
  O  O135  1  0.61549603  0.62190764  0.65677111  1
  O  O136  1  0.40864723  0.31562893  0.24097401  1
  O  O137  1  0.34265650  0.37851925  0.89648544  1
  O  O138  1  0.38336802  0.87093179  0.38355714  1
  O  O139  1  0.38479797  0.82899816  0.89785703  1
  O  O140  1  0.89005577  0.37234526  0.39004878  1
  O  O141  1  0.91641475  0.36832465  0.84100997  1
  O  O142  1  0.86963326  0.86880569  0.39166690  1
  O  O143  1  0.88636900  0.87034532  0.88814056  1
  O  O144  1  0.25677867  -0.03028392  0.38943011  1
  O  O145  1  0.23973005  0.01798046  0.88256484  1
  O  O146  1  0.28140106  0.40627963  0.33510330  1
  O  O147  1  0.23054244  0.51125285  0.85865580  1
  O  O148  1  0.74707378  0.02065392  0.36803915  1
  O  O149  1  0.74443485  0.02470597  0.85761746  1
  O  O150  1  0.74452029  0.57307670  0.44483413  1
  O  O151  1  0.74795257  0.51363222  0.87116663  1
  O  O152  1  0.29425634  0.49564838  0.16620738  1
  O  O153  1  0.23856528  0.49780881  0.62776116  1
  O  O154  1  0.25184039  0.97913107  0.12642446  1
  O  O155  1  0.24891351  0.97466273  0.62309085  1
  O  O156  1  0.71475388  0.49442669  0.07041060  1
  O  O157  1  0.73356696  0.50844078  0.65711885  1
  O  O158  1  0.75338079  0.99568522  0.13866646  1
  O  O159  1  0.73607163  0.98947905  0.61625406  1
  O  O160  1  -0.01217084  0.36486677  0.26461578  1
  O  O161  1  -0.00469450  0.41917238  0.81991312  1
  O  O162  1  0.00565069  0.86172611  0.23592813  1
  O  O163  1  0.00326705  0.86252822  0.75774114  1
  O  O164  1  0.53495433  0.42169328  0.26644100  1
  O  O165  1  0.50701382  0.36051846  0.75501474  1
  O  O166  1  0.50876727  0.88328595  0.25700456  1
  O  O167  1  0.50584426  0.87820703  0.78272601  1
  O  O168  1  0.53474750  0.12283711  0.21709590  1
  O  O169  1  0.47043530  0.13434014  0.75870965  1
  O  O170  1  0.49277693  0.63068417  0.25176905  1
  O  O171  1  0.47545084  0.62113417  0.74797018  1
  O  O172  1  0.99068945  0.12655442  0.24218028  1
  O  O173  1  1.00549573  0.12137604  0.72033685  1
  O  O174  1  0.99272687  0.63116431  0.24684444  1
  O  O175  1  0.98770103  0.63523247  0.75612677  1
  O  O176  1  0.36053551  0.27835804  0.00021365  1
  O  O177  1  0.35285441  0.25122878  0.48984530  1
  O  O178  1  0.37844276  0.75591271  0.02508834  1
  O  O179  1  0.39699643  0.75254452  0.51585937  1
  O  O180  1  0.87145464  0.25433880  0.00022900  1
  O  O181  1  0.87617803  0.26112373  0.50669390  1
  O  O182  1  0.87086217  0.76412141  0.00370622  1
  O  O183  1  0.90700437  0.82288238  0.44814936  1
  O  O184  1  0.13413204  0.25427868  0.48977537  1
  O  O185  1  0.10906933  0.23464196  0.98793231  1
  O  O186  1  0.13433485  0.79145633  0.48282142  1
  O  O187  1  0.11521958  0.74596213  0.98916863  1
  O  O188  1  0.62676036  0.27516555  0.49506226  1
  O  O189  1  0.61199373  0.25067292  0.98579121  1
  O  O190  1  0.60441844  0.73871370  0.47426604  1
  O  O191  1  0.64162000  0.74611520  0.99907111  1
  O  O192  1  0.50541053  0.24639663  0.10421985  1
  O  O193  1  0.50105133  0.24583205  0.64659371  1
  O  O194  1  0.49159482  0.75011021  0.14066879  1
  O  O195  1  0.49312676  0.73127496  0.63575691  1
  O  O196  1  0.99546153  0.24724215  0.14415252  1
  O  O197  1  0.99671961  0.27723741  0.64345487  1
  O  O198  1  1.00758299  0.72729782  0.13624322  1
  O  O199  1  0.99963372  0.75487368  0.64024369  1
  O  O200  1  0.00611079  0.25765902  0.37727674  1
  O  O201  1  0.01570501  0.23918821  0.86061191  1
  O  O202  1  0.00443554  0.74484724  0.35847188  1
  O  O203  1  0.00357988  0.75947157  0.87063876  1
  O  O204  1  0.43856937  0.29811236  0.30916740  1
  O  O205  1  0.50956720  0.24072183  0.86371926  1
  O  O206  1  0.50234306  0.75559331  0.35896160  1
  O  O207  1  0.50904639  0.80438492  0.79187693  1
  O  O208  1  0.24763412  0.13543697  0.51155379  1
  O  O209  1  0.23019629  0.12235096  1.00330427  1
  O  O210  1  0.24630112  0.63966387  0.47894846  1
  O  O211  1  0.23352319  0.61199564  0.98665476  1
  O  O212  1  0.74053483  0.13674922  0.49281603  1
  O  O213  1  0.75996027  0.13311808  0.98043607  1
  O  O214  1  0.76617367  0.60738636  0.50624459  1
  O  O215  1  0.76080039  0.63465080  0.99208478  1
  O  O216  1  0.26415045  0.39708603  0.01513346  1
  O  O217  1  0.25522599  0.38072310  0.50602919  1
  O  O218  1  0.24186586  0.87088146  0.01065754  1
  O  O219  1  0.27576430  0.86620480  0.51302090  1
  O  O220  1  0.73968443  0.34917820  0.00029683  1
  O  O221  1  0.76239740  0.36092135  0.48527154  1
  O  O222  1  0.75966521  0.87002193  0.01063671  1
  O  O223  1  0.72812079  0.86434416  0.50619257  1
  O  O224  1  0.17719235  0.58807341  0.24317740  1
  O  O225  1  0.12972292  0.50413861  0.73512373  1
  O  O226  1  0.11416327  0.98438749  0.23542737  1
  O  O227  1  0.11798878  0.98153611  0.75272491  1
  O  O228  1  0.64070951  0.54316558  0.21914257  1
  O  O229  1  0.63393576  0.48521109  0.76079787  1
  O  O230  1  0.63923381  0.99039134  0.25578857  1
  O  O231  1  0.60716638  0.99612445  0.73722925  1
  O  O232  1  0.36865022  -0.01258275  0.27428452  1
  O  O233  1  0.38528545  -0.00446369  0.74995284  1
  O  O234  1  0.35645805  0.49212113  0.20810462  1
  O  O235  1  0.34687224  0.51940994  0.74359723  1
  O  O236  1  0.86794522  0.01576274  0.25312606  1
  O  O237  1  0.85393658  -0.03924705  0.74464626  1
  O  O238  1  0.86546793  0.51828713  0.23763357  1
  O  O239  1  0.85849761  0.50920006  0.75420903  1
  O  O240  1  0.10927806  0.36267763  0.37814944  1
  O  O241  1  0.13301654  0.34981481  0.88349576  1
  O  O242  1  0.11846339  0.88155414  0.35078664  1
  O  O243  1  0.11567075  0.86740860  0.87135742  1
  O  O244  1  0.66057032  0.42886517  0.34559680  1
  O  O245  1  0.62578539  0.36452184  0.87158303  1
  O  O246  1  0.61826703  0.86799995  0.36230946  1
  O  O247  1  0.66863822  0.83336783  0.81558057  1
  O  O248  1  0.39705580  0.08010288  0.11944039  1
  O  O249  1  0.36808219  0.10356013  0.63085604  1
  O  O250  1  0.36534478  0.63737079  0.12562768  1
  O  O251  1  0.37088926  0.63095125  0.63688155  1
  O  O252  1  0.88408804  0.12884873  0.12797485  1
  O  O253  1  0.86843875  0.14985634  0.63501784  1
  O  O254  1  0.89033425  0.61913719  0.12120046  1
  O  O255  1  0.86903492  0.61653789  0.64396714  1
  O  O256  1  0.27162162  0.20775318  0.17141119  1
  O  O257  1  0.24342005  0.26454120  0.61087965  1
  O  O258  1  0.26361775  0.75715646  0.13716102  1
  O  O259  1  0.26049695  0.75511814  0.62706636  1
  O  O260  1  0.73260526  0.22885060  0.10006453  1
  O  O261  1  0.73504804  0.24821910  0.60411861  1
  O  O262  1  0.74603388  0.76399765  0.11801413  1
  O  O263  1  0.74697807  0.77897212  0.64298403  1
  O  O264  1  0.23159848  0.23812730  0.38182796  1
  O  O265  1  0.23476209  0.22707637  0.87693907  1
  O  O266  1  0.24842463  0.72338100  0.37600558  1
  O  O267  1  0.22985829  0.73721553  0.86945930  1
  O  O268  1  0.75446832  0.23371365  0.38773216  1
  O  O269  1  0.74030443  0.24447319  0.89067077  1
  O  O270  1  0.73142901  0.74904466  0.36593356  1
  O  O271  1  0.76430816  0.74130590  0.88809685  1
  O  O272  1  -0.00448271  0.12073533  0.00871102  1
  O  O273  1  0.00438946  0.14487353  0.54854677  1
  O  O274  1  0.00728814  0.62257298  0.00891933  1
  O  O275  1  -0.00504585  0.60888309  0.50025029  1
  O  O276  1  0.47858152  0.19260045  0.06026935  1
  O  O277  1  0.49991486  0.10929431  0.49347685  1
  O  O278  1  0.50992483  0.66009562  -0.03910710  1
  O  O279  1  0.49999394  0.60920190  0.53539185  1
  O  O280  1  0.49641354  0.39828073  0.51654358  1
  O  O281  1  0.46724753  0.38417336  0.97033561  1
  O  O282  1  0.50052765  0.87579377  0.48477527  1
  O  O283  1  0.49343141  0.87551984  1.01047913  1
  O  O284  1  0.99359121  0.37495216  0.49325581  1
  O  O285  1  0.97834036  0.38287419  0.99649287  1
  O  O286  1  0.96261972  0.85891269  0.48628656  1
  O  O287  1  0.99573400  0.88081936  0.99756849  1
  O  O288  1  0.50579069  0.51788432  0.40747164  1
  O  O289  1  0.47993681  0.49308113  0.82287486  1
  O  O290  1  0.49695856  0.99022040  0.38399339  1
  O  O291  1  0.50879789  1.02273784  0.90427457  1
  O  O292  1  1.01143894  0.48718765  0.38493439  1
  O  O293  1  1.00441575  0.47995169  0.86584638  1
  O  O294  1  1.00408555  0.98682865  0.38513269  1
  O  O295  1  1.00329693  0.98789112  0.88116696  1
  O  O296  1  -0.00559593  0.01690315  0.11931258  1
  O  O297  1  0.02168222  -0.01773380  0.61777808  1
  O  O298  1  0.01898117  0.52123598  0.14519789  1
  O  O299  1  0.00956779  0.48316689  0.61633356  1
  O  O300  1  0.45292292  0.02966932  0.12567158  1
  O  O301  1  0.50968561  -0.00914761  0.60760279  1
  O  O302  1  0.52086441  0.49871139  0.11439424  1
  O  O303  1  0.51317098  0.50842059  0.63949309  1
  O  O304  1  0.24515868  0.38289349  0.27567196  1
  O  O305  1  0.24818026  0.39213645  0.75068843  1
  O  O306  1  0.23577370  0.86762564  0.24285466  1
  O  O307  1  0.23841943  0.86462021  0.74674217  1
  O  O308  1  0.74315063  0.33781421  0.24278677  1
  O  O309  1  0.74334448  0.38232398  0.76537321  1
  O  O310  1  0.74874585  0.88354345  0.24659359  1
  O  O311  1  0.79321453  0.89893987  0.73503092  1
  O  O312  1  0.27955061  0.14238385  0.21506224  1
  O  O313  1  0.27689455  0.12538696  0.76399557  1
  O  O314  1  0.22149627  0.56394159  0.30706736  1
  O  O315  1  0.24670550  0.62121868  0.75887456  1
  O  O316  1  0.76556332  0.12854785  0.26718971  1
  O  O317  1  0.76151860  0.16755853  0.76417652  1
  O  O318  1  0.76691742  0.64212125  0.22756870  1
  O  O319  1  0.76375222  0.63049853  0.76574933  1
  O  O320  1  0.35633484  0.09609525  0.39084403  1
  O  O321  1  0.35692962  0.12763313  0.90467795  1
  O  O322  1  0.29016785  0.67271660  0.42190427  1
  O  O323  1  0.35732519  0.63641168  0.86490113  1
  O  O324  1  0.89184997  0.12115126  0.37612580  1
  O  O325  1  0.87060013  0.12739890  0.86845912  1
  O  O326  1  0.86450122  0.62800463  0.35650783  1
  O  O327  1  0.86867065  0.62328300  0.87122332  1
  O  O328  1  0.14364890  0.34118397  0.12071967  1
  O  O329  1  0.14454715  0.39089945  0.62384477  1
  O  O330  1  0.13586223  0.86470108  0.12907429  1
  O  O331  1  0.13524259  0.87484695  0.63649783  1
  O  O332  1  0.62757783  0.39473112  0.15036753  1
  O  O333  1  0.62016807  0.38656959  0.64867479  1
  O  O334  1  0.63536292  0.87042721  0.13858741  1
  O  O335  1  0.63263633  0.88978082  0.63023336  1
  O  O336  1  0.10360441  0.24279905  0.26660031  1
  O  O337  1  0.13812396  0.24523584  0.75668797  1
  O  O338  1  0.11194990  0.75811614  0.24879519  1
  O  O339  1  0.10878557  0.75090801  0.75845379  1
  O  O340  1  0.60600242  0.27403436  0.26643783  1
  O  O341  1  0.62040389  0.26351598  0.76036491  1
  O  O342  1  0.61018411  0.75346445  0.25276952  1
  O  O343  1  0.63464111  0.77713870  0.77674001  1
  O  O344  1  0.42060504  0.21754752  0.33099134  1
  O  O345  1  0.37998262  0.26313163  0.75544943  1
  O  O346  1  0.38719354  0.75528142  0.24270282  1
  O  O347  1  0.36548552  0.73623839  0.74241592  1
  O  O348  1  0.88919339  0.23360958  0.26494232  1
  O  O349  1  0.89955135  0.32878955  0.77353481  1
  O  O350  1  0.89158103  0.74089576  0.24522611  1
  O  O351  1  0.88670053  0.73876355  0.75316177  1
  O  O352  1  0.37743659  0.50715333  0.49940897  1
  O  O353  1  0.37213995  0.48895118  1.00164907  1
  O  O354  1  0.39006737  0.98184867  0.49437186  1
  O  O355  1  0.36810860  0.97017792  0.98726346  1
  O  O356  1  0.89247314  0.48976798  0.49784829  1
  O  O357  1  0.87822863  0.46815301  1.01309009  1
  O  O358  1  0.97682594  1.01402841  0.44691007  1
  O  O359  1  0.88654486  0.98814433  1.00437217  1
  O  O360  1  0.10528009  0.01512957  -0.00083638  1
  O  O361  1  0.13794443  -0.01305331  0.51070003  1
  O  O362  1  0.11682075  0.50350007  -0.00258704  1
  O  O363  1  0.11165971  0.49543917  0.50884574  1
  O  O364  1  0.50349650  0.06827368  -0.03719948  1
  O  O365  1  0.61234463  -0.00454293  0.50296258  1
  O  O366  1  0.60124489  0.52622652  -0.03430137  1
  O  O367  1  0.63296408  0.49465267  0.53386465  1
  O  O368  1  0.38958606  0.37584561  0.10123530  1
  O  O369  1  0.35489573  0.39140242  0.63868426  1
  O  O370  1  0.36348893  0.86833528  0.11351711  1
  O  O371  1  0.37634942  0.86081712  0.62558504  1
  O  O372  1  0.92412070  0.41616699  0.04850457  1
  O  O373  1  0.86224296  0.39343900  0.60430026  1
  O  O374  1  0.86485044  0.88173876  0.12061749  1
  O  O375  1  0.86116273  0.88710342  0.59602927  1
  O  O376  1  0.10538820  0.13456975  0.38196855  1
  O  O377  1  0.12747351  0.12912781  0.88321428  1
  O  O378  1  0.16766605  0.53715638  0.36451764  1
  O  O379  1  0.12018420  0.62984968  0.88599322  1
  O  O380  1  0.62812519  0.13155937  0.37128191  1
  O  O381  1  0.63276344  0.13957970  0.86511265  1
  O  O382  1  0.62188584  0.63165991  0.35817085  1
  O  O383  1  0.64765658  0.63646240  0.87725687  1
