# generated using pymatgen
data_Na2MnFe(PO4)2
_symmetry_space_group_name_H-M   'P 1'
_cell_length_a   20.81260000
_cell_length_b   18.65610000
_cell_length_c   19.78760000
_cell_angle_alpha   90.00000000
_cell_angle_beta   90.00000000
_cell_angle_gamma   90.00000000
_symmetry_Int_Tables_number   1
_chemical_formula_structural   Na2MnFe(PO4)2
_chemical_formula_sum   'Na96 Mn48 Fe48 P96 O384'
_cell_volume   7683.16785169
_cell_formula_units_Z   48
loop_
 _symmetry_equiv_pos_site_id
 _symmetry_equiv_pos_as_xyz
  1  'x, y, z'
loop_
 _atom_site_type_symbol
 _atom_site_label
 _atom_site_symmetry_multiplicity
 _atom_site_fract_x
 _atom_site_fract_y
 _atom_site_fract_z
 _atom_site_occupancy
  Na  Na1  1  0.00000000  0.00000000  0.00000000  1.0
  Na  Na1  1  0.00000000  0.00000000  0.25000000  1.0
  Na  Na1  1  0.00000000  0.00000000  0.50000000  1.0
  Na  Na1  1  0.00000000  0.00000000  0.75000000  1.0
  Na  Na1  1  0.00000000  0.33333333  0.00000000  1.0
  Na  Na1  1  0.00000000  0.33333333  0.25000000  1.0
  Na  Na1  1  0.00000000  0.33333333  0.50000000  1.0
  Na  Na1  1  0.00000000  0.33333333  0.75000000  1.0
  Na  Na1  1  0.00000000  0.66666667  0.00000000  1.0
  Na  Na1  1  0.00000000  0.66666667  0.25000000  1.0
  Na  Na1  1  0.00000000  0.66666667  0.50000000  1.0
  Na  Na1  1  0.00000000  0.66666667  0.75000000  1.0
  Na  Na1  1  0.50000000  0.00000000  0.00000000  1.0
  Na  Na1  1  0.50000000  0.00000000  0.25000000  1.0
  Na  Na1  1  0.50000000  0.00000000  0.50000000  1.0
  Na  Na1  1  0.50000000  0.00000000  0.75000000  1.0
  Na  Na1  1  0.50000000  0.33333333  0.00000000  1.0
  Na  Na1  1  0.50000000  0.33333333  0.25000000  1.0
  Na  Na1  1  0.50000000  0.33333333  0.50000000  1.0
  Na  Na1  1  0.50000000  0.33333333  0.75000000  1.0
  Na  Na1  1  0.50000000  0.66666667  0.00000000  1.0
  Na  Na1  1  0.50000000  0.66666667  0.25000000  1.0
  Na  Na1  1  0.50000000  0.66666667  0.50000000  1.0
  Na  Na1  1  0.50000000  0.66666667  0.75000000  1.0
  Na  Na1  1  0.25000000  0.00000000  0.12500000  1.0
  Na  Na1  1  0.25000000  0.00000000  0.37500000  1.0
  Na  Na1  1  0.25000000  0.00000000  0.62500000  1.0
  Na  Na1  1  0.25000000  0.00000000  0.87500000  1.0
  Na  Na1  1  0.25000000  0.33333333  0.12500000  1.0
  Na  Na1  1  0.25000000  0.33333333  0.37500000  1.0
  Na  Na1  1  0.25000000  0.33333333  0.62500000  1.0
  Na  Na1  1  0.25000000  0.33333333  0.87500000  1.0
  Na  Na1  1  0.25000000  0.66666667  0.12500000  1.0
  Na  Na1  1  0.25000000  0.66666667  0.37500000  1.0
  Na  Na1  1  0.25000000  0.66666667  0.62500000  1.0
  Na  Na1  1  0.25000000  0.66666667  0.87500000  1.0
  Na  Na1  1  0.75000000  0.00000000  0.12500000  1.0
  Na  Na1  1  0.75000000  0.00000000  0.37500000  1.0
  Na  Na1  1  0.75000000  0.00000000  0.62500000  1.0
  Na  Na1  1  0.75000000  0.00000000  0.87500000  1.0
  Na  Na1  1  0.75000000  0.33333333  0.12500000  1.0
  Na  Na1  1  0.75000000  0.33333333  0.37500000  1.0
  Na  Na1  1  0.75000000  0.33333333  0.62500000  1.0
  Na  Na1  1  0.75000000  0.33333333  0.87500000  1.0
  Na  Na1  1  0.75000000  0.66666667  0.12500000  1.0
  Na  Na1  1  0.75000000  0.66666667  0.37500000  1.0
  Na  Na1  1  0.75000000  0.66666667  0.62500000  1.0
  Na  Na1  1  0.75000000  0.66666667  0.87500000  1.0
  Na  Na1  1  0.00000000  0.16666667  0.00000000  1.0
  Na  Na1  1  0.00000000  0.16666667  0.25000000  1.0
  Na  Na1  1  0.00000000  0.16666667  0.50000000  1.0
  Na  Na1  1  0.00000000  0.16666667  0.75000000  1.0
  Na  Na1  1  0.00000000  0.50000000  0.00000000  1.0
  Na  Na1  1  0.00000000  0.50000000  0.25000000  1.0
  Na  Na1  1  0.00000000  0.50000000  0.50000000  1.0
  Na  Na1  1  0.00000000  0.50000000  0.75000000  1.0
  Na  Na1  1  0.00000000  0.83333333  0.00000000  1.0
  Na  Na1  1  0.00000000  0.83333333  0.25000000  1.0
  Na  Na1  1  0.00000000  0.83333333  0.50000000  1.0
  Na  Na1  1  0.00000000  0.83333333  0.75000000  1.0
  Na  Na1  1  0.50000000  0.16666667  0.00000000  1.0
  Na  Na1  1  0.50000000  0.16666667  0.25000000  1.0
  Na  Na1  1  0.50000000  0.16666667  0.50000000  1.0
  Na  Na1  1  0.50000000  0.16666667  0.75000000  1.0
  Na  Na1  1  0.50000000  0.50000000  0.00000000  1.0
  Na  Na1  1  0.50000000  0.50000000  0.25000000  1.0
  Na  Na1  1  0.50000000  0.50000000  0.50000000  1.0
  Na  Na1  1  0.50000000  0.50000000  0.75000000  1.0
  Na  Na1  1  0.50000000  0.83333333  0.00000000  1.0
  Na  Na1  1  0.50000000  0.83333333  0.25000000  1.0
  Na  Na1  1  0.50000000  0.83333333  0.50000000  1.0
  Na  Na1  1  0.50000000  0.83333333  0.75000000  1.0
  Na  Na1  1  0.25000000  0.16666667  0.12500000  1.0
  Na  Na1  1  0.25000000  0.16666667  0.37500000  1.0
  Na  Na1  1  0.25000000  0.16666667  0.62500000  1.0
  Na  Na1  1  0.25000000  0.16666667  0.87500000  1.0
  Na  Na1  1  0.25000000  0.50000000  0.12500000  1.0
  Na  Na1  1  0.25000000  0.50000000  0.37500000  1.0
  Na  Na1  1  0.25000000  0.50000000  0.62500000  1.0
  Na  Na1  1  0.25000000  0.50000000  0.87500000  1.0
  Na  Na1  1  0.25000000  0.83333333  0.12500000  1.0
  Na  Na1  1  0.25000000  0.83333333  0.37500000  1.0
  Na  Na1  1  0.25000000  0.83333333  0.62500000  1.0
  Na  Na1  1  0.25000000  0.83333333  0.87500000  1.0
  Na  Na1  1  0.75000000  0.16666667  0.12500000  1.0
  Na  Na1  1  0.75000000  0.16666667  0.37500000  1.0
  Na  Na1  1  0.75000000  0.16666667  0.62500000  1.0
  Na  Na1  1  0.75000000  0.16666667  0.87500000  1.0
  Na  Na1  1  0.75000000  0.50000000  0.12500000  1.0
  Na  Na1  1  0.75000000  0.50000000  0.37500000  1.0
  Na  Na1  1  0.75000000  0.50000000  0.62500000  1.0
  Na  Na1  1  0.75000000  0.50000000  0.87500000  1.0
  Na  Na1  1  0.75000000  0.83333333  0.12500000  1.0
  Na  Na1  1  0.75000000  0.83333333  0.37500000  1.0
  Na  Na1  1  0.75000000  0.83333333  0.62500000  1.0
  Na  Na1  1  0.75000000  0.83333333  0.87500000  1.0
  Mn  Fe1  1  0.85650000  0.75000000  0.00342500  1.0
  Mn  Fe1  1  0.64350000  0.91666667  0.99657500  1.0
  Mn  Fe1  1  0.39350000  0.58333333  0.62842500  1.0
  Mn  Fe1  1  0.85650000  0.08333333  0.25342500  1.0
  Mn  Fe1  1  0.35650000  0.08333333  0.00342500  1.0
  Mn  Fe1  1  0.60650000  0.41666667  0.62157500  1.0
  Mn  Fe1  1  0.14350000  0.91666667  0.74657500  1.0
  Mn  Fe1  1  0.35650000  0.08333333  0.50342500  1.0
  Mn  Fe1  1  0.14350000  0.25000000  0.24657500  1.0
  Mn  Fe1  1  0.10650000  0.08333333  0.62157500  1.0
  Mn  Fe1  1  0.10650000  0.75000000  0.37157500  1.0
  Mn  Fe1  1  0.85650000  0.08333333  0.75342500  1.0
  Mn  Fe1  1  0.39350000  0.58333333  0.87842500  1.0
  Mn  Fe1  1  0.35650000  0.75000000  0.25342500  1.0
  Mn  Fe1  1  0.14350000  0.58333333  0.24657500  1.0
  Mn  Fe1  1  0.89350000  0.91666667  0.62842500  1.0
  Mn  Fe1  1  0.10650000  0.75000000  0.87157500  1.0
  Mn  Fe1  1  0.10650000  0.08333333  0.37157500  1.0
  Mn  Fe1  1  0.39350000  0.91666667  0.87842500  1.0
  Mn  Fe1  1  0.10650000  0.08333333  0.12157500  1.0
  Mn  Fe1  1  0.64350000  0.58333333  0.24657500  1.0
  Mn  Fe1  1  0.89350000  0.91666667  0.87842500  1.0
  Mn  Fe1  1  0.64350000  0.25000000  0.24657500  1.0
  Mn  Fe1  1  0.14350000  0.25000000  0.49657500  1.0
  Mn  Fe1  1  0.35650000  0.75000000  0.75342500  1.0
  Mn  Fe1  1  0.64350000  0.91666667  0.74657500  1.0
  Mn  Fe1  1  0.35650000  0.75000000  0.00342500  1.0
  Mn  Fe1  1  0.64350000  0.58333333  0.99657500  1.0
  Mn  Fe1  1  0.10650000  0.41666667  0.12157500  1.0
  Mn  Fe1  1  0.14350000  0.58333333  0.49657500  1.0
  Mn  Fe1  1  0.60650000  0.75000000  0.62157500  1.0
  Mn  Fe1  1  0.39350000  0.58333333  0.37842500  1.0
  Mn  Fe1  1  0.60650000  0.08333333  0.87157500  1.0
  Mn  Fe1  1  0.39350000  0.91666667  0.62842500  1.0
  Mn  Fe1  1  0.60650000  0.08333333  0.12157500  1.0
  Mn  Fe1  1  0.89350000  0.25000000  0.87842500  1.0
  Mn  Fe1  1  0.89350000  0.58333333  0.87842500  1.0
  Mn  Fe1  1  0.14350000  0.58333333  0.74657500  1.0
  Mn  Fe1  1  0.85650000  0.08333333  0.00342500  1.0
  Mn  Fe1  1  0.39350000  0.25000000  0.62842500  1.0
  Mn  Fe1  1  0.60650000  0.75000000  0.87157500  1.0
  Mn  Fe1  1  0.64350000  0.58333333  0.74657500  1.0
  Mn  Fe1  1  0.89350000  0.58333333  0.62842500  1.0
  Mn  Fe1  1  0.39350000  0.25000000  0.37842500  1.0
  Mn  Fe1  1  0.89350000  0.25000000  0.37842500  1.0
  Mn  Fe1  1  0.39350000  0.58333333  0.12842500  1.0
  Mn  Fe1  1  0.85650000  0.41666667  0.00342500  1.0
  Mn  Fe1  1  0.35650000  0.08333333  0.75342500  1.0
  Fe  Fe1  1  0.10650000  0.08333333  0.87157500  1.0
  Fe  Fe1  1  0.60650000  0.75000000  0.37157500  1.0
  Fe  Fe1  1  0.60650000  0.41666667  0.12157500  1.0
  Fe  Fe1  1  0.35650000  0.41666667  0.50342500  1.0
  Fe  Fe1  1  0.89350000  0.58333333  0.12842500  1.0
  Fe  Fe1  1  0.60650000  0.41666667  0.37157500  1.0
  Fe  Fe1  1  0.10650000  0.75000000  0.12157500  1.0
  Fe  Fe1  1  0.89350000  0.91666667  0.12842500  1.0
  Fe  Fe1  1  0.39350000  0.91666667  0.37842500  1.0
  Fe  Fe1  1  0.14350000  0.91666667  0.24657500  1.0
  Fe  Fe1  1  0.64350000  0.25000000  0.74657500  1.0
  Fe  Fe1  1  0.89350000  0.58333333  0.37842500  1.0
  Fe  Fe1  1  0.14350000  0.58333333  0.99657500  1.0
  Fe  Fe1  1  0.14350000  0.25000000  0.74657500  1.0
  Fe  Fe1  1  0.14350000  0.91666667  0.49657500  1.0
  Fe  Fe1  1  0.89350000  0.25000000  0.12842500  1.0
  Fe  Fe1  1  0.39350000  0.91666667  0.12842500  1.0
  Fe  Fe1  1  0.89350000  0.91666667  0.37842500  1.0
  Fe  Fe1  1  0.35650000  0.08333333  0.25342500  1.0
  Fe  Fe1  1  0.64350000  0.91666667  0.24657500  1.0
  Fe  Fe1  1  0.64350000  0.58333333  0.49657500  1.0
  Fe  Fe1  1  0.10650000  0.75000000  0.62157500  1.0
  Fe  Fe1  1  0.10650000  0.41666667  0.37157500  1.0
  Fe  Fe1  1  0.85650000  0.41666667  0.75342500  1.0
  Fe  Fe1  1  0.85650000  0.75000000  0.75342500  1.0
  Fe  Fe1  1  0.64350000  0.25000000  0.49657500  1.0
  Fe  Fe1  1  0.89350000  0.25000000  0.62842500  1.0
  Fe  Fe1  1  0.39350000  0.25000000  0.12842500  1.0
  Fe  Fe1  1  0.10650000  0.41666667  0.87157500  1.0
  Fe  Fe1  1  0.64350000  0.91666667  0.49657500  1.0
  Fe  Fe1  1  0.35650000  0.75000000  0.50342500  1.0
  Fe  Fe1  1  0.14350000  0.91666667  0.99657500  1.0
  Fe  Fe1  1  0.60650000  0.75000000  0.12157500  1.0
  Fe  Fe1  1  0.14350000  0.25000000  0.99657500  1.0
  Fe  Fe1  1  0.39350000  0.25000000  0.87842500  1.0
  Fe  Fe1  1  0.35650000  0.41666667  0.25342500  1.0
  Fe  Fe1  1  0.85650000  0.75000000  0.50342500  1.0
  Fe  Fe1  1  0.60650000  0.08333333  0.37157500  1.0
  Fe  Fe1  1  0.85650000  0.75000000  0.25342500  1.0
  Fe  Fe1  1  0.60650000  0.08333333  0.62157500  1.0
  Fe  Fe1  1  0.85650000  0.41666667  0.25342500  1.0
  Fe  Fe1  1  0.35650000  0.41666667  0.00342500  1.0
  Fe  Fe1  1  0.10650000  0.41666667  0.62157500  1.0
  Fe  Fe1  1  0.85650000  0.41666667  0.50342500  1.0
  Fe  Fe1  1  0.85650000  0.08333333  0.50342500  1.0
  Fe  Fe1  1  0.60650000  0.41666667  0.87157500  1.0
  Fe  Fe1  1  0.35650000  0.41666667  0.75342500  1.0
  Fe  Fe1  1  0.64350000  0.25000000  0.99657500  1.0
  P  P1  1  0.05415000  0.25000000  0.11065000  1.0
  P  P1  1  0.05415000  0.25000000  0.36065000  1.0
  P  P1  1  0.05415000  0.25000000  0.61065000  1.0
  P  P1  1  0.05415000  0.25000000  0.86065000  1.0
  P  P1  1  0.05415000  0.58333333  0.11065000  1.0
  P  P1  1  0.05415000  0.58333333  0.36065000  1.0
  P  P1  1  0.05415000  0.58333333  0.61065000  1.0
  P  P1  1  0.05415000  0.58333333  0.86065000  1.0
  P  P1  1  0.05415000  0.91666667  0.11065000  1.0
  P  P1  1  0.05415000  0.91666667  0.36065000  1.0
  P  P1  1  0.05415000  0.91666667  0.61065000  1.0
  P  P1  1  0.05415000  0.91666667  0.86065000  1.0
  P  P1  1  0.55415000  0.25000000  0.11065000  1.0
  P  P1  1  0.55415000  0.25000000  0.36065000  1.0
  P  P1  1  0.55415000  0.25000000  0.61065000  1.0
  P  P1  1  0.55415000  0.25000000  0.86065000  1.0
  P  P1  1  0.55415000  0.58333333  0.11065000  1.0
  P  P1  1  0.55415000  0.58333333  0.36065000  1.0
  P  P1  1  0.55415000  0.58333333  0.61065000  1.0
  P  P1  1  0.55415000  0.58333333  0.86065000  1.0
  P  P1  1  0.55415000  0.91666667  0.11065000  1.0
  P  P1  1  0.55415000  0.91666667  0.36065000  1.0
  P  P1  1  0.55415000  0.91666667  0.61065000  1.0
  P  P1  1  0.55415000  0.91666667  0.86065000  1.0
  P  P1  1  0.44585000  0.08333333  0.13935000  1.0
  P  P1  1  0.44585000  0.08333333  0.38935000  1.0
  P  P1  1  0.44585000  0.08333333  0.63935000  1.0
  P  P1  1  0.44585000  0.08333333  0.88935000  1.0
  P  P1  1  0.44585000  0.41666667  0.13935000  1.0
  P  P1  1  0.44585000  0.41666667  0.38935000  1.0
  P  P1  1  0.44585000  0.41666667  0.63935000  1.0
  P  P1  1  0.44585000  0.41666667  0.88935000  1.0
  P  P1  1  0.44585000  0.75000000  0.13935000  1.0
  P  P1  1  0.44585000  0.75000000  0.38935000  1.0
  P  P1  1  0.44585000  0.75000000  0.63935000  1.0
  P  P1  1  0.44585000  0.75000000  0.88935000  1.0
  P  P1  1  0.94585000  0.08333333  0.13935000  1.0
  P  P1  1  0.94585000  0.08333333  0.38935000  1.0
  P  P1  1  0.94585000  0.08333333  0.63935000  1.0
  P  P1  1  0.94585000  0.08333333  0.88935000  1.0
  P  P1  1  0.94585000  0.41666667  0.13935000  1.0
  P  P1  1  0.94585000  0.41666667  0.38935000  1.0
  P  P1  1  0.94585000  0.41666667  0.63935000  1.0
  P  P1  1  0.94585000  0.41666667  0.88935000  1.0
  P  P1  1  0.94585000  0.75000000  0.13935000  1.0
  P  P1  1  0.94585000  0.75000000  0.38935000  1.0
  P  P1  1  0.94585000  0.75000000  0.63935000  1.0
  P  P1  1  0.94585000  0.75000000  0.88935000  1.0
  P  P1  1  0.19585000  0.08333333  0.23565000  1.0
  P  P1  1  0.19585000  0.08333333  0.48565000  1.0
  P  P1  1  0.19585000  0.08333333  0.73565000  1.0
  P  P1  1  0.19585000  0.08333333  0.98565000  1.0
  P  P1  1  0.19585000  0.41666667  0.23565000  1.0
  P  P1  1  0.19585000  0.41666667  0.48565000  1.0
  P  P1  1  0.19585000  0.41666667  0.73565000  1.0
  P  P1  1  0.19585000  0.41666667  0.98565000  1.0
  P  P1  1  0.19585000  0.75000000  0.23565000  1.0
  P  P1  1  0.19585000  0.75000000  0.48565000  1.0
  P  P1  1  0.19585000  0.75000000  0.73565000  1.0
  P  P1  1  0.19585000  0.75000000  0.98565000  1.0
  P  P1  1  0.69585000  0.08333333  0.23565000  1.0
  P  P1  1  0.69585000  0.08333333  0.48565000  1.0
  P  P1  1  0.69585000  0.08333333  0.73565000  1.0
  P  P1  1  0.69585000  0.08333333  0.98565000  1.0
  P  P1  1  0.69585000  0.41666667  0.23565000  1.0
  P  P1  1  0.69585000  0.41666667  0.48565000  1.0
  P  P1  1  0.69585000  0.41666667  0.73565000  1.0
  P  P1  1  0.69585000  0.41666667  0.98565000  1.0
  P  P1  1  0.69585000  0.75000000  0.23565000  1.0
  P  P1  1  0.69585000  0.75000000  0.48565000  1.0
  P  P1  1  0.69585000  0.75000000  0.73565000  1.0
  P  P1  1  0.69585000  0.75000000  0.98565000  1.0
  P  P1  1  0.30415000  0.25000000  0.01435000  1.0
  P  P1  1  0.30415000  0.25000000  0.26435000  1.0
  P  P1  1  0.30415000  0.25000000  0.51435000  1.0
  P  P1  1  0.30415000  0.25000000  0.76435000  1.0
  P  P1  1  0.30415000  0.58333333  0.01435000  1.0
  P  P1  1  0.30415000  0.58333333  0.26435000  1.0
  P  P1  1  0.30415000  0.58333333  0.51435000  1.0
  P  P1  1  0.30415000  0.58333333  0.76435000  1.0
  P  P1  1  0.30415000  0.91666667  0.01435000  1.0
  P  P1  1  0.30415000  0.91666667  0.26435000  1.0
  P  P1  1  0.30415000  0.91666667  0.51435000  1.0
  P  P1  1  0.30415000  0.91666667  0.76435000  1.0
  P  P1  1  0.80415000  0.25000000  0.01435000  1.0
  P  P1  1  0.80415000  0.25000000  0.26435000  1.0
  P  P1  1  0.80415000  0.25000000  0.51435000  1.0
  P  P1  1  0.80415000  0.25000000  0.76435000  1.0
  P  P1  1  0.80415000  0.58333333  0.01435000  1.0
  P  P1  1  0.80415000  0.58333333  0.26435000  1.0
  P  P1  1  0.80415000  0.58333333  0.51435000  1.0
  P  P1  1  0.80415000  0.58333333  0.76435000  1.0
  P  P1  1  0.80415000  0.91666667  0.01435000  1.0
  P  P1  1  0.80415000  0.91666667  0.26435000  1.0
  P  P1  1  0.80415000  0.91666667  0.51435000  1.0
  P  P1  1  0.80415000  0.91666667  0.76435000  1.0
  O  O1  1  0.05700000  0.25000000  0.18800000  1.0
  O  O1  1  0.05700000  0.25000000  0.43800000  1.0
  O  O1  1  0.05700000  0.25000000  0.68800000  1.0
  O  O1  1  0.05700000  0.25000000  0.93800000  1.0
  O  O1  1  0.05700000  0.58333333  0.18800000  1.0
  O  O1  1  0.05700000  0.58333333  0.43800000  1.0
  O  O1  1  0.05700000  0.58333333  0.68800000  1.0
  O  O1  1  0.05700000  0.58333333  0.93800000  1.0
  O  O1  1  0.05700000  0.91666667  0.18800000  1.0
  O  O1  1  0.05700000  0.91666667  0.43800000  1.0
  O  O1  1  0.05700000  0.91666667  0.68800000  1.0
  O  O1  1  0.05700000  0.91666667  0.93800000  1.0
  O  O1  1  0.55700000  0.25000000  0.18800000  1.0
  O  O1  1  0.55700000  0.25000000  0.43800000  1.0
  O  O1  1  0.55700000  0.25000000  0.68800000  1.0
  O  O1  1  0.55700000  0.25000000  0.93800000  1.0
  O  O1  1  0.55700000  0.58333333  0.18800000  1.0
  O  O1  1  0.55700000  0.58333333  0.43800000  1.0
  O  O1  1  0.55700000  0.58333333  0.68800000  1.0
  O  O1  1  0.55700000  0.58333333  0.93800000  1.0
  O  O1  1  0.55700000  0.91666667  0.18800000  1.0
  O  O1  1  0.55700000  0.91666667  0.43800000  1.0
  O  O1  1  0.55700000  0.91666667  0.68800000  1.0
  O  O1  1  0.55700000  0.91666667  0.93800000  1.0
  O  O1  1  0.44300000  0.08333333  0.06200000  1.0
  O  O1  1  0.44300000  0.08333333  0.31200000  1.0
  O  O1  1  0.44300000  0.08333333  0.56200000  1.0
  O  O1  1  0.44300000  0.08333333  0.81200000  1.0
  O  O1  1  0.44300000  0.41666667  0.06200000  1.0
  O  O1  1  0.44300000  0.41666667  0.31200000  1.0
  O  O1  1  0.44300000  0.41666667  0.56200000  1.0
  O  O1  1  0.44300000  0.41666667  0.81200000  1.0
  O  O1  1  0.44300000  0.75000000  0.06200000  1.0
  O  O1  1  0.44300000  0.75000000  0.31200000  1.0
  O  O1  1  0.44300000  0.75000000  0.56200000  1.0
  O  O1  1  0.44300000  0.75000000  0.81200000  1.0
  O  O1  1  0.94300000  0.08333333  0.06200000  1.0
  O  O1  1  0.94300000  0.08333333  0.31200000  1.0
  O  O1  1  0.94300000  0.08333333  0.56200000  1.0
  O  O1  1  0.94300000  0.08333333  0.81200000  1.0
  O  O1  1  0.94300000  0.41666667  0.06200000  1.0
  O  O1  1  0.94300000  0.41666667  0.31200000  1.0
  O  O1  1  0.94300000  0.41666667  0.56200000  1.0
  O  O1  1  0.94300000  0.41666667  0.81200000  1.0
  O  O1  1  0.94300000  0.75000000  0.06200000  1.0
  O  O1  1  0.94300000  0.75000000  0.31200000  1.0
  O  O1  1  0.94300000  0.75000000  0.56200000  1.0
  O  O1  1  0.94300000  0.75000000  0.81200000  1.0
  O  O1  1  0.19300000  0.08333333  0.06300000  1.0
  O  O1  1  0.19300000  0.08333333  0.31300000  1.0
  O  O1  1  0.19300000  0.08333333  0.56300000  1.0
  O  O1  1  0.19300000  0.08333333  0.81300000  1.0
  O  O1  1  0.19300000  0.41666667  0.06300000  1.0
  O  O1  1  0.19300000  0.41666667  0.31300000  1.0
  O  O1  1  0.19300000  0.41666667  0.56300000  1.0
  O  O1  1  0.19300000  0.41666667  0.81300000  1.0
  O  O1  1  0.19300000  0.75000000  0.06300000  1.0
  O  O1  1  0.19300000  0.75000000  0.31300000  1.0
  O  O1  1  0.19300000  0.75000000  0.56300000  1.0
  O  O1  1  0.19300000  0.75000000  0.81300000  1.0
  O  O1  1  0.69300000  0.08333333  0.06300000  1.0
  O  O1  1  0.69300000  0.08333333  0.31300000  1.0
  O  O1  1  0.69300000  0.08333333  0.56300000  1.0
  O  O1  1  0.69300000  0.08333333  0.81300000  1.0
  O  O1  1  0.69300000  0.41666667  0.06300000  1.0
  O  O1  1  0.69300000  0.41666667  0.31300000  1.0
  O  O1  1  0.69300000  0.41666667  0.56300000  1.0
  O  O1  1  0.69300000  0.41666667  0.81300000  1.0
  O  O1  1  0.69300000  0.75000000  0.06300000  1.0
  O  O1  1  0.69300000  0.75000000  0.31300000  1.0
  O  O1  1  0.69300000  0.75000000  0.56300000  1.0
  O  O1  1  0.69300000  0.75000000  0.81300000  1.0
  O  O1  1  0.30700000  0.25000000  0.18700000  1.0
  O  O1  1  0.30700000  0.25000000  0.43700000  1.0
  O  O1  1  0.30700000  0.25000000  0.68700000  1.0
  O  O1  1  0.30700000  0.25000000  0.93700000  1.0
  O  O1  1  0.30700000  0.58333333  0.18700000  1.0
  O  O1  1  0.30700000  0.58333333  0.43700000  1.0
  O  O1  1  0.30700000  0.58333333  0.68700000  1.0
  O  O1  1  0.30700000  0.58333333  0.93700000  1.0
  O  O1  1  0.30700000  0.91666667  0.18700000  1.0
  O  O1  1  0.30700000  0.91666667  0.43700000  1.0
  O  O1  1  0.30700000  0.91666667  0.68700000  1.0
  O  O1  1  0.30700000  0.91666667  0.93700000  1.0
  O  O1  1  0.80700000  0.25000000  0.18700000  1.0
  O  O1  1  0.80700000  0.25000000  0.43700000  1.0
  O  O1  1  0.80700000  0.25000000  0.68700000  1.0
  O  O1  1  0.80700000  0.25000000  0.93700000  1.0
  O  O1  1  0.80700000  0.58333333  0.18700000  1.0
  O  O1  1  0.80700000  0.58333333  0.43700000  1.0
  O  O1  1  0.80700000  0.58333333  0.68700000  1.0
  O  O1  1  0.80700000  0.58333333  0.93700000  1.0
  O  O1  1  0.80700000  0.91666667  0.18700000  1.0
  O  O1  1  0.80700000  0.91666667  0.43700000  1.0
  O  O1  1  0.80700000  0.91666667  0.68700000  1.0
  O  O1  1  0.80700000  0.91666667  0.93700000  1.0
  O  O2  1  0.23425000  0.25000000  0.04025000  1.0
  O  O2  1  0.23425000  0.25000000  0.29025000  1.0
  O  O2  1  0.23425000  0.25000000  0.54025000  1.0
  O  O2  1  0.23425000  0.25000000  0.79025000  1.0
  O  O2  1  0.23425000  0.58333333  0.04025000  1.0
  O  O2  1  0.23425000  0.58333333  0.29025000  1.0
  O  O2  1  0.23425000  0.58333333  0.54025000  1.0
  O  O2  1  0.23425000  0.58333333  0.79025000  1.0
  O  O2  1  0.23425000  0.91666667  0.04025000  1.0
  O  O2  1  0.23425000  0.91666667  0.29025000  1.0
  O  O2  1  0.23425000  0.91666667  0.54025000  1.0
  O  O2  1  0.23425000  0.91666667  0.79025000  1.0
  O  O2  1  0.73425000  0.25000000  0.04025000  1.0
  O  O2  1  0.73425000  0.25000000  0.29025000  1.0
  O  O2  1  0.73425000  0.25000000  0.54025000  1.0
  O  O2  1  0.73425000  0.25000000  0.79025000  1.0
  O  O2  1  0.73425000  0.58333333  0.04025000  1.0
  O  O2  1  0.73425000  0.58333333  0.29025000  1.0
  O  O2  1  0.73425000  0.58333333  0.54025000  1.0
  O  O2  1  0.73425000  0.58333333  0.79025000  1.0
  O  O2  1  0.73425000  0.91666667  0.04025000  1.0
  O  O2  1  0.73425000  0.91666667  0.29025000  1.0
  O  O2  1  0.73425000  0.91666667  0.54025000  1.0
  O  O2  1  0.73425000  0.91666667  0.79025000  1.0
  O  O2  1  0.26575000  0.08333333  0.20975000  1.0
  O  O2  1  0.26575000  0.08333333  0.45975000  1.0
  O  O2  1  0.26575000  0.08333333  0.70975000  1.0
  O  O2  1  0.26575000  0.08333333  0.95975000  1.0
  O  O2  1  0.26575000  0.41666667  0.20975000  1.0
  O  O2  1  0.26575000  0.41666667  0.45975000  1.0
  O  O2  1  0.26575000  0.41666667  0.70975000  1.0
  O  O2  1  0.26575000  0.41666667  0.95975000  1.0
  O  O2  1  0.26575000  0.75000000  0.20975000  1.0
  O  O2  1  0.26575000  0.75000000  0.45975000  1.0
  O  O2  1  0.26575000  0.75000000  0.70975000  1.0
  O  O2  1  0.26575000  0.75000000  0.95975000  1.0
  O  O2  1  0.76575000  0.08333333  0.20975000  1.0
  O  O2  1  0.76575000  0.08333333  0.45975000  1.0
  O  O2  1  0.76575000  0.08333333  0.70975000  1.0
  O  O2  1  0.76575000  0.08333333  0.95975000  1.0
  O  O2  1  0.76575000  0.41666667  0.20975000  1.0
  O  O2  1  0.76575000  0.41666667  0.45975000  1.0
  O  O2  1  0.76575000  0.41666667  0.70975000  1.0
  O  O2  1  0.76575000  0.41666667  0.95975000  1.0
  O  O2  1  0.76575000  0.75000000  0.20975000  1.0
  O  O2  1  0.76575000  0.75000000  0.45975000  1.0
  O  O2  1  0.76575000  0.75000000  0.70975000  1.0
  O  O2  1  0.76575000  0.75000000  0.95975000  1.0
  O  O2  1  0.01575000  0.08333333  0.16525000  1.0
  O  O2  1  0.01575000  0.08333333  0.41525000  1.0
  O  O2  1  0.01575000  0.08333333  0.66525000  1.0
  O  O2  1  0.01575000  0.08333333  0.91525000  1.0
  O  O2  1  0.01575000  0.41666667  0.16525000  1.0
  O  O2  1  0.01575000  0.41666667  0.41525000  1.0
  O  O2  1  0.01575000  0.41666667  0.66525000  1.0
  O  O2  1  0.01575000  0.41666667  0.91525000  1.0
  O  O2  1  0.01575000  0.75000000  0.16525000  1.0
  O  O2  1  0.01575000  0.75000000  0.41525000  1.0
  O  O2  1  0.01575000  0.75000000  0.66525000  1.0
  O  O2  1  0.01575000  0.75000000  0.91525000  1.0
  O  O2  1  0.51575000  0.08333333  0.16525000  1.0
  O  O2  1  0.51575000  0.08333333  0.41525000  1.0
  O  O2  1  0.51575000  0.08333333  0.66525000  1.0
  O  O2  1  0.51575000  0.08333333  0.91525000  1.0
  O  O2  1  0.51575000  0.41666667  0.16525000  1.0
  O  O2  1  0.51575000  0.41666667  0.41525000  1.0
  O  O2  1  0.51575000  0.41666667  0.66525000  1.0
  O  O2  1  0.51575000  0.41666667  0.91525000  1.0
  O  O2  1  0.51575000  0.75000000  0.16525000  1.0
  O  O2  1  0.51575000  0.75000000  0.41525000  1.0
  O  O2  1  0.51575000  0.75000000  0.66525000  1.0
  O  O2  1  0.51575000  0.75000000  0.91525000  1.0
  O  O2  1  0.48425000  0.25000000  0.08475000  1.0
  O  O2  1  0.48425000  0.25000000  0.33475000  1.0
  O  O2  1  0.48425000  0.25000000  0.58475000  1.0
  O  O2  1  0.48425000  0.25000000  0.83475000  1.0
  O  O2  1  0.48425000  0.58333333  0.08475000  1.0
  O  O2  1  0.48425000  0.58333333  0.33475000  1.0
  O  O2  1  0.48425000  0.58333333  0.58475000  1.0
  O  O2  1  0.48425000  0.58333333  0.83475000  1.0
  O  O2  1  0.48425000  0.91666667  0.08475000  1.0
  O  O2  1  0.48425000  0.91666667  0.33475000  1.0
  O  O2  1  0.48425000  0.91666667  0.58475000  1.0
  O  O2  1  0.48425000  0.91666667  0.83475000  1.0
  O  O2  1  0.98425000  0.25000000  0.08475000  1.0
  O  O2  1  0.98425000  0.25000000  0.33475000  1.0
  O  O2  1  0.98425000  0.25000000  0.58475000  1.0
  O  O2  1  0.98425000  0.25000000  0.83475000  1.0
  O  O2  1  0.98425000  0.58333333  0.08475000  1.0
  O  O2  1  0.98425000  0.58333333  0.33475000  1.0
  O  O2  1  0.98425000  0.58333333  0.58475000  1.0
  O  O2  1  0.98425000  0.58333333  0.83475000  1.0
  O  O2  1  0.98425000  0.91666667  0.08475000  1.0
  O  O2  1  0.98425000  0.91666667  0.33475000  1.0
  O  O2  1  0.98425000  0.91666667  0.58475000  1.0
  O  O2  1  0.98425000  0.91666667  0.83475000  1.0
  O  O3  1  0.08775000  0.31486667  0.07795000  1.0
  O  O3  1  0.08775000  0.31486667  0.32795000  1.0
  O  O3  1  0.08775000  0.31486667  0.57795000  1.0
  O  O3  1  0.08775000  0.31486667  0.82795000  1.0
  O  O3  1  0.08775000  0.64820000  0.07795000  1.0
  O  O3  1  0.08775000  0.64820000  0.32795000  1.0
  O  O3  1  0.08775000  0.64820000  0.57795000  1.0
  O  O3  1  0.08775000  0.64820000  0.82795000  1.0
  O  O3  1  0.08775000  0.98153333  0.07795000  1.0
  O  O3  1  0.08775000  0.98153333  0.32795000  1.0
  O  O3  1  0.08775000  0.98153333  0.57795000  1.0
  O  O3  1  0.08775000  0.98153333  0.82795000  1.0
  O  O3  1  0.58775000  0.31486667  0.07795000  1.0
  O  O3  1  0.58775000  0.31486667  0.32795000  1.0
  O  O3  1  0.58775000  0.31486667  0.57795000  1.0
  O  O3  1  0.58775000  0.31486667  0.82795000  1.0
  O  O3  1  0.58775000  0.64820000  0.07795000  1.0
  O  O3  1  0.58775000  0.64820000  0.32795000  1.0
  O  O3  1  0.58775000  0.64820000  0.57795000  1.0
  O  O3  1  0.58775000  0.64820000  0.82795000  1.0
  O  O3  1  0.58775000  0.98153333  0.07795000  1.0
  O  O3  1  0.58775000  0.98153333  0.32795000  1.0
  O  O3  1  0.58775000  0.98153333  0.57795000  1.0
  O  O3  1  0.58775000  0.98153333  0.82795000  1.0
  O  O3  1  0.41225000  0.01846667  0.17205000  1.0
  O  O3  1  0.41225000  0.01846667  0.42205000  1.0
  O  O3  1  0.41225000  0.01846667  0.67205000  1.0
  O  O3  1  0.41225000  0.01846667  0.92205000  1.0
  O  O3  1  0.41225000  0.35180000  0.17205000  1.0
  O  O3  1  0.41225000  0.35180000  0.42205000  1.0
  O  O3  1  0.41225000  0.35180000  0.67205000  1.0
  O  O3  1  0.41225000  0.35180000  0.92205000  1.0
  O  O3  1  0.41225000  0.68513333  0.17205000  1.0
  O  O3  1  0.41225000  0.68513333  0.42205000  1.0
  O  O3  1  0.41225000  0.68513333  0.67205000  1.0
  O  O3  1  0.41225000  0.68513333  0.92205000  1.0
  O  O3  1  0.91225000  0.01846667  0.17205000  1.0
  O  O3  1  0.91225000  0.01846667  0.42205000  1.0
  O  O3  1  0.91225000  0.01846667  0.67205000  1.0
  O  O3  1  0.91225000  0.01846667  0.92205000  1.0
  O  O3  1  0.91225000  0.35180000  0.17205000  1.0
  O  O3  1  0.91225000  0.35180000  0.42205000  1.0
  O  O3  1  0.91225000  0.35180000  0.67205000  1.0
  O  O3  1  0.91225000  0.35180000  0.92205000  1.0
  O  O3  1  0.91225000  0.68513333  0.17205000  1.0
  O  O3  1  0.91225000  0.68513333  0.42205000  1.0
  O  O3  1  0.91225000  0.68513333  0.67205000  1.0
  O  O3  1  0.91225000  0.68513333  0.92205000  1.0
  O  O3  1  0.16225000  0.01846667  0.20295000  1.0
  O  O3  1  0.16225000  0.01846667  0.45295000  1.0
  O  O3  1  0.16225000  0.01846667  0.70295000  1.0
  O  O3  1  0.16225000  0.01846667  0.95295000  1.0
  O  O3  1  0.16225000  0.35180000  0.20295000  1.0
  O  O3  1  0.16225000  0.35180000  0.45295000  1.0
  O  O3  1  0.16225000  0.35180000  0.70295000  1.0
  O  O3  1  0.16225000  0.35180000  0.95295000  1.0
  O  O3  1  0.16225000  0.68513333  0.20295000  1.0
  O  O3  1  0.16225000  0.68513333  0.45295000  1.0
  O  O3  1  0.16225000  0.68513333  0.70295000  1.0
  O  O3  1  0.16225000  0.68513333  0.95295000  1.0
  O  O3  1  0.66225000  0.01846667  0.20295000  1.0
  O  O3  1  0.66225000  0.01846667  0.45295000  1.0
  O  O3  1  0.66225000  0.01846667  0.70295000  1.0
  O  O3  1  0.66225000  0.01846667  0.95295000  1.0
  O  O3  1  0.66225000  0.35180000  0.20295000  1.0
  O  O3  1  0.66225000  0.35180000  0.45295000  1.0
  O  O3  1  0.66225000  0.35180000  0.70295000  1.0
  O  O3  1  0.66225000  0.35180000  0.95295000  1.0
  O  O3  1  0.66225000  0.68513333  0.20295000  1.0
  O  O3  1  0.66225000  0.68513333  0.45295000  1.0
  O  O3  1  0.66225000  0.68513333  0.70295000  1.0
  O  O3  1  0.66225000  0.68513333  0.95295000  1.0
  O  O3  1  0.33775000  0.31486667  0.04705000  1.0
  O  O3  1  0.33775000  0.31486667  0.29705000  1.0
  O  O3  1  0.33775000  0.31486667  0.54705000  1.0
  O  O3  1  0.33775000  0.31486667  0.79705000  1.0
  O  O3  1  0.33775000  0.64820000  0.04705000  1.0
  O  O3  1  0.33775000  0.64820000  0.29705000  1.0
  O  O3  1  0.33775000  0.64820000  0.54705000  1.0
  O  O3  1  0.33775000  0.64820000  0.79705000  1.0
  O  O3  1  0.33775000  0.98153333  0.04705000  1.0
  O  O3  1  0.33775000  0.98153333  0.29705000  1.0
  O  O3  1  0.33775000  0.98153333  0.54705000  1.0
  O  O3  1  0.33775000  0.98153333  0.79705000  1.0
  O  O3  1  0.83775000  0.31486667  0.04705000  1.0
  O  O3  1  0.83775000  0.31486667  0.29705000  1.0
  O  O3  1  0.83775000  0.31486667  0.54705000  1.0
  O  O3  1  0.83775000  0.31486667  0.79705000  1.0
  O  O3  1  0.83775000  0.64820000  0.04705000  1.0
  O  O3  1  0.83775000  0.64820000  0.29705000  1.0
  O  O3  1  0.83775000  0.64820000  0.54705000  1.0
  O  O3  1  0.83775000  0.64820000  0.79705000  1.0
  O  O3  1  0.83775000  0.98153333  0.04705000  1.0
  O  O3  1  0.83775000  0.98153333  0.29705000  1.0
  O  O3  1  0.83775000  0.98153333  0.54705000  1.0
  O  O3  1  0.83775000  0.98153333  0.79705000  1.0
  O  O3  1  0.41225000  0.14820000  0.17205000  1.0
  O  O3  1  0.41225000  0.14820000  0.42205000  1.0
  O  O3  1  0.41225000  0.14820000  0.67205000  1.0
  O  O3  1  0.41225000  0.14820000  0.92205000  1.0
  O  O3  1  0.41225000  0.48153333  0.17205000  1.0
  O  O3  1  0.41225000  0.48153333  0.42205000  1.0
  O  O3  1  0.41225000  0.48153333  0.67205000  1.0
  O  O3  1  0.41225000  0.48153333  0.92205000  1.0
  O  O3  1  0.41225000  0.81486667  0.17205000  1.0
  O  O3  1  0.41225000  0.81486667  0.42205000  1.0
  O  O3  1  0.41225000  0.81486667  0.67205000  1.0
  O  O3  1  0.41225000  0.81486667  0.92205000  1.0
  O  O3  1  0.91225000  0.14820000  0.17205000  1.0
  O  O3  1  0.91225000  0.14820000  0.42205000  1.0
  O  O3  1  0.91225000  0.14820000  0.67205000  1.0
  O  O3  1  0.91225000  0.14820000  0.92205000  1.0
  O  O3  1  0.91225000  0.48153333  0.17205000  1.0
  O  O3  1  0.91225000  0.48153333  0.42205000  1.0
  O  O3  1  0.91225000  0.48153333  0.67205000  1.0
  O  O3  1  0.91225000  0.48153333  0.92205000  1.0
  O  O3  1  0.91225000  0.81486667  0.17205000  1.0
  O  O3  1  0.91225000  0.81486667  0.42205000  1.0
  O  O3  1  0.91225000  0.81486667  0.67205000  1.0
  O  O3  1  0.91225000  0.81486667  0.92205000  1.0
  O  O3  1  0.08775000  0.18513333  0.07795000  1.0
  O  O3  1  0.08775000  0.18513333  0.32795000  1.0
  O  O3  1  0.08775000  0.18513333  0.57795000  1.0
  O  O3  1  0.08775000  0.18513333  0.82795000  1.0
  O  O3  1  0.08775000  0.51846667  0.07795000  1.0
  O  O3  1  0.08775000  0.51846667  0.32795000  1.0
  O  O3  1  0.08775000  0.51846667  0.57795000  1.0
  O  O3  1  0.08775000  0.51846667  0.82795000  1.0
  O  O3  1  0.08775000  0.85180000  0.07795000  1.0
  O  O3  1  0.08775000  0.85180000  0.32795000  1.0
  O  O3  1  0.08775000  0.85180000  0.57795000  1.0
  O  O3  1  0.08775000  0.85180000  0.82795000  1.0
  O  O3  1  0.58775000  0.18513333  0.07795000  1.0
  O  O3  1  0.58775000  0.18513333  0.32795000  1.0
  O  O3  1  0.58775000  0.18513333  0.57795000  1.0
  O  O3  1  0.58775000  0.18513333  0.82795000  1.0
  O  O3  1  0.58775000  0.51846667  0.07795000  1.0
  O  O3  1  0.58775000  0.51846667  0.32795000  1.0
  O  O3  1  0.58775000  0.51846667  0.57795000  1.0
  O  O3  1  0.58775000  0.51846667  0.82795000  1.0
  O  O3  1  0.58775000  0.85180000  0.07795000  1.0
  O  O3  1  0.58775000  0.85180000  0.32795000  1.0
  O  O3  1  0.58775000  0.85180000  0.57795000  1.0
  O  O3  1  0.58775000  0.85180000  0.82795000  1.0
  O  O3  1  0.33775000  0.18513333  0.04705000  1.0
  O  O3  1  0.33775000  0.18513333  0.29705000  1.0
  O  O3  1  0.33775000  0.18513333  0.54705000  1.0
  O  O3  1  0.33775000  0.18513333  0.79705000  1.0
  O  O3  1  0.33775000  0.51846667  0.04705000  1.0
  O  O3  1  0.33775000  0.51846667  0.29705000  1.0
  O  O3  1  0.33775000  0.51846667  0.54705000  1.0
  O  O3  1  0.33775000  0.51846667  0.79705000  1.0
  O  O3  1  0.33775000  0.85180000  0.04705000  1.0
  O  O3  1  0.33775000  0.85180000  0.29705000  1.0
  O  O3  1  0.33775000  0.85180000  0.54705000  1.0
  O  O3  1  0.33775000  0.85180000  0.79705000  1.0
  O  O3  1  0.83775000  0.18513333  0.04705000  1.0
  O  O3  1  0.83775000  0.18513333  0.29705000  1.0
  O  O3  1  0.83775000  0.18513333  0.54705000  1.0
  O  O3  1  0.83775000  0.18513333  0.79705000  1.0
  O  O3  1  0.83775000  0.51846667  0.04705000  1.0
  O  O3  1  0.83775000  0.51846667  0.29705000  1.0
  O  O3  1  0.83775000  0.51846667  0.54705000  1.0
  O  O3  1  0.83775000  0.51846667  0.79705000  1.0
  O  O3  1  0.83775000  0.85180000  0.04705000  1.0
  O  O3  1  0.83775000  0.85180000  0.29705000  1.0
  O  O3  1  0.83775000  0.85180000  0.54705000  1.0
  O  O3  1  0.83775000  0.85180000  0.79705000  1.0
  O  O3  1  0.16225000  0.14820000  0.20295000  1.0
  O  O3  1  0.16225000  0.14820000  0.45295000  1.0
  O  O3  1  0.16225000  0.14820000  0.70295000  1.0
  O  O3  1  0.16225000  0.14820000  0.95295000  1.0
  O  O3  1  0.16225000  0.48153333  0.20295000  1.0
  O  O3  1  0.16225000  0.48153333  0.45295000  1.0
  O  O3  1  0.16225000  0.48153333  0.70295000  1.0
  O  O3  1  0.16225000  0.48153333  0.95295000  1.0
  O  O3  1  0.16225000  0.81486667  0.20295000  1.0
  O  O3  1  0.16225000  0.81486667  0.45295000  1.0
  O  O3  1  0.16225000  0.81486667  0.70295000  1.0
  O  O3  1  0.16225000  0.81486667  0.95295000  1.0
  O  O3  1  0.66225000  0.14820000  0.20295000  1.0
  O  O3  1  0.66225000  0.14820000  0.45295000  1.0
  O  O3  1  0.66225000  0.14820000  0.70295000  1.0
  O  O3  1  0.66225000  0.14820000  0.95295000  1.0
  O  O3  1  0.66225000  0.48153333  0.20295000  1.0
  O  O3  1  0.66225000  0.48153333  0.45295000  1.0
  O  O3  1  0.66225000  0.48153333  0.70295000  1.0
  O  O3  1  0.66225000  0.48153333  0.95295000  1.0
  O  O3  1  0.66225000  0.81486667  0.20295000  1.0
  O  O3  1  0.66225000  0.81486667  0.45295000  1.0
  O  O3  1  0.66225000  0.81486667  0.70295000  1.0
  O  O3  1  0.66225000  0.81486667  0.95295000  1.0
