# generated using pymatgen
data_In86Cu29Se144
_symmetry_space_group_name_H-M   'P 1'
_cell_length_a   17.62949507
_cell_length_b   17.63068025
_cell_length_c   23.46406736
_cell_angle_alpha   89.98076516
_cell_angle_beta   90.00174469
_cell_angle_gamma   89.96850623
_symmetry_Int_Tables_number   1
_chemical_formula_structural   In86Cu29Se144
_chemical_formula_sum   'In86 Cu29 Se144'
_cell_volume   7293.09967624
_cell_formula_units_Z   1
loop_
 _symmetry_equiv_pos_site_id
 _symmetry_equiv_pos_as_xyz
  1  'x, y, z'
loop_
 _atom_site_type_symbol
 _atom_site_label
 _atom_site_symmetry_multiplicity
 _atom_site_fract_x
 _atom_site_fract_y
 _atom_site_fract_z
 _atom_site_occupancy
  In  In0  1  -0.00798800  0.17697243  0.13237572  1
  In  In1  1  -0.00792210  0.15734233  0.61843832  1
  In  In2  1  -0.00151227  0.50023157  0.13131224  1
  In  In3  1  0.00627175  0.51897103  0.60639067  1
  In  In4  1  0.00561454  0.83019027  0.14350223  1
  In  In5  1  -0.00316894  0.82213397  0.60625185  1
  In  In6  1  0.32156937  0.16043162  0.12741081  1
  In  In7  1  0.32420016  0.16095185  0.62033727  1
  In  In8  1  0.32352267  0.52130260  0.12927117  1
  In  In9  1  0.34568088  0.51568682  0.59983882  1
  In  In10  1  0.33616154  0.83445205  0.13051349  1
  In  In11  1  0.33466340  0.83689837  0.61284437  1
  In  In12  1  0.67484120  0.15770343  0.13409465  1
  In  In13  1  0.67975699  0.16094412  0.63665652  1
  In  In14  1  0.67702839  0.49028435  0.14627949  1
  In  In15  1  0.66288427  0.50181782  0.61744380  1
  In  In16  1  0.66555937  0.83191038  0.14049538  1
  In  In17  1  0.67236541  0.84287647  0.61226641  1
  In  In18  1  0.16818478  0.00127092  0.37541414  1
  In  In19  1  0.16831594  -0.01420179  0.86918752  1
  In  In20  1  0.15105668  0.34307075  0.37994793  1
  In  In21  1  0.17419503  0.34375196  0.87081325  1
  In  In22  1  0.13455227  0.69796292  0.42480278  1
  In  In23  1  0.16282705  0.65761100  0.85800178  1
  In  In24  1  0.48593378  -0.02139287  0.37671304  1
  In  In25  1  0.50262757  -0.00084125  0.86038382  1
  In  In26  1  0.51336634  0.34282528  0.37236050  1
  In  In27  1  0.50252442  0.32668854  0.86835610  1
  In  In28  1  0.50458607  0.66671073  0.39439178  1
  In  In29  1  0.49599573  0.68152001  0.87020347  1
  In  In30  1  0.83699398  0.00123659  0.37407202  1
  In  In31  1  0.84084783  0.00671629  0.87395102  1
  In  In32  1  0.83428152  0.33618721  0.37370502  1
  In  In33  1  0.82482558  0.33166210  0.87110980  1
  In  In34  1  0.83560728  0.66878368  0.38367495  1
  In  In35  1  0.83884206  0.65481506  0.87095441  1
  In  In36  1  0.00017845  0.16705517  0.37417086  1
  In  In37  1  -0.00091480  0.15612681  0.88051067  1
  In  In38  1  0.00689832  0.50744359  0.37850092  1
  In  In39  1  0.00744378  0.50945691  0.86557002  1
  In  In40  1  -0.00636002  0.82616644  0.37592248  1
  In  In41  1  0.01214038  0.82529977  0.87009027  1
  In  In42  1  0.32916159  0.14827686  0.37836491  1
  In  In43  1  0.34021763  0.16746178  0.86874102  1
  In  In44  1  0.30808072  0.54341998  0.40787093  1
  In  In45  1  0.31448642  0.49940311  0.86681265  1
  In  In46  1  0.29610519  0.85299190  0.42819188  1
  In  In47  1  0.33569076  0.83202520  0.86093681  1
  In  In48  1  0.67481924  0.17736914  0.36857296  1
  In  In49  1  0.67772353  0.16755654  0.86154848  1
  In  In50  1  0.67184598  0.50775283  0.38676405  1
  In  In51  1  0.67844728  0.49440943  0.86816910  1
  In  In52  1  0.66766974  0.83473779  0.38120521  1
  In  In53  1  0.65604747  0.83446321  0.87178915  1
  In  In54  1  0.16433831  -0.00430210  0.14500743  1
  In  In55  1  0.17690008  0.00044870  0.60599969  1
  In  In56  1  0.14856615  0.34329223  0.13126954  1
  In  In57  1  0.16904065  0.33174384  0.61662580  1
  In  In58  1  0.16402521  0.66480060  0.12535733  1
  In  In59  1  0.17196706  0.66708770  0.61142176  1
  In  In60  1  0.50019342  -0.00030917  0.13795886  1
  In  In61  1  0.50322389  -0.00028475  0.62376849  1
  In  In62  1  0.50628973  0.34068921  0.13138165  1
  In  In63  1  0.50849649  0.34778554  0.62700108  1
  In  In64  1  0.49594461  0.67443225  0.13420195  1
  In  In65  1  0.49163074  0.66348463  0.60328670  1
  In  In66  1  0.82452972  0.00518140  0.13422341  1
  In  In67  1  0.82630492  -0.00197986  0.61951665  1
  In  In68  1  0.84100123  0.32855450  0.13180191  1
  In  In69  1  0.82731792  0.32417374  0.62495888  1
  In  In70  1  0.83720466  0.65934474  0.13904581  1
  In  In71  1  0.84060003  0.68297778  0.59591401  1
  In  In72  1  0.33542122  0.33506784  0.74973791  1
  In  In73  1  0.83667136  0.49391223  0.00965585  1
  In  In74  1  0.49862299  0.16881890  -0.00746281  1
  In  In75  1  0.83707402  0.83199026  0.00042629  1
  In  In76  1  -0.00341964  -0.01418268  0.73294564  1
  In  In77  1  0.50482092  0.16316361  0.50192151  1
  In  In78  1  0.32811167  0.68369137  0.27192309  1
  In  In79  1  0.16731337  0.83156476  0.00712113  1
  In  In80  1  0.49767597  0.50590541  0.00364059  1
  In  In81  1  0.49862538  0.83860271  0.00404659  1
  In  In82  1  0.66786546  0.67149520  0.73858202  1
  In  In83  1  0.34601056  0.33391601  0.25879050  1
  In  In84  1  0.15847110  0.17090672  0.00451972  1
  In  In85  1  -0.00974534  0.33393694  0.74780901  1
  Cu  Cu86  1  0.67283229  0.33079914  0.49812406  1
  Cu  Cu87  1  0.33119227  0.00455306  -0.00452666  1
  Cu  Cu88  1  -0.00596668  0.32449925  0.49760453  1
  Cu  Cu89  1  0.17613369  0.82680079  0.73890078  1
  Cu  Cu90  1  0.50124220  0.16331886  0.74698444  1
  Cu  Cu91  1  0.50648468  0.83186012  0.25934802  1
  Cu  Cu92  1  0.32164583  0.66277734  -0.00624738  1
  Cu  Cu93  1  0.17333660  0.51005567  0.73147054  1
  Cu  Cu94  1  0.50118614  0.51327112  0.73799192  1
  Cu  Cu95  1  0.33524518  0.32340900  0.49684129  1
  Cu  Cu96  1  0.83475212  0.82597644  0.73565560  1
  Cu  Cu97  1  0.16159709  0.49993398  0.25348892  1
  Cu  Cu98  1  0.66392416  0.32556451  -0.00470696  1
  Cu  Cu99  1  0.50132522  0.16150001  0.25939022  1
  Cu  Cu100  1  0.67105944  0.00751025  0.00320381  1
  Cu  Cu101  1  -0.00440830  0.33979205  0.00547761  1
  Cu  Cu102  1  0.83782066  0.50696270  0.74173287  1
  Cu  Cu103  1  0.16062006  0.15311740  0.73967497  1
  Cu  Cu104  1  0.83177283  0.83118920  0.25930789  1
  Cu  Cu105  1  0.83540686  0.16749465  0.25326146  1
  Cu  Cu106  1  0.83257023  0.50682354  0.26402782  1
  Cu  Cu107  1  0.50135987  0.50777727  0.26535604  1
  Cu  Cu108  1  0.67386407  0.01167020  0.49486662  1
  Cu  Cu109  1  0.49088032  0.83000769  0.73806387  1
  Cu  Cu110  1  0.32226801  0.34894541  0.00117673  1
  Cu  Cu111  1  0.16991888  0.16493094  0.25408851  1
  Cu  Cu112  1  0.66852097  0.66066400  0.01209845  1
  Cu  Cu113  1  -0.00607694  0.00499475  0.49518718  1
  Cu  Cu114  1  -0.00647119  0.00259219  0.00800028  1
  Se  Se115  1  0.08058437  0.07509052  0.06732310  1
  Se  Se116  1  0.08085954  0.08400702  0.54980767  1
  Se  Se117  1  0.07922196  0.42409387  0.05544928  1
  Se  Se118  1  0.07431833  0.40664527  0.55418825  1
  Se  Se119  1  0.06894684  0.74691505  0.05974337  1
  Se  Se120  1  0.08749626  0.74565342  0.53991318  1
  Se  Se121  1  0.41309068  0.07876360  0.05782409  1
  Se  Se122  1  0.40692589  0.07312777  0.55245660  1
  Se  Se123  1  0.40613871  0.41744145  0.06506884  1
  Se  Se124  1  0.41847477  0.40486866  0.55130056  1
  Se  Se125  1  0.40419084  0.73952605  0.05476973  1
  Se  Se126  1  0.43449435  0.77453007  0.54405808  1
  Se  Se127  1  0.75447715  0.08750814  0.05678903  1
  Se  Se128  1  0.75147062  0.09284508  0.55404886  1
  Se  Se129  1  0.73685856  0.40592222  0.06142677  1
  Se  Se130  1  0.75088093  0.41289081  0.55703771  1
  Se  Se131  1  0.74666567  0.74659710  0.06620137  1
  Se  Se132  1  0.72728422  0.74290872  0.54200317  1
  Se  Se133  1  0.25123178  0.26341630  0.06219690  1
  Se  Se134  1  0.24865869  0.24470373  0.54965800  1
  Se  Se135  1  0.24116911  0.58402789  0.05132176  1
  Se  Se136  1  0.22433623  0.55667912  0.54611602  1
  Se  Se137  1  0.25683145  0.92896383  0.06143496  1
  Se  Se138  1  0.23660332  0.89717693  0.54054084  1
  Se  Se139  1  0.58520700  0.25194315  0.06007756  1
  Se  Se140  1  0.59283628  0.25379860  0.56267578  1
  Se  Se141  1  0.58912655  0.58300893  0.07186613  1
  Se  Se142  1  0.58402149  0.57981663  0.54519305  1
  Se  Se143  1  0.59230273  0.92612088  0.06257949  1
  Se  Se144  1  0.58893363  0.93170723  0.54915935  1
  Se  Se145  1  0.91530207  0.25143052  0.05485945  1
  Se  Se146  1  0.91099865  0.24550775  0.55430528  1
  Se  Se147  1  0.92208843  0.59484080  0.05885973  1
  Se  Se148  1  0.90217413  0.57327550  0.53816655  1
  Se  Se149  1  0.92141737  0.91705205  0.06783860  1
  Se  Se150  1  0.91381166  0.92037649  0.55132081  1
  Se  Se151  1  0.08409377  0.24574170  0.44636628  1
  Se  Se152  1  0.07584655  0.26434798  0.93914067  1
  Se  Se153  1  0.10440165  0.55806036  0.45441017  1
  Se  Se154  1  0.08645779  0.58795278  0.93552525  1
  Se  Se155  1  0.07298507  0.92291565  0.43933820  1
  Se  Se156  1  0.07360451  0.92458182  0.94587227  1
  Se  Se157  1  0.41982899  0.25016288  0.43503696  1
  Se  Se158  1  0.40157510  0.26748551  0.94264152  1
  Se  Se159  1  0.43579508  0.56633135  0.45829176  1
  Se  Se160  1  0.41005280  0.58906141  0.93576721  1
  Se  Se161  1  0.43142941  0.89949093  0.46035029  1
  Se  Se162  1  0.41098293  0.92383517  0.93712367  1
  Se  Se163  1  0.75487089  0.24914458  0.44428923  1
  Se  Se164  1  0.74735701  0.24616991  0.94055865  1
  Se  Se165  1  0.78165206  0.56102734  0.45138724  1
  Se  Se166  1  0.74365665  0.58591562  0.94602891  1
  Se  Se167  1  0.75411164  0.92174485  0.44536194  1
  Se  Se168  1  0.74105802  0.91877360  0.94254825  1
  Se  Se169  1  0.24467506  0.08168343  0.45111454  1
  Se  Se170  1  0.24901060  0.08350792  0.93791042  1
  Se  Se171  1  0.25933279  0.40634364  0.43825147  1
  Se  Se172  1  0.24020044  0.42840766  0.94617003  1
  Se  Se173  1  0.28204720  0.70484271  0.44040923  1
  Se  Se174  1  0.25129560  0.75138790  0.93462983  1
  Se  Se175  1  0.58762241  0.08110231  0.43193075  1
  Se  Se176  1  0.58753919  0.07537040  0.93692230  1
  Se  Se177  1  0.58763756  0.41580286  0.44992903  1
  Se  Se178  1  0.58684714  0.41332026  0.94028196  1
  Se  Se179  1  0.60943271  0.73791761  0.45438434  1
  Se  Se180  1  0.59091364  0.74008916  0.94929221  1
  Se  Se181  1  0.91161119  0.09095680  0.44410037  1
  Se  Se182  1  0.91319727  0.08346363  0.95187349  1
  Se  Se183  1  0.92336562  0.41390549  0.44096236  1
  Se  Se184  1  0.92102909  0.41487049  0.93618854  1
  Se  Se185  1  0.91252398  0.75535630  0.45234157  1
  Se  Se186  1  0.92432542  0.74132144  0.93912932  1
  Se  Se187  1  0.24831516  0.24733185  0.31350648  1
  Se  Se188  1  0.23659792  0.23856287  0.80187960  1
  Se  Se189  1  0.23810987  0.58105543  0.31344170  1
  Se  Se190  1  0.25727693  0.58753082  0.79018620  1
  Se  Se191  1  0.26657912  0.90839442  0.32952248  1
  Se  Se192  1  0.25051246  0.91588713  0.79540899  1
  Se  Se193  1  0.58361206  0.25402444  0.30112936  1
  Se  Se194  1  0.58368339  0.24852991  0.79963471  1
  Se  Se195  1  0.58432257  0.58906385  0.31889254  1
  Se  Se196  1  0.58117114  0.58341113  0.80830228  1
  Se  Se197  1  0.58843235  0.91934354  0.30959204  1
  Se  Se198  1  0.57818708  0.90606846  0.79575257  1
  Se  Se199  1  0.91809674  0.25208713  0.30514677  1
  Se  Se200  1  0.91263414  0.23587061  0.81003282  1
  Se  Se201  1  0.92057908  0.58968477  0.31143018  1
  Se  Se202  1  0.92194790  0.58743754  0.79587485  1
  Se  Se203  1  0.91857795  0.91650686  0.30568539  1
  Se  Se204  1  0.91191486  0.90187611  0.80474960  1
  Se  Se205  1  0.08416843  0.08343233  0.30582888  1
  Se  Se206  1  0.08211873  0.07774219  0.80373537  1
  Se  Se207  1  0.07522590  0.41672580  0.30300095  1
  Se  Se208  1  0.09709586  0.42555538  0.79376317  1
  Se  Se209  1  0.09062125  0.73692975  0.32496275  1
  Se  Se210  1  0.08624395  0.75143869  0.79346450  1
  Se  Se211  1  0.41764932  0.07620762  0.30840076  1
  Se  Se212  1  0.41267315  0.08261623  0.79805269  1
  Se  Se213  1  0.41336278  0.43398335  0.32220861  1
  Se  Se214  1  0.42777810  0.43188899  0.80602209  1
  Se  Se215  1  0.42891390  0.76169301  0.32643337  1
  Se  Se216  1  0.41308537  0.74403884  0.79318734  1
  Se  Se217  1  0.75170273  0.08359559  0.30460572  1
  Se  Se218  1  0.74054085  0.05857112  0.80608937  1
  Se  Se219  1  0.74518343  0.42231795  0.31126876  1
  Se  Se220  1  0.75959151  0.42029332  0.79622082  1
  Se  Se221  1  0.75022993  0.74824566  0.31318626  1
  Se  Se222  1  0.75733975  0.75537469  0.80781957  1
  Se  Se223  1  0.25641455  0.08049778  0.20432601  1
  Se  Se224  1  0.24711527  0.07336805  0.68874378  1
  Se  Se225  1  0.24938277  0.42264333  0.19579306  1
  Se  Se226  1  0.25621584  0.42209755  0.68094767  1
  Se  Se227  1  0.24232115  0.75726657  0.19420087  1
  Se  Se228  1  0.25651007  0.74709263  0.68078156  1
  Se  Se229  1  0.58583992  0.08189213  0.20189059  1
  Se  Se230  1  0.58453247  0.07893918  0.69531049  1
  Se  Se231  1  0.57582991  0.42000271  0.20750106  1
  Se  Se232  1  0.59043783  0.42568300  0.69802362  1
  Se  Se233  1  0.58322894  0.74450827  0.20449466  1
  Se  Se234  1  0.57578054  0.75520893  0.67801214  1
  Se  Se235  1  0.91736567  0.08406721  0.19749150  1
  Se  Se236  1  0.90345757  0.08839104  0.69440369  1
  Se  Se237  1  0.90685231  0.42661321  0.19810557  1
  Se  Se238  1  0.91863786  0.42847851  0.68050969  1
  Se  Se239  1  0.91531038  0.74736737  0.20502204  1
  Se  Se240  1  0.91496136  0.74516369  0.67963883  1
  Se  Se241  1  0.08604170  0.24835381  0.19977133  1
  Se  Se242  1  0.08350803  0.24321794  0.68824734  1
  Se  Se243  1  0.08373705  0.58509123  0.19628922  1
  Se  Se244  1  0.08377134  0.59135604  0.68353725  1
  Se  Se245  1  0.08679171  0.91110604  0.21037733  1
  Se  Se246  1  0.09349068  0.90291244  0.67622341  1
  Se  Se247  1  0.42473995  0.23758411  0.19045015  1
  Se  Se248  1  0.42213941  0.24449403  0.68624589  1
  Se  Se249  1  0.41701613  0.58406281  0.20371964  1
  Se  Se250  1  0.41666183  0.58760795  0.68125926  1
  Se  Se251  1  0.42033819  0.90930628  0.20066776  1
  Se  Se252  1  0.41139471  0.91906760  0.68733243  1
  Se  Se253  1  0.75133372  0.25109723  0.19805780  1
  Se  Se254  1  0.74894570  0.25603577  0.70277114  1
  Se  Se255  1  0.74676000  0.58808683  0.20813385  1
  Se  Se256  1  0.76117510  0.58789365  0.67940390  1
  Se  Se257  1  0.75044160  0.91620676  0.20350225  1
  Se  Se258  1  0.74907463  0.91341619  0.69121313  1
