# generated using pymatgen
data_In86Cu29Se144
_symmetry_space_group_name_H-M   'P 1'
_cell_length_a   17.58111431
_cell_length_b   17.58264210
_cell_length_c   23.45231209
_cell_angle_alpha   89.98792347
_cell_angle_beta   90.01255972
_cell_angle_gamma   90.01082405
_symmetry_Int_Tables_number   1
_chemical_formula_structural   In86Cu29Se144
_chemical_formula_sum   'In86 Cu29 Se144'
_cell_volume   7249.63548483
_cell_formula_units_Z   1
loop_
 _symmetry_equiv_pos_site_id
 _symmetry_equiv_pos_as_xyz
  1  'x, y, z'
loop_
 _atom_site_type_symbol
 _atom_site_label
 _atom_site_symmetry_multiplicity
 _atom_site_fract_x
 _atom_site_fract_y
 _atom_site_fract_z
 _atom_site_occupancy
  In  In0  1  0.00594927  0.16896463  0.11437835  1
  In  In1  1  0.01306127  0.15557695  0.63441009  1
  In  In2  1  -0.00117796  0.48831267  0.12407241  1
  In  In3  1  0.01169572  0.49186302  0.63323278  1
  In  In4  1  0.00818565  0.82493067  0.11977963  1
  In  In5  1  -0.00161903  0.83653886  0.62768897  1
  In  In6  1  0.32551427  0.15346142  0.13425465  1
  In  In7  1  0.32763571  0.15969154  0.61704821  1
  In  In8  1  0.32525408  0.51214060  0.14075389  1
  In  In9  1  0.33948886  0.50909036  0.61186777  1
  In  In10  1  0.33219392  0.83099543  0.13094124  1
  In  In11  1  0.32637060  0.82917806  0.61584727  1
  In  In12  1  0.64864563  0.15688407  0.11131998  1
  In  In13  1  0.65084019  0.16126457  0.62314610  1
  In  In14  1  0.65841678  0.50781792  0.13211636  1
  In  In15  1  0.66473211  0.51257524  0.61497423  1
  In  In16  1  0.65289407  0.84751747  0.13510020  1
  In  In17  1  0.67540935  0.83824666  0.61356681  1
  In  In18  1  0.17663566  -0.00290943  0.37827736  1
  In  In19  1  0.16507380  0.00350791  0.88112784  1
  In  In20  1  0.19307804  0.31840376  0.38096816  1
  In  In21  1  0.16288473  0.33682298  0.88179030  1
  In  In22  1  0.17233160  0.66667830  0.37947487  1
  In  In23  1  0.16399055  0.67347238  0.88310362  1
  In  In24  1  0.50111372  -0.00189248  0.37631766  1
  In  In25  1  0.50665510  -0.00533507  0.87882291  1
  In  In26  1  0.47472668  0.34618122  0.37486546  1
  In  In27  1  0.49148786  0.33223060  0.87863212  1
  In  In28  1  0.49534156  0.67393557  0.37141406  1
  In  In29  1  0.50935801  0.67493901  0.87658861  1
  In  In30  1  0.82291890  -0.00417875  0.37632714  1
  In  In31  1  0.84185099  0.00448984  0.86991524  1
  In  In32  1  0.83378625  0.33244706  0.37260529  1
  In  In33  1  0.83786114  0.31494426  0.87859184  1
  In  In34  1  0.82996996  0.68402257  0.38083673  1
  In  In35  1  0.84025030  0.65548675  0.87644539  1
  In  In36  1  0.01154951  0.15996298  0.38660021  1
  In  In37  1  0.00108236  0.16391446  0.87384677  1
  In  In38  1  0.00686487  0.51335612  0.37887569  1
  In  In39  1  0.01393502  0.51118514  0.86441572  1
  In  In40  1  0.01318142  0.83058714  0.39121125  1
  In  In41  1  0.01585672  0.84444553  0.86089456  1
  In  In42  1  0.33135989  0.16991676  0.36868975  1
  In  In43  1  0.33408593  0.16312460  0.88987170  1
  In  In44  1  0.33475246  0.50345139  0.36528064  1
  In  In45  1  0.33032583  0.48321436  0.87621836  1
  In  In46  1  0.32451351  0.84581450  0.37167964  1
  In  In47  1  0.33216820  0.83868003  0.88574147  1
  In  In48  1  0.66279108  0.14576080  0.36823129  1
  In  In49  1  0.68071346  0.16115595  0.88771679  1
  In  In50  1  0.63305348  0.51527991  0.37575152  1
  In  In51  1  0.66547005  0.50940038  0.87437561  1
  In  In52  1  0.65972865  0.83118629  0.37604212  1
  In  In53  1  0.65143538  0.83551753  0.87714282  1
  In  In54  1  0.17177521  -0.00157507  0.12406502  1
  In  In55  1  0.12924327  -0.02073081  0.58926204  1
  In  In56  1  0.16668116  0.33222281  0.12197594  1
  In  In57  1  0.16208851  0.32817583  0.62297988  1
  In  In58  1  0.18454278  0.67727963  0.11547967  1
  In  In59  1  0.16561550  0.66744261  0.62262299  1
  In  In60  1  0.49970486  0.00230504  0.12921497  1
  In  In61  1  0.50386209  0.00442392  0.62076052  1
  In  In62  1  0.49629522  0.31445956  0.12605203  1
  In  In63  1  0.49296219  0.33048842  0.61442467  1
  In  In64  1  0.47793053  0.68428821  0.14818430  1
  In  In65  1  0.52017510  0.67956201  0.59395348  1
  In  In66  1  0.81947585  0.00277418  0.12779553  1
  In  In67  1  0.84100531  -0.01244839  0.63225920  1
  In  In68  1  0.83576783  0.33107951  0.11856410  1
  In  In69  1  0.84203930  0.34053423  0.62878614  1
  In  In70  1  0.82671291  0.65790420  0.13020402  1
  In  In71  1  0.84234041  0.70251295  0.60988632  1
  In  In72  1  0.83170523  0.49831359  0.50013378  1
  In  In73  1  0.00961328  -0.00569429  0.25636856  1
  In  In74  1  0.83783163  0.83606793  -0.00150476  1
  In  In75  1  0.33146343  0.66723640  0.73892208  1
  In  In76  1  0.49640142  0.49771018  0.00498371  1
  In  In77  1  0.00355864  0.67114174  0.25766330  1
  In  In78  1  0.67397712  0.32978620  0.75454671  1
  In  In79  1  0.83446689  0.49618922  0.00130686  1
  In  In80  1  0.00363942  0.33354532  0.24516911  1
  In  In81  1  0.83932568  0.15840616  0.50176580  1
  In  In82  1  0.66223332  0.32574319  0.24576976  1
  In  In83  1  0.32112219  0.00061463  0.75081445  1
  In  In84  1  0.67991366  0.67747272  0.73474278  1
  In  In85  1  0.33139238  0.32912124  0.74891281  1
  Cu  Cu86  1  0.83879058  0.16373198  0.24720836  1
  Cu  Cu87  1  0.50022974  0.83880956  0.25707093  1
  Cu  Cu88  1  0.49831269  0.16055091  0.24956851  1
  Cu  Cu89  1  0.50583984  0.15732569  0.75087191  1
  Cu  Cu90  1  0.33126454  0.67253718  0.49041949  1
  Cu  Cu91  1  0.50820923  0.50563955  0.73671565  1
  Cu  Cu92  1  0.82852699  0.83391376  0.25401497  1
  Cu  Cu93  1  0.00075206  0.32977915  -0.00202285  1
  Cu  Cu94  1  0.65765583  0.68137089  0.00897270  1
  Cu  Cu95  1  0.34006143  0.00861385  0.49408452  1
  Cu  Cu96  1  0.49704221  0.83955662  0.75008336  1
  Cu  Cu97  1  0.01377226  0.66428603  -0.00444385  1
  Cu  Cu98  1  0.33222306  0.32560960  0.00752853  1
  Cu  Cu99  1  0.33733938  0.66195537  0.00743943  1
  Cu  Cu100  1  0.00396129  0.66766522  0.50397074  1
  Cu  Cu101  1  0.66277244  0.00509707  0.00376162  1
  Cu  Cu102  1  0.84389062  0.50192469  0.74871992  1
  Cu  Cu103  1  0.16201701  0.50159263  0.25109537  1
  Cu  Cu104  1  0.33996761  -0.00371531  0.00845100  1
  Cu  Cu105  1  0.01209582  0.33617586  0.50534910  1
  Cu  Cu106  1  0.16111609  0.16403235  0.75085622  1
  Cu  Cu107  1  0.33347614  0.33973267  0.49469831  1
  Cu  Cu108  1  0.83290748  0.16154820  0.75410503  1
  Cu  Cu109  1  0.66444842  -0.00616307  0.49743954  1
  Cu  Cu110  1  0.81446607  0.50482003  0.25558329  1
  Cu  Cu111  1  0.00186439  0.00224698  -0.00530622  1
  Cu  Cu112  1  0.65986686  0.32395331  0.49291201  1
  Cu  Cu113  1  0.16921927  0.50139566  0.74907634  1
  Cu  Cu114  1  0.83409074  0.83393460  0.74813773  1
  Se  Se115  1  0.08775639  0.07773546  0.05315490  1
  Se  Se116  1  0.08814417  0.10792912  0.54728594  1
  Se  Se117  1  0.08144497  0.41420256  0.05282114  1
  Se  Se118  1  0.09221122  0.42503185  0.55506208  1
  Se  Se119  1  0.09236465  0.75209660  0.04843837  1
  Se  Se120  1  0.08305377  0.75482631  0.55710017  1
  Se  Se121  1  0.41726913  0.08612201  0.06060868  1
  Se  Se122  1  0.42292148  0.08862024  0.55205928  1
  Se  Se123  1  0.40626185  0.41305173  0.06714530  1
  Se  Se124  1  0.42029716  0.42111161  0.54714614  1
  Se  Se125  1  0.41757047  0.74760356  0.06031754  1
  Se  Se126  1  0.41385033  0.75657086  0.54509888  1
  Se  Se127  1  0.75365299  0.08646033  0.05181346  1
  Se  Se128  1  0.74408790  0.07345123  0.56113934  1
  Se  Se129  1  0.73671021  0.41732071  0.06130312  1
  Se  Se130  1  0.74068399  0.40027367  0.55588739  1
  Se  Se131  1  0.74718854  0.75369585  0.06567588  1
  Se  Se132  1  0.71553071  0.71653867  0.55762586  1
  Se  Se133  1  0.24949041  0.24074906  0.06041775  1
  Se  Se134  1  0.25542135  0.25852494  0.55515964  1
  Se  Se135  1  0.25321819  0.57338428  0.05483941  1
  Se  Se136  1  0.25050771  0.59246403  0.55053582  1
  Se  Se137  1  0.25293247  0.91175983  0.05718052  1
  Se  Se138  1  0.25727778  0.92678461  0.55015144  1
  Se  Se139  1  0.58811025  0.26192006  0.05055778  1
  Se  Se140  1  0.57773684  0.24373254  0.55003939  1
  Se  Se141  1  0.57697581  0.59633456  0.06441650  1
  Se  Se142  1  0.57034120  0.56198971  0.54084138  1
  Se  Se143  1  0.58114344  0.92015085  0.05607751  1
  Se  Se144  1  0.57803923  0.91404444  0.55180607  1
  Se  Se145  1  0.91426382  0.24801648  0.04960763  1
  Se  Se146  1  0.92536160  0.25591230  0.55978020  1
  Se  Se147  1  0.92679320  0.59343324  0.05791923  1
  Se  Se148  1  0.92140339  0.58527102  0.56344125  1
  Se  Se149  1  0.92392771  0.92735107  0.06190515  1
  Se  Se150  1  0.89591501  0.89483770  0.55838259  1
  Se  Se151  1  0.09027933  0.25492182  0.44661473  1
  Se  Se152  1  0.08414004  0.24465637  0.94518723  1
  Se  Se153  1  0.08870701  0.58579295  0.45131667  1
  Se  Se154  1  0.09229700  0.57267530  0.94637551  1
  Se  Se155  1  0.08838716  0.92703478  0.45063800  1
  Se  Se156  1  0.08200931  0.91240477  0.94551597  1
  Se  Se157  1  0.41310986  0.24877849  0.44385451  1
  Se  Se158  1  0.42021073  0.24934229  0.95271306  1
  Se  Se159  1  0.41168436  0.58637777  0.43830482  1
  Se  Se160  1  0.41130596  0.58788776  0.93631402  1
  Se  Se161  1  0.41608817  0.91624018  0.44368049  1
  Se  Se162  1  0.42201772  0.91688634  0.94967503  1
  Se  Se163  1  0.74675099  0.24620207  0.43790864  1
  Se  Se164  1  0.74076515  0.26568749  0.95009451  1
  Se  Se165  1  0.74452939  0.58284330  0.43643982  1
  Se  Se166  1  0.73841498  0.59769146  0.95109655  1
  Se  Se167  1  0.74891452  0.90989998  0.44672209  1
  Se  Se168  1  0.74247951  0.92370189  0.94159449  1
  Se  Se169  1  0.25236164  0.09064798  0.44340123  1
  Se  Se170  1  0.25235560  0.07554938  0.95326883  1
  Se  Se171  1  0.25269244  0.42602154  0.44137878  1
  Se  Se172  1  0.25231735  0.41083715  0.95177991  1
  Se  Se173  1  0.24566153  0.76133054  0.44476314  1
  Se  Se174  1  0.25624776  0.74573781  0.95043687  1
  Se  Se175  1  0.58360742  0.08231980  0.44775996  1
  Se  Se176  1  0.57989841  0.08643952  0.94706483  1
  Se  Se177  1  0.57894753  0.40853477  0.43983816  1
  Se  Se178  1  0.59016286  0.41573834  0.94014749  1
  Se  Se179  1  0.57904724  0.74784516  0.44448406  1
  Se  Se180  1  0.57354522  0.75986116  0.95292204  1
  Se  Se181  1  0.92575080  0.06334752  0.44491301  1
  Se  Se182  1  0.91507197  0.08424555  0.94497610  1
  Se  Se183  1  0.92810803  0.40806308  0.44186128  1
  Se  Se184  1  0.92602335  0.41567286  0.93639540  1
  Se  Se185  1  0.91802923  0.75156516  0.45311279  1
  Se  Se186  1  0.92598561  0.74354600  0.94085002  1
  Se  Se187  1  0.25516743  0.25427832  0.29588733  1
  Se  Se188  1  0.24681443  0.23853384  0.81234352  1
  Se  Se189  1  0.24330120  0.58856815  0.30234777  1
  Se  Se190  1  0.25296276  0.57726915  0.80965886  1
  Se  Se191  1  0.25823847  0.93795068  0.29706346  1
  Se  Se192  1  0.24053491  0.90489670  0.81184137  1
  Se  Se193  1  0.57575600  0.24286483  0.31255480  1
  Se  Se194  1  0.57757059  0.24409137  0.81220266  1
  Se  Se195  1  0.56422598  0.58538893  0.29603304  1
  Se  Se196  1  0.58385561  0.58819952  0.79876308  1
  Se  Se197  1  0.58858502  0.92197423  0.30536961  1
  Se  Se198  1  0.58415030  0.91948783  0.80147901  1
  Se  Se199  1  0.91753225  0.23857535  0.31029447  1
  Se  Se200  1  0.91855642  0.24697777  0.80233267  1
  Se  Se201  1  0.90460423  0.57954662  0.31136601  1
  Se  Se202  1  0.92293573  0.59075717  0.79961247  1
  Se  Se203  1  0.91617426  0.90400940  0.31475922  1
  Se  Se204  1  0.91729024  0.91844599  0.80028206  1
  Se  Se205  1  0.09445519  0.09466831  0.30856101  1
  Se  Se206  1  0.08335519  0.07749304  0.80657356  1
  Se  Se207  1  0.08498193  0.42058755  0.31255544  1
  Se  Se208  1  0.09178379  0.41331850  0.80322759  1
  Se  Se209  1  0.09510307  0.76477774  0.31042700  1
  Se  Se210  1  0.07948906  0.73464760  0.80645847  1
  Se  Se211  1  0.41849350  0.08074137  0.30706466  1
  Se  Se212  1  0.41755727  0.08739004  0.81158432  1
  Se  Se213  1  0.40289973  0.41125043  0.29437911  1
  Se  Se214  1  0.43042998  0.42675465  0.79986058  1
  Se  Se215  1  0.40888131  0.75892897  0.30562814  1
  Se  Se216  1  0.41908556  0.75568716  0.80766603  1
  Se  Se217  1  0.75637389  0.07833906  0.29901641  1
  Se  Se218  1  0.74580807  0.08312760  0.80732841  1
  Se  Se219  1  0.74066731  0.42009187  0.31512853  1
  Se  Se220  1  0.76181142  0.42772223  0.81210302  1
  Se  Se221  1  0.74583366  0.74892244  0.30520116  1
  Se  Se222  1  0.75655332  0.75650197  0.81450051  1
  Se  Se223  1  0.25746468  0.05672714  0.20388809  1
  Se  Se224  1  0.23659909  0.08758072  0.68697306  1
  Se  Se225  1  0.23973370  0.41557937  0.19612344  1
  Se  Se226  1  0.25352855  0.42730453  0.68724951  1
  Se  Se227  1  0.25458984  0.73900998  0.19773266  1
  Se  Se228  1  0.23697237  0.76588395  0.69380100  1
  Se  Se229  1  0.58901560  0.08515925  0.19599033  1
  Se  Se230  1  0.58735127  0.07372619  0.69846148  1
  Se  Se231  1  0.56906517  0.41726535  0.19211355  1
  Se  Se232  1  0.58747040  0.41556072  0.68559203  1
  Se  Se233  1  0.58544208  0.75355499  0.20393598  1
  Se  Se234  1  0.57256074  0.75781499  0.68575630  1
  Se  Se235  1  0.92211398  0.08383194  0.18935118  1
  Se  Se236  1  0.91574581  0.08174235  0.69661571  1
  Se  Se237  1  0.89784201  0.42587048  0.19643455  1
  Se  Se238  1  0.92529885  0.41143891  0.70188842  1
  Se  Se239  1  0.90970579  0.75696096  0.19207516  1
  Se  Se240  1  0.91672479  0.74806189  0.69734580  1
  Se  Se241  1  0.09090243  0.23594375  0.19255272  1
  Se  Se242  1  0.08353152  0.25523222  0.69940167  1
  Se  Se243  1  0.08009919  0.57893546  0.18995666  1
  Se  Se244  1  0.08809956  0.58690461  0.69661004  1
  Se  Se245  1  0.09072417  0.90137204  0.19297956  1
  Se  Se246  1  0.08352234  0.92992494  0.68592092  1
  Se  Se247  1  0.41202813  0.24234228  0.19843440  1
  Se  Se248  1  0.42509492  0.23815702  0.69146619  1
  Se  Se249  1  0.42500009  0.57373488  0.20759977  1
  Se  Se250  1  0.43253406  0.58950701  0.67917030  1
  Se  Se251  1  0.42017239  0.91458255  0.19571016  1
  Se  Se252  1  0.41430712  0.91400185  0.68871109  1
  Se  Se253  1  0.75768161  0.24069954  0.18691945  1
  Se  Se254  1  0.75670648  0.23882169  0.68726132  1
  Se  Se255  1  0.73743403  0.59206200  0.20233269  1
  Se  Se256  1  0.76627796  0.57700110  0.68343539  1
  Se  Se257  1  0.74869543  0.91988823  0.20136667  1
  Se  Se258  1  0.74366474  0.91089277  0.69562769  1
