# generated using pymatgen
data_In86Cu29Se144
_symmetry_space_group_name_H-M   'P 1'
_cell_length_a   17.58013977
_cell_length_b   17.57791590
_cell_length_c   23.43337352
_cell_angle_alpha   90.00020281
_cell_angle_beta   89.95608958
_cell_angle_gamma   90.00465729
_symmetry_Int_Tables_number   1
_chemical_formula_structural   In86Cu29Se144
_chemical_formula_sum   'In86 Cu29 Se144'
_cell_volume   7241.43091795
_cell_formula_units_Z   1
loop_
 _symmetry_equiv_pos_site_id
 _symmetry_equiv_pos_as_xyz
  1  'x, y, z'
loop_
 _atom_site_type_symbol
 _atom_site_label
 _atom_site_symmetry_multiplicity
 _atom_site_fract_x
 _atom_site_fract_y
 _atom_site_fract_z
 _atom_site_occupancy
  In  In0  1  0.01086882  0.14709778  0.12833066  1
  In  In1  1  0.01679812  0.17010234  0.62647290  1
  In  In2  1  0.00619864  0.51991676  0.10446219  1
  In  In3  1  -0.00818886  0.49523240  0.62359199  1
  In  In4  1  0.01387254  0.84841732  0.09875715  1
  In  In5  1  -0.01399122  0.84266214  0.62428449  1
  In  In6  1  0.33246686  0.16931879  0.12159528  1
  In  In7  1  0.32480358  0.15460444  0.61761719  1
  In  In8  1  0.32768131  0.51043081  0.12859101  1
  In  In9  1  0.33532597  0.51363696  0.62672824  1
  In  In10  1  0.33387182  0.83168756  0.12270180  1
  In  In11  1  0.33727708  0.83082990  0.63529867  1
  In  In12  1  0.65873268  0.17348548  0.11823033  1
  In  In13  1  0.65678401  0.17210076  0.63017137  1
  In  In14  1  0.68515601  0.51221885  0.11723037  1
  In  In15  1  0.66854639  0.50128798  0.63177015  1
  In  In16  1  0.65131489  0.81271757  0.10166066  1
  In  In17  1  0.67614279  0.82486570  0.63363340  1
  In  In18  1  0.17023678  0.02632736  0.36588814  1
  In  In19  1  0.17349737  -0.01389478  0.88815029  1
  In  In20  1  0.17879347  0.32794378  0.38053788  1
  In  In21  1  0.15279951  0.34182037  0.88263940  1
  In  In22  1  0.16937770  0.65267792  0.37314360  1
  In  In23  1  0.16700696  0.66367674  0.88468210  1
  In  In24  1  0.50343415  0.00020814  0.38041236  1
  In  In25  1  0.49957967  -0.00218498  0.87505672  1
  In  In26  1  0.48306029  0.33200193  0.37515707  1
  In  In27  1  0.49952229  0.31902992  0.87409727  1
  In  In28  1  0.50335376  0.67306761  0.36070405  1
  In  In29  1  0.51459973  0.68364581  0.87101032  1
  In  In30  1  0.83270905  -0.01425925  0.37302470  1
  In  In31  1  0.82368389  -0.00082369  0.87292177  1
  In  In32  1  0.84510612  0.34456137  0.37703449  1
  In  In33  1  0.83819890  0.34127380  0.86535783  1
  In  In34  1  0.82401132  0.67115376  0.38711056  1
  In  In35  1  0.81683589  0.68600808  0.90351825  1
  In  In36  1  0.02937467  0.16748067  0.36924481  1
  In  In37  1  -0.00421871  0.17845598  0.87409009  1
  In  In38  1  0.00238101  0.49933828  0.38478670  1
  In  In39  1  -0.00052686  0.49924339  0.88300390  1
  In  In40  1  -0.01020661  0.83194063  0.37016417  1
  In  In41  1  -0.00488270  0.83511878  0.89730689  1
  In  In42  1  0.31192525  0.17638935  0.39044801  1
  In  In43  1  0.34292441  0.15496933  0.88067913  1
  In  In44  1  0.33444925  0.49088352  0.36799743  1
  In  In45  1  0.31628456  0.50452469  0.87757727  1
  In  In46  1  0.34277071  0.82894532  0.36985367  1
  In  In47  1  0.33535076  0.83496294  0.87644302  1
  In  In48  1  0.66070806  0.15422715  0.38132537  1
  In  In49  1  0.66068861  0.15440449  0.86420322  1
  In  In50  1  0.66778566  0.51352417  0.37646735  1
  In  In51  1  0.67995751  0.51601632  0.86515074  1
  In  In52  1  0.67275694  0.82973824  0.37451856  1
  In  In53  1  0.66035780  0.83181022  0.87935311  1
  In  In54  1  0.16437215  -0.00228171  0.11515363  1
  In  In55  1  0.16810701  0.01146771  0.62483504  1
  In  In56  1  0.17225328  0.33951078  0.12164644  1
  In  In57  1  0.16127735  0.32984499  0.62585092  1
  In  In58  1  0.17135889  0.67818869  0.11206808  1
  In  In59  1  0.18018013  0.66515494  0.62678442  1
  In  In60  1  0.49511681  -0.00335541  0.11953383  1
  In  In61  1  0.49063636  0.00858425  0.63206558  1
  In  In62  1  0.49677033  0.32001415  0.12211938  1
  In  In63  1  0.51182781  0.32969668  0.62778218  1
  In  In64  1  0.49892405  0.67725951  0.13230016  1
  In  In65  1  0.50199889  0.66687242  0.63558787  1
  In  In66  1  0.84693108  -0.01379847  0.12179724  1
  In  In67  1  0.83276839  -0.01775888  0.62447808  1
  In  In68  1  0.83641014  0.34797250  0.12203229  1
  In  In69  1  0.82497503  0.34572099  0.63378573  1
  In  In70  1  0.82990557  0.66953937  0.11637296  1
  In  In71  1  0.82150604  0.66257245  0.61554684  1
  In  In72  1  0.33253619  0.33279376  0.75327589  1
  In  In73  1  0.83315448  0.16413334  -0.00178862  1
  In  In74  1  0.83549090  0.16877868  0.49905378  1
  In  In75  1  0.50138159  0.50265600  -0.00174470  1
  In  In76  1  0.66158525  0.33688092  0.24244813  1
  In  In77  1  0.66630303  -0.01020762  0.25118490  1
  In  In78  1  0.50122970  0.49863314  0.50482777  1
  In  In79  1  0.16122088  0.83724992  0.50325337  1
  In  In80  1  -0.00095182  0.66554698  0.76427746  1
  In  In81  1  0.33442306  -0.00513976  0.24646102  1
  In  In82  1  0.00117979  0.00493019  0.75208080  1
  In  In83  1  0.50248423  0.83392421  0.49540855  1
  In  In84  1  0.00381031  0.33278308  0.24381101  1
  In  In85  1  -0.00099397  0.66763646  0.24242549  1
  Cu  Cu86  1  0.16540172  0.83417445  0.23918874  1
  Cu  Cu87  1  0.33389277  0.66095169  0.49827650  1
  Cu  Cu88  1  0.83222652  0.17072893  0.74812579  1
  Cu  Cu89  1  0.66198941  0.32879305  -0.00723176  1
  Cu  Cu90  1  0.33610808  -0.00055063  0.00072944  1
  Cu  Cu91  1  0.66327871  0.00070189  -0.00749864  1
  Cu  Cu92  1  0.50363500  0.83833070  0.75364811  1
  Cu  Cu93  1  0.33601773  0.67185662  0.00001414  1
  Cu  Cu94  1  0.49220277  0.16572146  0.25055423  1
  Cu  Cu95  1  -0.00052845  0.00204968  0.49702019  1
  Cu  Cu96  1  0.83324441  0.51256331  0.24814970  1
  Cu  Cu97  1  0.66153682  -0.00179719  0.50397610  1
  Cu  Cu98  1  0.50097900  0.50227383  0.24710958  1
  Cu  Cu99  1  0.00065810  0.32852007  0.00010694  1
  Cu  Cu100  1  0.32790317  0.33136634  -0.00361509  1
  Cu  Cu101  1  0.83260134  0.82881714  0.24646303  1
  Cu  Cu102  1  0.16274566  0.50470049  0.75880971  1
  Cu  Cu103  1  0.17335927  0.49574823  0.24841996  1
  Cu  Cu104  1  0.17206016  0.16768065  0.75156274  1
  Cu  Cu105  1  0.00238859  0.33761528  0.50269690  1
  Cu  Cu106  1  0.83484240  0.50427952  0.75119511  1
  Cu  Cu107  1  0.00034575  0.66621515  0.49776657  1
  Cu  Cu108  1  0.82975027  0.82574008  0.75605725  1
  Cu  Cu109  1  0.84006237  0.16573240  0.24605688  1
  Cu  Cu110  1  0.32699373  0.33112455  0.49984778  1
  Cu  Cu111  1  0.66765240  0.33631855  0.50719443  1
  Cu  Cu112  1  0.49780886  0.50422066  0.74985477  1
  Cu  Cu113  1  0.17292988  0.83607402  0.75586339  1
  Cu  Cu114  1  0.50121100  0.16163404  0.75183760  1
  Se  Se115  1  0.08378846  0.08360002  0.04734070  1
  Se  Se116  1  0.08256951  0.08302525  0.55168126  1
  Se  Se117  1  0.08267400  0.41471128  0.05256474  1
  Se  Se118  1  0.08574490  0.41982300  0.55784865  1
  Se  Se119  1  0.05443114  0.72041061  0.05284603  1
  Se  Se120  1  0.07427655  0.74349736  0.56527671  1
  Se  Se121  1  0.41729823  0.08620174  0.05427850  1
  Se  Se122  1  0.42391946  0.08708887  0.55425151  1
  Se  Se123  1  0.40945495  0.41197788  0.05758338  1
  Se  Se124  1  0.40805770  0.40699435  0.56355321  1
  Se  Se125  1  0.42059619  0.75094397  0.05500102  1
  Se  Se126  1  0.41247955  0.74216411  0.55846193  1
  Se  Se127  1  0.74216835  0.07440614  0.06005500  1
  Se  Se128  1  0.74699162  0.07861989  0.56106282  1
  Se  Se129  1  0.74267287  0.40821659  0.05026217  1
  Se  Se130  1  0.74860314  0.42172324  0.55785496  1
  Se  Se131  1  0.76844126  0.76655405  0.04627776  1
  Se  Se132  1  0.75726144  0.76535381  0.55356460  1
  Se  Se133  1  0.24647540  0.24875450  0.05260789  1
  Se  Se134  1  0.24453387  0.24907210  0.55655066  1
  Se  Se135  1  0.25312981  0.58427192  0.05062062  1
  Se  Se136  1  0.24885796  0.57986946  0.55146062  1
  Se  Se137  1  0.25329587  0.91313488  0.05262229  1
  Se  Se138  1  0.25756827  0.91849940  0.56313947  1
  Se  Se139  1  0.57714003  0.24762491  0.04561260  1
  Se  Se140  1  0.58271811  0.24813452  0.55196460  1
  Se  Se141  1  0.58697985  0.59386098  0.05831580  1
  Se  Se142  1  0.58901303  0.59350711  0.56037989  1
  Se  Se143  1  0.57891616  0.92018572  0.04838047  1
  Se  Se144  1  0.58469622  0.91734987  0.56599435  1
  Se  Se145  1  0.92188331  0.25079661  0.06368010  1
  Se  Se146  1  0.92118348  0.25715935  0.56357393  1
  Se  Se147  1  0.88181084  0.55599354  0.05591868  1
  Se  Se148  1  0.91785945  0.58471903  0.55493480  1
  Se  Se149  1  0.91096341  0.91665738  0.03878881  1
  Se  Se150  1  0.91393931  0.91674061  0.54541313  1
  Se  Se151  1  0.08445569  0.25399463  0.44800251  1
  Se  Se152  1  0.08363054  0.24386140  0.94867890  1
  Se  Se153  1  0.08854240  0.58361704  0.44964726  1
  Se  Se154  1  0.08755634  0.57575116  0.94971538  1
  Se  Se155  1  0.07912090  0.92253863  0.43475289  1
  Se  Se156  1  0.08314813  0.91783839  0.95839026  1
  Se  Se157  1  0.41523283  0.24859382  0.45006310  1
  Se  Se158  1  0.41624156  0.24881840  0.94806194  1
  Se  Se159  1  0.41809135  0.58651124  0.43717375  1
  Se  Se160  1  0.41254677  0.59174593  0.93648202  1
  Se  Se161  1  0.40292683  0.92378270  0.44477851  1
  Se  Se162  1  0.41932562  0.91593439  0.94642140  1
  Se  Se163  1  0.74346842  0.25979773  0.43863859  1
  Se  Se164  1  0.74595916  0.25037934  0.93308208  1
  Se  Se165  1  0.75687599  0.57130581  0.45056400  1
  Se  Se166  1  0.74241763  0.57736157  0.95254860  1
  Se  Se167  1  0.74356861  0.91923214  0.44583576  1
  Se  Se168  1  0.74996286  0.91610829  0.94492834  1
  Se  Se169  1  0.24627306  0.07377235  0.45143428  1
  Se  Se170  1  0.25120229  0.08341154  0.94929837  1
  Se  Se171  1  0.25296188  0.42238609  0.44583713  1
  Se  Se172  1  0.24428175  0.41906333  0.94892831  1
  Se  Se173  1  0.25373975  0.74643818  0.44203758  1
  Se  Se174  1  0.25003060  0.75465209  0.94710333  1
  Se  Se175  1  0.57701607  0.08330396  0.45448028  1
  Se  Se176  1  0.58096432  0.08773115  0.94271318  1
  Se  Se177  1  0.58730101  0.40871946  0.43887328  1
  Se  Se178  1  0.58741909  0.41479127  0.93307317  1
  Se  Se179  1  0.59011514  0.73651374  0.44171883  1
  Se  Se180  1  0.58359671  0.75065774  0.95270555  1
  Se  Se181  1  0.92201436  0.08271177  0.43358125  1
  Se  Se182  1  0.92239637  0.07584668  0.93743429  1
  Se  Se183  1  0.91512572  0.42144585  0.45405795  1
  Se  Se184  1  0.91453145  0.40785587  0.94572896  1
  Se  Se185  1  0.91933765  0.75282467  0.44665732  1
  Se  Se186  1  0.94466261  0.71870277  0.95262057  1
  Se  Se187  1  0.24579886  0.24218077  0.30688977  1
  Se  Se188  1  0.24543526  0.24731155  0.81760804  1
  Se  Se189  1  0.25514864  0.58160334  0.30130949  1
  Se  Se190  1  0.24644220  0.59230473  0.80543760  1
  Se  Se191  1  0.23892914  0.90933865  0.30908831  1
  Se  Se192  1  0.25341035  0.92276236  0.80783628  1
  Se  Se193  1  0.58054077  0.24261545  0.30866825  1
  Se  Se194  1  0.58429939  0.25027597  0.79967464  1
  Se  Se195  1  0.58809039  0.58203999  0.29962999  1
  Se  Se196  1  0.58240242  0.58822420  0.80190342  1
  Se  Se197  1  0.57076906  0.90374208  0.30975684  1
  Se  Se198  1  0.58887359  0.91970122  0.80678236  1
  Se  Se199  1  0.91440949  0.24450769  0.30984503  1
  Se  Se200  1  0.91888615  0.25256259  0.79829846  1
  Se  Se201  1  0.91656576  0.58256226  0.31274131  1
  Se  Se202  1  0.90126453  0.58297282  0.82085164  1
  Se  Se203  1  0.91510380  0.91551876  0.29745328  1
  Se  Se204  1  0.91782070  0.90537405  0.81146216  1
  Se  Se205  1  0.06913981  0.06991065  0.29393287  1
  Se  Se206  1  0.09290361  0.08744332  0.81449168  1
  Se  Se207  1  0.08888741  0.42169145  0.30967390  1
  Se  Se208  1  0.07732895  0.41987755  0.80707188  1
  Se  Se209  1  0.09216404  0.75350301  0.30632539  1
  Se  Se210  1  0.08744230  0.76463670  0.81704740  1
  Se  Se211  1  0.41732809  0.08496832  0.31267124  1
  Se  Se212  1  0.41583500  0.07911983  0.80344503  1
  Se  Se213  1  0.41983799  0.41328027  0.29697503  1
  Se  Se214  1  0.42035470  0.42528066  0.81356545  1
  Se  Se215  1  0.40853668  0.74410880  0.29692965  1
  Se  Se216  1  0.41790819  0.75366845  0.80505991  1
  Se  Se217  1  0.75617298  0.08990552  0.30701943  1
  Se  Se218  1  0.75347761  0.08003825  0.79737595  1
  Se  Se219  1  0.75726219  0.42172870  0.30336858  1
  Se  Se220  1  0.74633887  0.41685150  0.79910186  1
  Se  Se221  1  0.75607716  0.74730382  0.30626552  1
  Se  Se222  1  0.75089845  0.74578763  0.81512298  1
  Se  Se223  1  0.24377074  0.08382491  0.18914329  1
  Se  Se224  1  0.25241328  0.08228065  0.69889063  1
  Se  Se225  1  0.25643464  0.41328639  0.19473223  1
  Se  Se226  1  0.24397944  0.42689127  0.69473921  1
  Se  Se227  1  0.24923866  0.74812652  0.19069439  1
  Se  Se228  1  0.25025983  0.74870484  0.70105100  1
  Se  Se229  1  0.57839859  0.08849790  0.19281332  1
  Se  Se230  1  0.58702336  0.07889069  0.69882666  1
  Se  Se231  1  0.57774575  0.42766060  0.17935462  1
  Se  Se232  1  0.58072423  0.41925682  0.69790958  1
  Se  Se233  1  0.59805799  0.75163873  0.19272411  1
  Se  Se234  1  0.58567966  0.75053708  0.70158288  1
  Se  Se235  1  0.91523659  0.07607546  0.19376694  1
  Se  Se236  1  0.91122608  0.08960237  0.68585363  1
  Se  Se237  1  0.91905135  0.43470327  0.19061205  1
  Se  Se238  1  0.91904622  0.41842398  0.70107776  1
  Se  Se239  1  0.91813419  0.76120673  0.18128687  1
  Se  Se240  1  0.91279673  0.75003444  0.69467317  1
  Se  Se241  1  0.09591728  0.24125519  0.19087766  1
  Se  Se242  1  0.08599028  0.25214468  0.70255561  1
  Se  Se243  1  0.09411603  0.57688024  0.18741150  1
  Se  Se244  1  0.08505713  0.58261842  0.69347422  1
  Se  Se245  1  0.08189458  0.91279029  0.18428533  1
  Se  Se246  1  0.08993528  0.90991160  0.69220654  1
  Se  Se247  1  0.41235736  0.24966398  0.19596762  1
  Se  Se248  1  0.41898969  0.24238867  0.69096407  1
  Se  Se249  1  0.41681711  0.58707459  0.19573185  1
  Se  Se250  1  0.41133108  0.58906064  0.70191219  1
  Se  Se251  1  0.43065046  0.90435796  0.19411139  1
  Se  Se252  1  0.41639207  0.91867303  0.70113118  1
  Se  Se253  1  0.75933949  0.24424716  0.18762008  1
  Se  Se254  1  0.74570406  0.25251277  0.69587168  1
  Se  Se255  1  0.75111452  0.59479517  0.19473356  1
  Se  Se256  1  0.75285050  0.58856136  0.69676043  1
  Se  Se257  1  0.75000347  0.90501025  0.18471842  1
  Se  Se258  1  0.75298361  0.91518656  0.70239748  1
