# generated using pymatgen
data_In86Cu29Se144
_symmetry_space_group_name_H-M   'P 1'
_cell_length_a   17.58909717
_cell_length_b   17.59147966
_cell_length_c   23.45269659
_cell_angle_alpha   90.00209248
_cell_angle_beta   89.99113941
_cell_angle_gamma   89.99236718
_symmetry_Int_Tables_number   1
_chemical_formula_structural   In86Cu29Se144
_chemical_formula_sum   'In86 Cu29 Se144'
_cell_volume   7256.69206537
_cell_formula_units_Z   1
loop_
 _symmetry_equiv_pos_site_id
 _symmetry_equiv_pos_as_xyz
  1  'x, y, z'
loop_
 _atom_site_type_symbol
 _atom_site_label
 _atom_site_symmetry_multiplicity
 _atom_site_fract_x
 _atom_site_fract_y
 _atom_site_fract_z
 _atom_site_occupancy
  In  In0  1  0.00033413  0.17917142  0.13673560  1
  In  In1  1  0.00882056  0.16291643  0.63093329  1
  In  In2  1  -0.00278502  0.50292541  0.12961460  1
  In  In3  1  0.00236071  0.50110644  0.62016729  1
  In  In4  1  0.00193649  0.81134854  0.12542893  1
  In  In5  1  0.00916701  0.82695334  0.63178115  1
  In  In6  1  0.32361661  0.16741146  0.14162025  1
  In  In7  1  0.32209889  0.16672820  0.62236644  1
  In  In8  1  0.32678115  0.50684813  0.13746383  1
  In  In9  1  0.33464399  0.50726896  0.61130960  1
  In  In10  1  0.33556633  0.82905872  0.12557640  1
  In  In11  1  0.32829794  0.83547940  0.62684047  1
  In  In12  1  0.67282164  0.17896454  0.13118537  1
  In  In13  1  0.66332717  0.16850162  0.63765702  1
  In  In14  1  0.67492364  0.49053870  0.13026448  1
  In  In15  1  0.66290805  0.49251697  0.61629229  1
  In  In16  1  0.65175444  0.83722405  0.12379399  1
  In  In17  1  0.67526051  0.83519226  0.63109297  1
  In  In18  1  0.17319610  -0.01876425  0.38640707  1
  In  In19  1  0.15930318  -0.00759436  0.86831186  1
  In  In20  1  0.16922188  0.33673402  0.37457860  1
  In  In21  1  0.15772793  0.34476645  0.87254731  1
  In  In22  1  0.16735862  0.66978001  0.37778452  1
  In  In23  1  0.17529217  0.67743763  0.86491647  1
  In  In24  1  0.49249011  0.01349303  0.37836842  1
  In  In25  1  0.48215124  -0.01032549  0.85688476  1
  In  In26  1  0.50412679  0.34122448  0.37045537  1
  In  In27  1  0.50147916  0.31883347  0.86997161  1
  In  In28  1  0.48585043  0.64895458  0.36729185  1
  In  In29  1  0.49323662  0.67767490  0.87861685  1
  In  In30  1  0.83573085  -0.00348214  0.37857404  1
  In  In31  1  0.83995079  0.00434951  0.86903911  1
  In  In32  1  0.85457127  0.35112548  0.35984158  1
  In  In33  1  0.84104306  0.34694437  0.86930423  1
  In  In34  1  0.82217636  0.65929108  0.36286937  1
  In  In35  1  0.83600761  0.64774630  0.87795449  1
  In  In36  1  0.01115076  0.18377239  0.36767234  1
  In  In37  1  0.00458756  0.17282697  0.86863349  1
  In  In38  1  0.00188257  0.50202200  0.37628187  1
  In  In39  1  -0.00767612  0.49215284  0.86594437  1
  In  In40  1  0.01353137  0.83654884  0.37451281  1
  In  In41  1  0.01450023  0.83942010  0.87113406  1
  In  In42  1  0.31115569  0.15259034  0.35959536  1
  In  In43  1  0.34218681  0.15217986  0.87269760  1
  In  In44  1  0.33495506  0.50570661  0.37827457  1
  In  In45  1  0.32035226  0.51007492  0.87239938  1
  In  In46  1  0.31292982  0.81134165  0.36446377  1
  In  In47  1  0.32758489  0.83036481  0.87493092  1
  In  In48  1  0.65954453  0.17080804  0.37215512  1
  In  In49  1  0.66458381  0.17309234  0.86152280  1
  In  In50  1  0.66704518  0.50005435  0.37525743  1
  In  In51  1  0.68154181  0.50453065  0.87540226  1
  In  In52  1  0.67547172  0.82177215  0.37173349  1
  In  In53  1  0.65176576  0.83047569  0.87884500  1
  In  In54  1  0.18264472  0.00276245  0.12545588  1
  In  In55  1  0.16850523  -0.00042120  0.62682677  1
  In  In56  1  0.15533181  0.34167173  0.14515751  1
  In  In57  1  0.16492281  0.32874695  0.61555689  1
  In  In58  1  0.16522212  0.66963497  0.12948636  1
  In  In59  1  0.16622358  0.66453938  0.62078808  1
  In  In60  1  0.49420650  -0.01626636  0.11950042  1
  In  In61  1  0.49386708  0.00886777  0.64036446  1
  In  In62  1  0.49848169  0.33512801  0.13374937  1
  In  In63  1  0.50051715  0.34676860  0.62445777  1
  In  In64  1  0.49050736  0.67930305  0.13398361  1
  In  In65  1  0.49224459  0.65214121  0.61897671  1
  In  In66  1  0.83011179  -0.00109896  0.12055032  1
  In  In67  1  0.83332533  0.00457593  0.63729325  1
  In  In68  1  0.82737416  0.33690820  0.13315148  1
  In  In69  1  0.82846282  0.34014449  0.62461437  1
  In  In70  1  0.85022669  0.65382711  0.13638945  1
  In  In71  1  0.84760531  0.66524202  0.62316341  1
  In  In72  1  0.66661525  0.66863974  0.75525248  1
  In  In73  1  0.49441135  0.83052290  0.50092649  1
  In  In74  1  0.83965262  0.82849831  0.50227183  1
  In  In75  1  0.33371805  0.32909029  0.74518257  1
  In  In76  1  0.16140469  0.50971483  0.01023889  1
  In  In77  1  0.50264923  0.50453517  -0.00473517  1
  In  In78  1  0.83412082  0.82327236  0.00440809  1
  In  In79  1  0.49258755  0.18021816  0.50307850  1
  In  In80  1  0.66063201  -0.00014788  0.24387384  1
  In  In81  1  0.83937518  0.17331665  0.49111558  1
  In  In82  1  0.83276381  0.16944418  0.00712162  1
  In  In83  1  0.16464225  0.17160832  0.00160899  1
  In  In84  1  -0.00236359  -0.00211820  0.24905445  1
  In  In85  1  0.50138847  0.15894248  -0.00355471  1
  Cu  Cu86  1  0.16497601  0.50307769  0.25863964  1
  Cu  Cu87  1  0.33297562  0.33484944  0.49400451  1
  Cu  Cu88  1  0.83482439  0.49710422  0.25211792  1
  Cu  Cu89  1  0.49408011  0.17100595  0.25266686  1
  Cu  Cu90  1  0.49435678  0.83055855  0.75112364  1
  Cu  Cu91  1  0.66734917  0.00200690  0.51230450  1
  Cu  Cu92  1  0.16134274  0.50445929  0.74428791  1
  Cu  Cu93  1  0.00983606  0.00229478  0.50670626  1
  Cu  Cu94  1  0.50685778  0.50344801  0.25226866  1
  Cu  Cu95  1  0.83456257  0.49819726  0.74642706  1
  Cu  Cu96  1  0.66485629  0.65665819  0.49395013  1
  Cu  Cu97  1  0.67563062  0.33672781  0.00190549  1
  Cu  Cu98  1  0.83851780  0.83526246  0.75328754  1
  Cu  Cu99  1  0.00591664  0.65983638  0.00072372  1
  Cu  Cu100  1  0.83782298  0.17392407  0.75043554  1
  Cu  Cu101  1  0.00210178  0.66334303  0.49848450  1
  Cu  Cu102  1  0.16753962  0.83444166  0.74729961  1
  Cu  Cu103  1  0.33532401  -0.01019708  -0.00031204  1
  Cu  Cu104  1  0.65756713  -0.00601971  -0.00825217  1
  Cu  Cu105  1  0.49712066  0.83736347  0.25052719  1
  Cu  Cu106  1  0.16914403  0.16628474  0.74655212  1
  Cu  Cu107  1  0.32956010  0.33645456  0.00882473  1
  Cu  Cu108  1  0.00997065  -0.00173131  -0.00279184  1
  Cu  Cu109  1  0.67224092  0.34392428  0.49605056  1
  Cu  Cu110  1  0.49757058  0.49920304  0.74462698  1
  Cu  Cu111  1  0.32572203  -0.00627125  0.49833813  1
  Cu  Cu112  1  0.66784135  0.65982119  0.00440014  1
  Cu  Cu113  1  0.16964464  0.83216279  0.25087608  1
  Cu  Cu114  1  0.00477374  0.33655490  0.49587428  1
  Se  Se115  1  0.07595735  0.08157543  0.06416340  1
  Se  Se116  1  0.09084959  0.08914273  0.55722284  1
  Se  Se117  1  0.07758958  0.40770775  0.06142863  1
  Se  Se118  1  0.08662024  0.41966187  0.55060690  1
  Se  Se119  1  0.08839401  0.74527451  0.05137272  1
  Se  Se120  1  0.07932106  0.75031571  0.55380155  1
  Se  Se121  1  0.40417893  0.08184444  0.06015005  1
  Se  Se122  1  0.41147749  0.07316420  0.55582855  1
  Se  Se123  1  0.41292265  0.41870810  0.06209901  1
  Se  Se124  1  0.41755290  0.41400316  0.54964220  1
  Se  Se125  1  0.42825680  0.75991213  0.05578246  1
  Se  Se126  1  0.40268652  0.73954821  0.55591934  1
  Se  Se127  1  0.73029575  0.07575392  0.05531375  1
  Se  Se128  1  0.75299512  0.08710111  0.56074189  1
  Se  Se129  1  0.75756337  0.41781225  0.05546124  1
  Se  Se130  1  0.75899186  0.42350807  0.54892124  1
  Se  Se131  1  0.74489644  0.73976546  0.06778604  1
  Se  Se132  1  0.73995359  0.73877373  0.55746030  1
  Se  Se133  1  0.24906321  0.25943041  0.06816728  1
  Se  Se134  1  0.25256659  0.24865030  0.54772099  1
  Se  Se135  1  0.26349160  0.59516944  0.05959335  1
  Se  Se136  1  0.23244167  0.57101762  0.55021538  1
  Se  Se137  1  0.25035291  0.91223170  0.05544100  1
  Se  Se138  1  0.24556893  0.91351898  0.55562779  1
  Se  Se139  1  0.58699815  0.25746022  0.05594173  1
  Se  Se140  1  0.59734901  0.25970697  0.55815138  1
  Se  Se141  1  0.58588724  0.58405546  0.06639922  1
  Se  Se142  1  0.58026835  0.57844659  0.55016156  1
  Se  Se143  1  0.57662886  0.91071944  0.04550872  1
  Se  Se144  1  0.58336183  0.92023626  0.56541096  1
  Se  Se145  1  0.92438689  0.26015012  0.06134693  1
  Se  Se146  1  0.92625000  0.25562376  0.55853368  1
  Se  Se147  1  0.91918601  0.58179679  0.05470354  1
  Se  Se148  1  0.91553053  0.58092540  0.54917576  1
  Se  Se149  1  0.92793736  0.91990272  0.05764913  1
  Se  Se150  1  0.92049071  0.92579838  0.56330289  1
  Se  Se151  1  0.08867402  0.25093056  0.44612428  1
  Se  Se152  1  0.07325473  0.26323897  0.94493520  1
  Se  Se153  1  0.08654153  0.58154353  0.44539515  1
  Se  Se154  1  0.08203001  0.58539097  0.93309347  1
  Se  Se155  1  0.08317127  0.90800809  0.45581910  1
  Se  Se156  1  0.09271447  0.91303917  0.94791730  1
  Se  Se157  1  0.40655399  0.25188576  0.43068308  1
  Se  Se158  1  0.40430191  0.25601265  0.94526533  1
  Se  Se159  1  0.41886922  0.58356721  0.44977266  1
  Se  Se160  1  0.40250676  0.59231289  0.94504020  1
  Se  Se161  1  0.40777908  0.91833539  0.43694559  1
  Se  Se162  1  0.41816321  0.91570152  0.93938698  1
  Se  Se163  1  0.74664242  0.26184103  0.43407529  1
  Se  Se164  1  0.74697737  0.25251314  0.93869569  1
  Se  Se165  1  0.75618298  0.58117741  0.44265620  1
  Se  Se166  1  0.75389045  0.57815078  0.95401869  1
  Se  Se167  1  0.73994709  0.92076066  0.44822685  1
  Se  Se168  1  0.75161375  0.91898060  0.94028730  1
  Se  Se169  1  0.24822507  0.08383243  0.44580855  1
  Se  Se170  1  0.25403143  0.07623146  0.94384537  1
  Se  Se171  1  0.24886335  0.42067102  0.44456827  1
  Se  Se172  1  0.25202831  0.41447144  0.94642449  1
  Se  Se173  1  0.24364593  0.75514831  0.44915613  1
  Se  Se174  1  0.24410991  0.74965296  0.94379462  1
  Se  Se175  1  0.58954694  0.08206529  0.45092442  1
  Se  Se176  1  0.58537269  0.07533271  0.92881580  1
  Se  Se177  1  0.58044358  0.42024466  0.44512628  1
  Se  Se178  1  0.58967626  0.40687936  0.93866224  1
  Se  Se179  1  0.58554556  0.74306213  0.43922948  1
  Se  Se180  1  0.58473392  0.74244069  0.95131836  1
  Se  Se181  1  0.93303816  0.07642031  0.44027539  1
  Se  Se182  1  0.92650458  0.08179281  0.94425837  1
  Se  Se183  1  0.91709081  0.41782979  0.44530417  1
  Se  Se184  1  0.91324832  0.42565753  0.94406280  1
  Se  Se185  1  0.92187754  0.74234796  0.43607830  1
  Se  Se186  1  0.92631157  0.74239632  0.93913598  1
  Se  Se187  1  0.25218321  0.26054777  0.30190342  1
  Se  Se188  1  0.24467569  0.24444775  0.81359735  1
  Se  Se189  1  0.25070619  0.58738110  0.30810434  1
  Se  Se190  1  0.24915682  0.58567109  0.79536358  1
  Se  Se191  1  0.25056148  0.91868217  0.30363449  1
  Se  Se192  1  0.25122654  0.91652828  0.80306655  1
  Se  Se193  1  0.58234022  0.25215324  0.30148950  1
  Se  Se194  1  0.58245362  0.25514667  0.79405125  1
  Se  Se195  1  0.59105258  0.58785025  0.30431745  1
  Se  Se196  1  0.57331434  0.57612561  0.81232052  1
  Se  Se197  1  0.57639808  0.91509807  0.31457396  1
  Se  Se198  1  0.58478538  0.91033867  0.80165342  1
  Se  Se199  1  0.90474449  0.23497875  0.30477770  1
  Se  Se200  1  0.92053360  0.25733212  0.80367117  1
  Se  Se201  1  0.91981981  0.58149335  0.30345423  1
  Se  Se202  1  0.91612178  0.58470708  0.79853024  1
  Se  Se203  1  0.90803060  0.90553548  0.30875936  1
  Se  Se204  1  0.92383023  0.91846079  0.80526047  1
  Se  Se205  1  0.08806625  0.07309883  0.31670180  1
  Se  Se206  1  0.08460774  0.08572508  0.80294790  1
  Se  Se207  1  0.07970683  0.41578100  0.30608835  1
  Se  Se208  1  0.08121959  0.41630824  0.79597354  1
  Se  Se209  1  0.08494973  0.74942011  0.30350106  1
  Se  Se210  1  0.08103207  0.74962791  0.79811541  1
  Se  Se211  1  0.41438254  0.07987583  0.30017731  1
  Se  Se212  1  0.42518947  0.09613093  0.79470745  1
  Se  Se213  1  0.41809579  0.42501663  0.30579813  1
  Se  Se214  1  0.41798176  0.42282893  0.81059622  1
  Se  Se215  1  0.41759956  0.74854705  0.30264123  1
  Se  Se216  1  0.41138966  0.74679417  0.80371267  1
  Se  Se217  1  0.75173360  0.08231759  0.31035344  1
  Se  Se218  1  0.75612495  0.08708647  0.80300213  1
  Se  Se219  1  0.74582018  0.41605470  0.30335185  1
  Se  Se220  1  0.74753233  0.41910968  0.80063023  1
  Se  Se221  1  0.75408875  0.75517023  0.29618493  1
  Se  Se222  1  0.75932373  0.75645226  0.81664304  1
  Se  Se223  1  0.24359062  0.08039612  0.20520988  1
  Se  Se224  1  0.25374536  0.08200200  0.69665092  1
  Se  Se225  1  0.25060742  0.41994407  0.20542034  1
  Se  Se226  1  0.24608696  0.42186408  0.68697198  1
  Se  Se227  1  0.25323530  0.74855723  0.19698449  1
  Se  Se228  1  0.24645006  0.74811085  0.69255982  1
  Se  Se229  1  0.56864976  0.09190732  0.18455879  1
  Se  Se230  1  0.60017332  0.06752934  0.69980002  1
  Se  Se231  1  0.58607943  0.41486154  0.19905027  1
  Se  Se232  1  0.58728183  0.41997391  0.69549954  1
  Se  Se233  1  0.58412252  0.75469936  0.20028345  1
  Se  Se234  1  0.57384421  0.75006317  0.68893886  1
  Se  Se235  1  0.90230032  0.08842288  0.19185763  1
  Se  Se236  1  0.92153531  0.08694265  0.70045303  1
  Se  Se237  1  0.91999563  0.41472577  0.19824630  1
  Se  Se238  1  0.91883006  0.41819623  0.69062725  1
  Se  Se239  1  0.91738626  0.75186368  0.20129249  1
  Se  Se240  1  0.91540157  0.75050141  0.69698366  1
  Se  Se241  1  0.09744213  0.23401859  0.20623101  1
  Se  Se242  1  0.08994651  0.25468336  0.69453603  1
  Se  Se243  1  0.08566930  0.58206552  0.19624538  1
  Se  Se244  1  0.07762513  0.58792783  0.69151275  1
  Se  Se245  1  0.08878353  0.90908403  0.18742437  1
  Se  Se246  1  0.08268781  0.92093572  0.69718338  1
  Se  Se247  1  0.41137215  0.25650923  0.20061369  1
  Se  Se248  1  0.42560576  0.24219087  0.68469361  1
  Se  Se249  1  0.41910818  0.58526227  0.20060130  1
  Se  Se250  1  0.41079857  0.57808328  0.69260539  1
  Se  Se251  1  0.41275415  0.91866122  0.19660820  1
  Se  Se252  1  0.41107874  0.91492073  0.69823141  1
  Se  Se253  1  0.75360228  0.24921450  0.20343636  1
  Se  Se254  1  0.75328626  0.25513784  0.69613026  1
  Se  Se255  1  0.75134420  0.58032830  0.19808144  1
  Se  Se256  1  0.75145652  0.58188718  0.68880813  1
  Se  Se257  1  0.75592428  0.90836246  0.18967187  1
  Se  Se258  1  0.75113411  0.91655787  0.70250490  1
