# generated using pymatgen
data_In86Cu29Se144
_symmetry_space_group_name_H-M   'P 1'
_cell_length_a   17.57778676
_cell_length_b   17.57426821
_cell_length_c   23.43633927
_cell_angle_alpha   89.99645981
_cell_angle_beta   89.99816671
_cell_angle_gamma   89.99193561
_symmetry_Int_Tables_number   1
_chemical_formula_structural   In86Cu29Se144
_chemical_formula_sum   'In86 Cu29 Se144'
_cell_volume   7239.87741636
_cell_formula_units_Z   1
loop_
 _symmetry_equiv_pos_site_id
 _symmetry_equiv_pos_as_xyz
  1  'x, y, z'
loop_
 _atom_site_type_symbol
 _atom_site_label
 _atom_site_symmetry_multiplicity
 _atom_site_fract_x
 _atom_site_fract_y
 _atom_site_fract_z
 _atom_site_occupancy
  In  In0  1  0.01500669  0.17424112  0.11809487  1
  In  In1  1  -0.00903559  0.15832447  0.62012342  1
  In  In2  1  0.00956967  0.49209345  0.12948641  1
  In  In3  1  -0.00144407  0.51558397  0.63080928  1
  In  In4  1  -0.01297749  0.81701201  0.10812462  1
  In  In5  1  -0.00920802  0.84106100  0.63052345  1
  In  In6  1  0.33223373  0.18340670  0.12689217  1
  In  In7  1  0.32493568  0.17594472  0.63047491  1
  In  In8  1  0.32505670  0.50515542  0.11525968  1
  In  In9  1  0.33091630  0.49349181  0.63160447  1
  In  In10  1  0.31587655  0.82800144  0.11726152  1
  In  In11  1  0.34799842  0.83231746  0.62611238  1
  In  In12  1  0.64196646  0.16916424  0.13451245  1
  In  In13  1  0.67593872  0.16383659  0.62453135  1
  In  In14  1  0.67513474  0.51370815  0.12262133  1
  In  In15  1  0.67189066  0.49061011  0.63297055  1
  In  In16  1  0.66958384  0.82370419  0.13012626  1
  In  In17  1  0.66208098  0.82649349  0.61895471  1
  In  In18  1  0.17858463  0.00893155  0.37773220  1
  In  In19  1  0.16591910  0.00059255  0.87182496  1
  In  In20  1  0.17080165  0.33279421  0.36822701  1
  In  In21  1  0.16880358  0.31698767  0.88972874  1
  In  In22  1  0.16446635  0.65670353  0.36065681  1
  In  In23  1  0.15381199  0.68424668  0.90015711  1
  In  In24  1  0.49892204  -0.01860490  0.37577758  1
  In  In25  1  0.49221702  0.01494817  0.86807890  1
  In  In26  1  0.49869471  0.34797655  0.36659869  1
  In  In27  1  0.49690257  0.34681114  0.86070510  1
  In  In28  1  0.51066613  0.67055320  0.35979772  1
  In  In29  1  0.49085654  0.62963058  0.86996413  1
  In  In30  1  0.82656391  0.00575489  0.38226639  1
  In  In31  1  0.83087142  -0.02077904  0.87383457  1
  In  In32  1  0.84399262  0.32568567  0.38299455  1
  In  In33  1  0.82570408  0.34559825  0.87300713  1
  In  In34  1  0.83563169  0.66823487  0.37816055  1
  In  In35  1  0.84346267  0.67595443  0.86985736  1
  In  In36  1  -0.00289344  0.17565047  0.38080525  1
  In  In37  1  0.01626189  0.16562106  0.87605404  1
  In  In38  1  -0.00130032  0.49306185  0.37003300  1
  In  In39  1  0.00435478  0.51624030  0.88796736  1
  In  In40  1  -0.00074022  0.81675398  0.37265838  1
  In  In41  1  -0.00307401  0.82893520  0.87667609  1
  In  In42  1  0.32298896  0.16768371  0.37741145  1
  In  In43  1  0.32853048  0.16076450  0.86263006  1
  In  In44  1  0.34761561  0.49603002  0.35277692  1
  In  In45  1  0.33509153  0.50166777  0.88646954  1
  In  In46  1  0.34347662  0.83443104  0.37318461  1
  In  In47  1  0.31850179  0.82853623  0.87724552  1
  In  In48  1  0.68482859  0.17069766  0.37581753  1
  In  In49  1  0.65051070  0.17474530  0.86706477  1
  In  In50  1  0.66824704  0.52400900  0.36920115  1
  In  In51  1  0.65638931  0.49735991  0.86170575  1
  In  In52  1  0.66788930  0.82935202  0.37517015  1
  In  In53  1  0.68242179  0.82657806  0.87811245  1
  In  In54  1  0.16321987  -0.00286235  0.11296666  1
  In  In55  1  0.15339254  0.00620416  0.63261998  1
  In  In56  1  0.16421546  0.33794048  0.11794419  1
  In  In57  1  0.18073273  0.33220947  0.63037860  1
  In  In58  1  0.16175731  0.66550303  0.12344908  1
  In  In59  1  0.16272008  0.65436312  0.63091108  1
  In  In60  1  0.50253570  0.01507117  0.13381872  1
  In  In61  1  0.50786810  -0.01261224  0.62876959  1
  In  In62  1  0.46846312  0.34675454  0.14051711  1
  In  In63  1  0.50321196  0.32854431  0.64537009  1
  In  In64  1  0.50574454  0.65087539  0.13005807  1
  In  In65  1  0.50098489  0.68171230  0.62347473  1
  In  In66  1  0.83386019  -0.01316894  0.12837310  1
  In  In67  1  0.83787125  0.00633042  0.61885735  1
  In  In68  1  0.83500712  0.34923496  0.12915693  1
  In  In69  1  0.82804226  0.32651051  0.62002950  1
  In  In70  1  0.82453051  0.67069098  0.13163196  1
  In  In71  1  0.83274634  0.66707355  0.62247671  1
  In  In72  1  0.50158348  0.50305391  0.49700940  1
  In  In73  1  -0.00051059  0.00028636  0.24878502  1
  In  In74  1  0.33707292  -0.00251526  0.25059651  1
  In  In75  1  0.83189869  0.16187849  0.00596441  1
  In  In76  1  0.83936865  0.50943563  -0.00168519  1
  In  In77  1  0.50508416  0.16440734  0.50336504  1
  In  In78  1  0.33073397  0.66625488  0.75621163  1
  In  In79  1  0.49978022  0.82614453  0.00007802  1
  In  In80  1  0.16452387  0.83754529  0.49920490  1
  In  In81  1  0.49638141  0.17206247  -0.00056874  1
  In  In82  1  0.16703150  0.49343866  0.50055292  1
  In  In83  1  0.00130019  0.33558128  0.75913297  1
  In  In84  1  0.66975888  0.33305332  0.25392213  1
  In  In85  1  0.66651191  0.00184616  0.74539787  1
  Cu  Cu86  1  0.67410654  0.33909715  0.50156753  1
  Cu  Cu87  1  0.67011300  0.67028603  0.49704138  1
  Cu  Cu88  1  0.84217505  0.17094625  0.25541966  1
  Cu  Cu89  1  0.00424747  0.33346602  0.49806367  1
  Cu  Cu90  1  0.66729936  -0.00611666  0.50138251  1
  Cu  Cu91  1  0.33357954  0.00260387  0.50045096  1
  Cu  Cu92  1  0.17020063  0.17523489  0.24613119  1
  Cu  Cu93  1  0.33260957  0.33287928  0.00115898  1
  Cu  Cu94  1  0.50095909  0.82561107  0.24787890  1
  Cu  Cu95  1  0.66902310  0.66693741  -0.00015998  1
  Cu  Cu96  1  0.33709850  0.67065174  0.49493515  1
  Cu  Cu97  1  0.82923095  0.82822715  0.25087383  1
  Cu  Cu98  1  0.83866053  0.50738329  0.25338805  1
  Cu  Cu99  1  0.16004478  0.82681225  0.24234707  1
  Cu  Cu100  1  0.17285952  0.49620001  0.24098831  1
  Cu  Cu101  1  0.00167571  -0.00286036  -0.00414494  1
  Cu  Cu102  1  0.50128082  0.83497930  0.75130828  1
  Cu  Cu103  1  -0.00591863  0.66760558  0.50163386  1
  Cu  Cu104  1  0.66941622  -0.00685468  0.00330430  1
  Cu  Cu105  1  -0.00051887  0.00194432  0.50303235  1
  Cu  Cu106  1  0.65608129  0.33699347  -0.00853864  1
  Cu  Cu107  1  0.83605163  0.16314628  0.74475503  1
  Cu  Cu108  1  0.83258888  0.50494328  0.75171693  1
  Cu  Cu109  1  0.32727358  0.00414389  -0.00857096  1
  Cu  Cu110  1  0.16661636  0.16537331  0.75150018  1
  Cu  Cu111  1  0.83974164  0.82712353  0.74844760  1
  Cu  Cu112  1  0.16610826  0.50374205  0.75920699  1
  Cu  Cu113  1  0.33456390  0.33254095  0.50228635  1
  Cu  Cu114  1  0.16446201  0.83233107  0.75848257  1
  Se  Se115  1  0.08295706  0.08455145  0.04664782  1
  Se  Se116  1  0.08550030  0.08473687  0.55337936  1
  Se  Se117  1  0.07144849  0.41040878  0.05100679  1
  Se  Se118  1  0.07695402  0.41041614  0.56683829  1
  Se  Se119  1  0.10361500  0.76790497  0.05504494  1
  Se  Se120  1  0.08052246  0.74311604  0.56116256  1
  Se  Se121  1  0.40686269  0.07698878  0.05768235  1
  Se  Se122  1  0.41387197  0.07815200  0.56462456  1
  Se  Se123  1  0.41680362  0.41756574  0.05234776  1
  Se  Se124  1  0.41763680  0.41019850  0.56136049  1
  Se  Se125  1  0.41389404  0.73973064  0.06293658  1
  Se  Se126  1  0.41871998  0.75378274  0.54841609  1
  Se  Se127  1  0.73556732  0.08041274  0.06739277  1
  Se  Se128  1  0.74905194  0.08354809  0.55037122  1
  Se  Se129  1  0.74269832  0.41213463  0.05152675  1
  Se  Se130  1  0.75456542  0.42328068  0.55564493  1
  Se  Se131  1  0.75003504  0.74996390  0.05464965  1
  Se  Se132  1  0.75347577  0.75248918  0.55176994  1
  Se  Se133  1  0.24813703  0.24730206  0.05133069  1
  Se  Se134  1  0.24785638  0.25107153  0.55258492  1
  Se  Se135  1  0.21728511  0.56386302  0.05155024  1
  Se  Se136  1  0.26052444  0.58972291  0.55695825  1
  Se  Se137  1  0.24855918  0.91728801  0.04498004  1
  Se  Se138  1  0.25439270  0.92192165  0.56296340  1
  Se  Se139  1  0.58062129  0.26539854  0.06074780  1
  Se  Se140  1  0.58898007  0.26309747  0.56144439  1
  Se  Se141  1  0.58590214  0.58163139  0.05076960  1
  Se  Se142  1  0.59014867  0.59046361  0.55956107  1
  Se  Se143  1  0.58199315  0.92172269  0.06340989  1
  Se  Se144  1  0.57948064  0.91216910  0.55095513  1
  Se  Se145  1  0.91661089  0.26127044  0.05918090  1
  Se  Se146  1  0.91885152  0.25102861  0.55286426  1
  Se  Se147  1  0.92233845  0.59063830  0.06711657  1
  Se  Se148  1  0.91517627  0.57953267  0.55388437  1
  Se  Se149  1  0.91350535  0.92048151  0.05032645  1
  Se  Se150  1  0.91648763  0.91508475  0.55245732  1
  Se  Se151  1  0.09095742  0.25593995  0.44312562  1
  Se  Se152  1  0.07231925  0.24767501  0.95510345  1
  Se  Se153  1  0.08063450  0.59006972  0.44326209  1
  Se  Se154  1  0.09720499  0.57491360  0.96297370  1
  Se  Se155  1  0.07496734  0.92574517  0.43538884  1
  Se  Se156  1  0.08454475  0.91616099  0.94031933  1
  Se  Se157  1  0.41908927  0.25751164  0.44110027  1
  Se  Se158  1  0.41036731  0.25712812  0.93410299  1
  Se  Se159  1  0.41026571  0.58670821  0.43344396  1
  Se  Se160  1  0.40688239  0.59548613  0.95402815  1
  Se  Se161  1  0.41338313  0.91391086  0.45046487  1
  Se  Se162  1  0.41602389  0.92491704  0.93860371  1
  Se  Se163  1  0.75535614  0.24925997  0.45243312  1
  Se  Se164  1  0.74073702  0.25161218  0.94094467  1
  Se  Se165  1  0.75283615  0.58283078  0.44741724  1
  Se  Se166  1  0.74445869  0.58700318  0.93428602  1
  Se  Se167  1  0.75020713  0.91177410  0.44593132  1
  Se  Se168  1  0.75357310  0.91021072  0.95279009  1
  Se  Se169  1  0.24877047  0.08924948  0.45367266  1
  Se  Se170  1  0.24731833  0.09010670  0.93889464  1
  Se  Se171  1  0.26537137  0.41744709  0.43716291  1
  Se  Se172  1  0.24756618  0.41462730  0.94887196  1
  Se  Se173  1  0.24826675  0.74290410  0.43631671  1
  Se  Se174  1  0.26406768  0.74607280  0.95657855  1
  Se  Se175  1  0.59051670  0.07586021  0.43869727  1
  Se  Se176  1  0.59110329  0.07594226  0.94359608  1
  Se  Se177  1  0.59608764  0.41421005  0.43802263  1
  Se  Se178  1  0.57754914  0.42136426  0.93698739  1
  Se  Se179  1  0.58017850  0.74393577  0.44075134  1
  Se  Se180  1  0.58586620  0.73942890  0.93561976  1
  Se  Se181  1  0.91826697  0.08569176  0.44620775  1
  Se  Se182  1  0.91591529  0.07594824  0.93767775  1
  Se  Se183  1  0.92146683  0.41990162  0.44742340  1
  Se  Se184  1  0.92359257  0.40833985  0.94271480  1
  Se  Se185  1  0.91447796  0.75473117  0.44950084  1
  Se  Se186  1  0.92117340  0.74316073  0.94745723  1
  Se  Se187  1  0.25857138  0.25155446  0.30030823  1
  Se  Se188  1  0.24213266  0.25555354  0.80512627  1
  Se  Se189  1  0.25516301  0.58156537  0.29473322  1
  Se  Se190  1  0.23817403  0.58878766  0.82116299  1
  Se  Se191  1  0.23806872  0.90682936  0.30574366  1
  Se  Se192  1  0.25282317  0.91742226  0.80385605  1
  Se  Se193  1  0.58066008  0.24128236  0.31316317  1
  Se  Se194  1  0.57931889  0.25816089  0.79702476  1
  Se  Se195  1  0.55906814  0.55569789  0.30158936  1
  Se  Se196  1  0.59566076  0.60214662  0.79840995  1
  Se  Se197  1  0.58256908  0.90893554  0.30329013  1
  Se  Se198  1  0.58326667  0.91263154  0.81365261  1
  Se  Se199  1  0.92478222  0.25661252  0.30482236  1
  Se  Se200  1  0.90755246  0.24105450  0.81369284  1
  Se  Se201  1  0.92210533  0.58928002  0.30793305  1
  Se  Se202  1  0.92063842  0.57798999  0.80856851  1
  Se  Se203  1  0.91031408  0.91077822  0.31037738  1
  Se  Se204  1  0.92005753  0.91282805  0.80200202  1
  Se  Se205  1  0.09266126  0.09155577  0.30700503  1
  Se  Se206  1  0.08070479  0.08038925  0.80038273  1
  Se  Se207  1  0.09010246  0.41949397  0.30226913  1
  Se  Se208  1  0.08965099  0.42231372  0.82139342  1
  Se  Se209  1  0.07855003  0.74396286  0.29780916  1
  Se  Se210  1  0.08729475  0.74438269  0.81185360  1
  Se  Se211  1  0.42141321  0.08523065  0.31549957  1
  Se  Se212  1  0.42208829  0.09317761  0.79378123  1
  Se  Se213  1  0.41013380  0.39513142  0.28775502  1
  Se  Se214  1  0.41149107  0.44025969  0.80440688  1
  Se  Se215  1  0.41097486  0.74796704  0.30009194  1
  Se  Se216  1  0.42505891  0.75513390  0.81536662  1
  Se  Se217  1  0.75738050  0.08465060  0.30346901  1
  Se  Se218  1  0.75558552  0.08795303  0.81156940  1
  Se  Se219  1  0.76060667  0.42274714  0.31486082  1
  Se  Se220  1  0.74733184  0.41534770  0.79699731  1
  Se  Se221  1  0.74863315  0.74386250  0.30637045  1
  Se  Se222  1  0.75161297  0.74772632  0.80012404  1
  Se  Se223  1  0.24346916  0.08449435  0.18847479  1
  Se  Se224  1  0.24813670  0.08259716  0.69571061  1
  Se  Se225  1  0.25418181  0.41153942  0.18714206  1
  Se  Se226  1  0.24680434  0.42064077  0.70428823  1
  Se  Se227  1  0.24937550  0.74578495  0.19401360  1
  Se  Se228  1  0.24300988  0.75741752  0.69065108  1
  Se  Se229  1  0.59422374  0.07146572  0.20736586  1
  Se  Se230  1  0.57390599  0.09541001  0.69130497  1
  Se  Se231  1  0.58775441  0.41886428  0.18595532  1
  Se  Se232  1  0.57506669  0.42993012  0.70155534  1
  Se  Se233  1  0.58560387  0.74036855  0.19677277  1
  Se  Se234  1  0.58509529  0.75394620  0.69722392  1
  Se  Se235  1  0.91463231  0.09337317  0.18642045  1
  Se  Se236  1  0.91900854  0.07695535  0.69594789  1
  Se  Se237  1  0.91904743  0.41935933  0.20189309  1
  Se  Se238  1  0.91258387  0.41935561  0.69293467  1
  Se  Se239  1  0.91704748  0.75380022  0.19400999  1
  Se  Se240  1  0.92144062  0.74196648  0.69425994  1
  Se  Se241  1  0.08438472  0.25564607  0.19335940  1
  Se  Se242  1  0.08293486  0.24614571  0.69158490  1
  Se  Se243  1  0.08374357  0.58315410  0.19705856  1
  Se  Se244  1  0.08127601  0.58535335  0.70660666  1
  Se  Se245  1  0.08273767  0.91097936  0.18471123  1
  Se  Se246  1  0.08248246  0.91214899  0.69942995  1
  Se  Se247  1  0.44824938  0.21645694  0.18866766  1
  Se  Se248  1  0.39671523  0.26324916  0.70049540  1
  Se  Se249  1  0.40582540  0.58034131  0.18987402  1
  Se  Se250  1  0.42125255  0.58537604  0.68939936  1
  Se  Se251  1  0.42028681  0.90571400  0.18592076  1
  Se  Se252  1  0.41662688  0.91826915  0.70030773  1
  Se  Se253  1  0.75834087  0.24331233  0.18949959  1
  Se  Se254  1  0.75158905  0.24875964  0.69585113  1
  Se  Se255  1  0.74780779  0.58492554  0.20260762  1
  Se  Se256  1  0.75186272  0.58578452  0.69403138  1
  Se  Se257  1  0.74720324  0.91380963  0.19851304  1
  Se  Se258  1  0.75781275  0.90955052  0.68843914  1
