# generated using pymatgen
data_In86Cu29Se144
_symmetry_space_group_name_H-M   'P 1'
_cell_length_a   17.58208009
_cell_length_b   17.58379477
_cell_length_c   23.43790226
_cell_angle_alpha   89.99420127
_cell_angle_beta   89.98447115
_cell_angle_gamma   90.00273299
_symmetry_Int_Tables_number   1
_chemical_formula_structural   In86Cu29Se144
_chemical_formula_sum   'In86 Cu29 Se144'
_cell_volume   7246.05423325
_cell_formula_units_Z   1
loop_
 _symmetry_equiv_pos_site_id
 _symmetry_equiv_pos_as_xyz
  1  'x, y, z'
loop_
 _atom_site_type_symbol
 _atom_site_label
 _atom_site_symmetry_multiplicity
 _atom_site_fract_x
 _atom_site_fract_y
 _atom_site_fract_z
 _atom_site_occupancy
  In  In0  1  0.01055568  0.15863115  0.13163551  1
  In  In1  1  0.00303080  0.16938984  0.62246921  1
  In  In2  1  -0.00311481  0.50777663  0.12838311  1
  In  In3  1  0.00710706  0.49515324  0.62987466  1
  In  In4  1  -0.00514248  0.83338212  0.12346108  1
  In  In5  1  -0.00714448  0.83831089  0.62933907  1
  In  In6  1  0.32647396  0.18732059  0.12737214  1
  In  In7  1  0.33663715  0.17044152  0.62077342  1
  In  In8  1  0.33151225  0.47819434  0.11500802  1
  In  In9  1  0.31477016  0.50003109  0.62587758  1
  In  In10  1  0.33568743  0.83452337  0.11755566  1
  In  In11  1  0.34780898  0.83010401  0.62354737  1
  In  In12  1  0.66703135  0.16627317  0.12620004  1
  In  In13  1  0.67328168  0.16911717  0.61772582  1
  In  In14  1  0.67079095  0.50660958  0.11010240  1
  In  In15  1  0.66544355  0.49833101  0.64246465  1
  In  In16  1  0.66837227  0.83717326  0.10874458  1
  In  In17  1  0.66218759  0.83294719  0.62247480  1
  In  In18  1  0.16487663  0.02537970  0.38077437  1
  In  In19  1  0.15465313  0.00923660  0.87955757  1
  In  In20  1  0.16499197  0.33317988  0.37745113  1
  In  In21  1  0.16492580  0.32785829  0.87010726  1
  In  In22  1  0.14246167  0.66752692  0.38035544  1
  In  In23  1  0.16927277  0.68115433  0.87592646  1
  In  In24  1  0.49106946  0.00037228  0.39795082  1
  In  In25  1  0.50001720  -0.00195639  0.87777049  1
  In  In26  1  0.48692590  0.33076541  0.37208443  1
  In  In27  1  0.50528593  0.34492452  0.85793826  1
  In  In28  1  0.50922386  0.67449903  0.37571635  1
  In  In29  1  0.51440360  0.65543944  0.87390440  1
  In  In30  1  0.84612223  -0.00909783  0.38135740  1
  In  In31  1  0.84008043  -0.01449971  0.87885118  1
  In  In32  1  0.83507685  0.31767619  0.38078097  1
  In  In33  1  0.84458097  0.34033031  0.86975766  1
  In  In34  1  0.85387877  0.66938820  0.38302678  1
  In  In35  1  0.83545574  0.66569596  0.87161212  1
  In  In36  1  0.00233164  0.17046202  0.37523239  1
  In  In37  1  0.01951596  0.17743381  0.85663335  1
  In  In38  1  0.01055449  0.50749568  0.36986186  1
  In  In39  1  -0.00926570  0.49326039  0.87172024  1
  In  In40  1  -0.01021992  0.82599948  0.37016557  1
  In  In41  1  0.00044576  0.83279617  0.87265960  1
  In  In42  1  0.32037483  0.17492898  0.39143991  1
  In  In43  1  0.31638428  0.17366831  0.87501379  1
  In  In44  1  0.33080636  0.48150841  0.37119143  1
  In  In45  1  0.34700874  0.49088054  0.87458684  1
  In  In46  1  0.33612932  0.84612434  0.37801225  1
  In  In47  1  0.33329700  0.83273078  0.88317093  1
  In  In48  1  0.67549656  0.14331085  0.40056875  1
  In  In49  1  0.65726670  0.16845584  0.87072080  1
  In  In50  1  0.66418323  0.50586445  0.37551144  1
  In  In51  1  0.66712221  0.50336181  0.86619804  1
  In  In52  1  0.66653145  0.84312485  0.38917141  1
  In  In53  1  0.68803191  0.82161010  0.88728797  1
  In  In54  1  0.15824724  -0.00704900  0.11851988  1
  In  In55  1  0.15350380  0.00387235  0.62740510  1
  In  In56  1  0.17416074  0.32248799  0.12635240  1
  In  In57  1  0.16018398  0.32755998  0.62662643  1
  In  In58  1  0.14930550  0.66643473  0.12406596  1
  In  In59  1  0.16711987  0.65351124  0.62398779  1
  In  In60  1  0.50604570  -0.00572044  0.12330119  1
  In  In61  1  0.50476118  0.00581286  0.60712825  1
  In  In62  1  0.48392172  0.32994395  0.11928070  1
  In  In63  1  0.50786797  0.32930534  0.63992807  1
  In  In64  1  0.50970648  0.67129254  0.11389101  1
  In  In65  1  0.50723453  0.67362013  0.63037621  1
  In  In66  1  0.84694290  0.00185597  0.12404313  1
  In  In67  1  0.83997520  0.01211610  0.61324720  1
  In  In68  1  0.83460187  0.34879573  0.12132641  1
  In  In69  1  0.84446112  0.32326346  0.63154298  1
  In  In70  1  0.83810013  0.67304961  0.11931088  1
  In  In71  1  0.83114976  0.67175619  0.63067599  1
  In  In72  1  0.83685176  0.16112951  0.00145976  1
  In  In73  1  0.67254614  0.66912949  0.25311745  1
  In  In74  1  0.67049648  -0.00354849  0.25408843  1
  In  In75  1  0.67186819  0.00104033  0.74647328  1
  In  In76  1  0.49604736  0.49832974  0.49900242  1
  In  In77  1  0.16863897  0.83580168  0.50183892  1
  In  In78  1  0.83980038  0.49484624  0.51273458  1
  In  In79  1  0.66490636  0.33297010  0.25344524  1
  In  In80  1  0.16537215  0.50262376  -0.00349533  1
  In  In81  1  0.32948674  0.00135603  0.74280441  1
  In  In82  1  0.33210401  0.66062978  0.75135066  1
  In  In83  1  0.49512392  0.16462067  -0.00379599  1
  In  In84  1  0.32433687  0.65898451  0.24168975  1
  In  In85  1  0.32734698  0.00933055  0.25965071  1
  Cu  Cu86  1  0.49384617  0.49164180  0.23853237  1
  Cu  Cu87  1  0.00361425  0.33117581  -0.00587902  1
  Cu  Cu88  1  0.16322660  0.83513760  0.74990747  1
  Cu  Cu89  1  0.83765522  0.83130573  0.75273188  1
  Cu  Cu90  1  0.66607107  0.33970682  -0.00875968  1
  Cu  Cu91  1  0.49475098  0.17009799  0.74815529  1
  Cu  Cu92  1  0.83445091  0.16622878  0.74257892  1
  Cu  Cu93  1  0.67301834  0.66845171  0.50573024  1
  Cu  Cu94  1  0.15196777  0.83851987  0.24818873  1
  Cu  Cu95  1  0.32778054  0.33644083  0.50319187  1
  Cu  Cu96  1  0.00352459  0.00575172  0.49928026  1
  Cu  Cu97  1  0.51072259  0.83017196  0.75246075  1
  Cu  Cu98  1  0.66275491  0.32496296  0.50698440  1
  Cu  Cu99  1  0.83574905  0.50295657  0.75124047  1
  Cu  Cu100  1  0.83947677  0.82947231  0.25041981  1
  Cu  Cu101  1  0.84236133  0.49870888  0.25050287  1
  Cu  Cu102  1  -0.00861034  0.67248914  0.00007010  1
  Cu  Cu103  1  0.66570509  0.66149809  -0.00960787  1
  Cu  Cu104  1  0.15976074  0.49462654  0.75059387  1
  Cu  Cu105  1  0.49997260  0.83358143  0.25226272  1
  Cu  Cu106  1  0.33567293  0.66897711  -0.00199989  1
  Cu  Cu107  1  0.16443019  0.17434894  0.25399574  1
  Cu  Cu108  1  0.84379108  0.16779663  0.25312326  1
  Cu  Cu109  1  0.16601005  0.49190141  0.24832124  1
  Cu  Cu110  1  0.00269267  0.32942607  0.50330631  1
  Cu  Cu111  1  -0.00067186  -0.00407390  -0.00166571  1
  Cu  Cu112  1  0.33261082  0.66487467  0.50306063  1
  Cu  Cu113  1  0.49737735  0.17373984  0.25798404  1
  Cu  Cu114  1  0.33070462  0.00103368  -0.00085087  1
  Se  Se115  1  0.08041302  0.08347528  0.05187436  1
  Se  Se116  1  0.08761103  0.08844557  0.55115300  1
  Se  Se117  1  0.07903057  0.41232012  0.05941508  1
  Se  Se118  1  0.08354947  0.41619541  0.55526536  1
  Se  Se119  1  0.07927218  0.75275740  0.05229743  1
  Se  Se120  1  0.08080438  0.74772926  0.56240888  1
  Se  Se121  1  0.40641925  0.08047656  0.06468435  1
  Se  Se122  1  0.40043449  0.07489872  0.55142622  1
  Se  Se123  1  0.42431898  0.41725768  0.04449759  1
  Se  Se124  1  0.41151194  0.41229725  0.56413784  1
  Se  Se125  1  0.42009747  0.75309101  0.05076118  1
  Se  Se126  1  0.42185960  0.74098810  0.55464044  1
  Se  Se127  1  0.74107049  0.07260120  0.06011879  1
  Se  Se128  1  0.73648634  0.07288431  0.54990984  1
  Se  Se129  1  0.75291755  0.41821518  0.04581921  1
  Se  Se130  1  0.73998338  0.40907752  0.56661886  1
  Se  Se131  1  0.74766007  0.74278633  0.04883042  1
  Se  Se132  1  0.75500065  0.75328099  0.55722098  1
  Se  Se133  1  0.25197025  0.25380037  0.04832629  1
  Se  Se134  1  0.24563376  0.25013867  0.55480321  1
  Se  Se135  1  0.25525932  0.59168282  0.06100876  1
  Se  Se136  1  0.24592621  0.57955657  0.54796919  1
  Se  Se137  1  0.24857356  0.91584508  0.05247558  1
  Se  Se138  1  0.25563572  0.92095909  0.56651696  1
  Se  Se139  1  0.59259301  0.25677488  0.05524473  1
  Se  Se140  1  0.57300275  0.24985921  0.56032128  1
  Se  Se141  1  0.57923717  0.58031393  0.04404899  1
  Se  Se142  1  0.59217870  0.58197500  0.56004831  1
  Se  Se143  1  0.57256134  0.91255263  0.04911837  1
  Se  Se144  1  0.58299770  0.90983240  0.55012031  1
  Se  Se145  1  0.92470247  0.25456049  0.06083931  1
  Se  Se146  1  0.91354915  0.24689266  0.55206462  1
  Se  Se147  1  0.91568151  0.58126530  0.05349511  1
  Se  Se148  1  0.92712245  0.59256620  0.56330737  1
  Se  Se149  1  0.91324728  0.91441124  0.05075441  1
  Se  Se150  1  0.92290304  0.91925398  0.55214332  1
  Se  Se151  1  0.08667937  0.24729402  0.44740161  1
  Se  Se152  1  0.08414465  0.24626752  0.94205533  1
  Se  Se153  1  0.07553215  0.58022876  0.45148003  1
  Se  Se154  1  0.07350536  0.59338129  0.93904509  1
  Se  Se155  1  0.08036643  0.92258860  0.43729864  1
  Se  Se156  1  0.08394211  0.91253353  0.94480979  1
  Se  Se157  1  0.41648473  0.25643176  0.45089042  1
  Se  Se158  1  0.41866042  0.25624340  0.93141859  1
  Se  Se159  1  0.40910785  0.58871996  0.43455598  1
  Se  Se160  1  0.41480487  0.58800132  0.94034919  1
  Se  Se161  1  0.42595099  0.89347287  0.45525071  1
  Se  Se162  1  0.41707264  0.91979459  0.94771480  1
  Se  Se163  1  0.75213812  0.24722913  0.45496585  1
  Se  Se164  1  0.74776759  0.25186461  0.93855851  1
  Se  Se165  1  0.74988369  0.58607669  0.44529997  1
  Se  Se166  1  0.75191914  0.57974173  0.93869986  1
  Se  Se167  1  0.74203130  0.93828407  0.44854521  1
  Se  Se168  1  0.75053528  0.92327043  0.95107559  1
  Se  Se169  1  0.27307693  0.05880269  0.44894020  1
  Se  Se170  1  0.24807153  0.08372233  0.94595234  1
  Se  Se171  1  0.24653340  0.41887436  0.44765501  1
  Se  Se172  1  0.25430294  0.40985738  0.94102101  1
  Se  Se173  1  0.25441749  0.74203198  0.43746119  1
  Se  Se174  1  0.24705084  0.75377813  0.95216179  1
  Se  Se175  1  0.56336345  0.09627343  0.45961628  1
  Se  Se176  1  0.59537079  0.07492473  0.94571450  1
  Se  Se177  1  0.59151601  0.40705588  0.44139684  1
  Se  Se178  1  0.58294670  0.41794588  0.93512099  1
  Se  Se179  1  0.58673284  0.74754722  0.45042440  1
  Se  Se180  1  0.58107823  0.75054019  0.94298723  1
  Se  Se181  1  0.91899842  0.08830465  0.44480622  1
  Se  Se182  1  0.92923114  0.08365750  0.93596569  1
  Se  Se183  1  0.92237897  0.41116002  0.44246219  1
  Se  Se184  1  0.91605182  0.41648339  0.94890777  1
  Se  Se185  1  0.91465724  0.76392734  0.45195769  1
  Se  Se186  1  0.91208978  0.75438561  0.94188403  1
  Se  Se187  1  0.25261794  0.24920992  0.31007893  1
  Se  Se188  1  0.24698770  0.24956207  0.79849237  1
  Se  Se189  1  0.24057766  0.57696674  0.31114072  1
  Se  Se190  1  0.23999848  0.57372086  0.81329881  1
  Se  Se191  1  0.23385463  0.91242823  0.31127184  1
  Se  Se192  1  0.24735976  0.91112370  0.80949323  1
  Se  Se193  1  0.58868500  0.23946096  0.31960834  1
  Se  Se194  1  0.58658469  0.24943458  0.79670424  1
  Se  Se195  1  0.56975502  0.57333597  0.30092587  1
  Se  Se196  1  0.58211771  0.58130325  0.79550162  1
  Se  Se197  1  0.57197274  0.91626085  0.31505501  1
  Se  Se198  1  0.58858528  0.91194641  0.81281792  1
  Se  Se199  1  0.92170436  0.25650235  0.30459568  1
  Se  Se200  1  0.91530338  0.24934034  0.79977196  1
  Se  Se201  1  0.91807824  0.58734775  0.30504553  1
  Se  Se202  1  0.92169080  0.58608407  0.80250934  1
  Se  Se203  1  0.91859818  0.91960001  0.30116734  1
  Se  Se204  1  0.92070929  0.91835153  0.80182031  1
  Se  Se205  1  0.08163177  0.08610900  0.30266996  1
  Se  Se206  1  0.08368340  0.07250554  0.79666482  1
  Se  Se207  1  0.08253615  0.41229939  0.30492295  1
  Se  Se208  1  0.07760254  0.41213287  0.80568554  1
  Se  Se209  1  0.07765519  0.74767336  0.30155236  1
  Se  Se210  1  0.08283240  0.74822039  0.80234419  1
  Se  Se211  1  0.42289673  0.09114435  0.31963289  1
  Se  Se212  1  0.41991179  0.08714580  0.80932362  1
  Se  Se213  1  0.41460025  0.41134201  0.29639963  1
  Se  Se214  1  0.40585043  0.41294841  0.79378865  1
  Se  Se215  1  0.41448178  0.75049635  0.30484258  1
  Se  Se216  1  0.42106109  0.75602383  0.80892920  1
  Se  Se217  1  0.75730822  0.09091350  0.31168625  1
  Se  Se218  1  0.76068080  0.08852121  0.81054482  1
  Se  Se219  1  0.75891305  0.42462044  0.31217212  1
  Se  Se220  1  0.75384765  0.41503063  0.80231348  1
  Se  Se221  1  0.75572516  0.76071643  0.31579066  1
  Se  Se222  1  0.74992807  0.74978185  0.80319255  1
  Se  Se223  1  0.24159932  0.09088340  0.19094928  1
  Se  Se224  1  0.23872833  0.09596656  0.69144283  1
  Se  Se225  1  0.25209927  0.41354786  0.19415617  1
  Se  Se226  1  0.24340521  0.41330204  0.69656672  1
  Se  Se227  1  0.23831815  0.76224359  0.18948602  1
  Se  Se228  1  0.24617451  0.75640922  0.68966613  1
  Se  Se229  1  0.57353131  0.09129885  0.19775315  1
  Se  Se230  1  0.57479693  0.08734006  0.68903507  1
  Se  Se231  1  0.58509145  0.41934915  0.18299244  1
  Se  Se232  1  0.57613438  0.42250391  0.70726183  1
  Se  Se233  1  0.58302331  0.75939022  0.19163639  1
  Se  Se234  1  0.59471379  0.74843374  0.69973172  1
  Se  Se235  1  0.92032276  0.08031326  0.19871320  1
  Se  Se236  1  0.91789169  0.08287980  0.69028475  1
  Se  Se237  1  0.92126774  0.41423855  0.19572920  1
  Se  Se238  1  0.91659368  0.41802446  0.69654215  1
  Se  Se239  1  0.91845487  0.74480390  0.19481729  1
  Se  Se240  1  0.92124308  0.74749832  0.69945669  1
  Se  Se241  1  0.08196265  0.25466328  0.19708683  1
  Se  Se242  1  0.06492512  0.26165138  0.69545186  1
  Se  Se243  1  0.08407275  0.58207129  0.19989082  1
  Se  Se244  1  0.08326356  0.58571349  0.69935500  1
  Se  Se245  1  0.07376553  0.92224621  0.19248065  1
  Se  Se246  1  0.07938512  0.91840660  0.69795983  1
  Se  Se247  1  0.41752921  0.25317903  0.19999392  1
  Se  Se248  1  0.40747922  0.25076889  0.69725889  1
  Se  Se249  1  0.42188247  0.57941434  0.18030633  1
  Se  Se250  1  0.41961856  0.57574523  0.68734994  1
  Se  Se251  1  0.41635966  0.91590145  0.19662893  1
  Se  Se252  1  0.43484260  0.91429845  0.69231320  1
  Se  Se253  1  0.76052606  0.24451930  0.19241038  1
  Se  Se254  1  0.74556203  0.24843210  0.69397717  1
  Se  Se255  1  0.75597166  0.57482916  0.19121107  1
  Se  Se256  1  0.75160160  0.58826378  0.70101273  1
  Se  Se257  1  0.75503398  0.90607044  0.18983728  1
  Se  Se258  1  0.76300320  0.91270796  0.68764946  1
