# generated using pymatgen
data_In86Cu29Se144
_symmetry_space_group_name_H-M   'P 1'
_cell_length_a   17.57872642
_cell_length_b   17.57976108
_cell_length_c   23.44180412
_cell_angle_alpha   89.99829225
_cell_angle_beta   89.96238550
_cell_angle_gamma   89.98348713
_symmetry_Int_Tables_number   1
_chemical_formula_structural   In86Cu29Se144
_chemical_formula_sum   'In86 Cu29 Se144'
_cell_volume   7244.21442083
_cell_formula_units_Z   1
loop_
 _symmetry_equiv_pos_site_id
 _symmetry_equiv_pos_as_xyz
  1  'x, y, z'
loop_
 _atom_site_type_symbol
 _atom_site_label
 _atom_site_symmetry_multiplicity
 _atom_site_fract_x
 _atom_site_fract_y
 _atom_site_fract_z
 _atom_site_occupancy
  In  In0  1  0.01647401  0.16067291  0.14674823  1
  In  In1  1  0.00842343  0.16890167  0.61452992  1
  In  In2  1  -0.00121465  0.50155519  0.12783035  1
  In  In3  1  -0.01510865  0.50048768  0.62054615  1
  In  In4  1  -0.00693455  0.83599790  0.12644958  1
  In  In5  1  0.00438057  0.85022967  0.60173669  1
  In  In6  1  0.31842401  0.15166189  0.12817050  1
  In  In7  1  0.31737111  0.16619179  0.62316281  1
  In  In8  1  0.32808783  0.51353816  0.11418888  1
  In  In9  1  0.34610243  0.49668347  0.62647535  1
  In  In10  1  0.33413344  0.84305213  0.12346041  1
  In  In11  1  0.33467181  0.83242853  0.62612337  1
  In  In12  1  0.66366023  0.15585909  0.13063512  1
  In  In13  1  0.67165219  0.15386449  0.63582499  1
  In  In14  1  0.68509630  0.49765416  0.12394439  1
  In  In15  1  0.66273282  0.49622689  0.62309469  1
  In  In16  1  0.67025442  0.82944670  0.13414865  1
  In  In17  1  0.67529380  0.84744651  0.61712776  1
  In  In18  1  0.15932539  -0.00341234  0.37446421  1
  In  In19  1  0.17058308  -0.02042710  0.87790399  1
  In  In20  1  0.14916234  0.32521142  0.36928558  1
  In  In21  1  0.16690917  0.35074298  0.87630070  1
  In  In22  1  0.16614644  0.68512688  0.37257060  1
  In  In23  1  0.17172087  0.66891890  0.88456423  1
  In  In24  1  0.48781260  -0.01339029  0.37223609  1
  In  In25  1  0.50381970  0.00608187  0.86028883  1
  In  In26  1  0.51246367  0.33664333  0.38323903  1
  In  In27  1  0.50120233  0.31990081  0.86698974  1
  In  In28  1  0.50904015  0.66435716  0.38211599  1
  In  In29  1  0.49524298  0.68090242  0.87162728  1
  In  In30  1  0.83460051  0.00214857  0.37336159  1
  In  In31  1  0.82789576  -0.00323918  0.88005698  1
  In  In32  1  0.84800606  0.32129457  0.38527040  1
  In  In33  1  0.84077654  0.33586328  0.86631728  1
  In  In34  1  0.83298437  0.67019071  0.37311393  1
  In  In35  1  0.83608685  0.66587306  0.88425148  1
  In  In36  1  -0.00101278  0.16105670  0.37434090  1
  In  In37  1  -0.01321251  0.16900161  0.87317109  1
  In  In38  1  -0.01258837  0.49146057  0.36751342  1
  In  In39  1  0.00589677  0.49596134  0.88078261  1
  In  In40  1  0.00041504  0.83812714  0.37225791  1
  In  In41  1  0.00479979  0.83283423  0.89132871  1
  In  In42  1  0.32803265  0.14539240  0.37404719  1
  In  In43  1  0.34544288  0.16351449  0.86922610  1
  In  In44  1  0.34001834  0.51036310  0.37804993  1
  In  In45  1  0.31155650  0.50445337  0.88205416  1
  In  In46  1  0.31750587  0.84378155  0.38575950  1
  In  In47  1  0.32927247  0.83149105  0.86537856  1
  In  In48  1  0.68293338  0.16247333  0.37984350  1
  In  In49  1  0.66370369  0.16148518  0.86028605  1
  In  In50  1  0.66470163  0.51003327  0.38230865  1
  In  In51  1  0.68399927  0.50022613  0.87634218  1
  In  In52  1  0.66961534  0.83388947  0.37553215  1
  In  In53  1  0.67143201  0.84361288  0.87812692  1
  In  In54  1  0.17042794  -0.00357180  0.13118948  1
  In  In55  1  0.16958874  0.00642402  0.61704786  1
  In  In56  1  0.15329886  0.32889055  0.12237033  1
  In  In57  1  0.16883905  0.31705710  0.62373993  1
  In  In58  1  0.15588055  0.65583513  0.11533863  1
  In  In59  1  0.16528283  0.68157988  0.62362242  1
  In  In60  1  0.50258533  -0.01116563  0.13582767  1
  In  In61  1  0.51077956  -0.00374619  0.63057434  1
  In  In62  1  0.50798790  0.33654384  0.12457062  1
  In  In63  1  0.49841334  0.34701077  0.62578031  1
  In  In64  1  0.49700682  0.68083857  0.12617752  1
  In  In65  1  0.49444293  0.65894126  0.62420669  1
  In  In66  1  0.83907938  -0.00795587  0.13122149  1
  In  In67  1  0.82826243  -0.00586806  0.61239749  1
  In  In68  1  0.84190955  0.34578970  0.12222253  1
  In  In69  1  0.83458091  0.33181671  0.62494100  1
  In  In70  1  0.83539932  0.66736438  0.13138350  1
  In  In71  1  0.83610863  0.67296530  0.61456192  1
  In  In72  1  -0.00050958  0.00264372  0.74851107  1
  In  In73  1  -0.00133081  0.66905821  0.74802093  1
  In  In74  1  0.33251268  0.33196227  0.74933156  1
  In  In75  1  0.50102125  0.16264128  -0.01398935  1
  In  In76  1  0.16559443  0.16729438  0.00794976  1
  In  In77  1  0.50084338  0.16964248  0.50833144  1
  In  In78  1  0.49674561  0.83401893  0.00257306  1
  In  In79  1  0.67819657  0.32841121  0.26128071  1
  In  In80  1  0.83844638  0.16043352  0.00485282  1
  In  In81  1  0.49837970  0.50100080  -0.00800674  1
  In  In82  1  0.33251906  0.67336038  0.24679252  1
  In  In83  1  0.16845488  0.49927562  0.49415861  1
  In  In84  1  0.33232642  0.32996640  0.24339650  1
  In  In85  1  0.66367741  0.66865384  0.75081460  1
  Cu  Cu86  1  0.49818185  0.15576863  0.25137408  1
  Cu  Cu87  1  0.16176069  0.50234104  0.75610342  1
  Cu  Cu88  1  0.83277212  0.83374052  0.25358223  1
  Cu  Cu89  1  0.49733275  0.50010180  0.74843334  1
  Cu  Cu90  1  0.83661806  0.50383784  0.25082331  1
  Cu  Cu91  1  0.17172280  0.83343606  0.74861084  1
  Cu  Cu92  1  0.83546464  0.83788266  0.74312737  1
  Cu  Cu93  1  0.83211069  0.49176288  0.74686711  1
  Cu  Cu94  1  0.67616972  0.32552071  -0.00401464  1
  Cu  Cu95  1  0.33541755  0.00058514  0.00070184  1
  Cu  Cu96  1  -0.00320775  0.66982587  0.49206934  1
  Cu  Cu97  1  0.67253754  0.66182393  0.00665315  1
  Cu  Cu98  1  0.66348249  0.00164181  0.49880132  1
  Cu  Cu99  1  0.49917405  0.83734590  0.74701787  1
  Cu  Cu100  1  0.32830103  -0.00796556  0.49913856  1
  Cu  Cu101  1  -0.00653484  0.66747385  0.00764086  1
  Cu  Cu102  1  -0.00179062  0.33115023  0.49679689  1
  Cu  Cu103  1  0.34092491  0.66629833  0.50141874  1
  Cu  Cu104  1  0.83645582  0.16700099  0.25669217  1
  Cu  Cu105  1  0.15972111  0.50311006  0.24580864  1
  Cu  Cu106  1  0.50013830  0.83009560  0.25552142  1
  Cu  Cu107  1  0.83288884  0.16848884  0.74717617  1
  Cu  Cu108  1  0.50678656  0.50214449  0.25644369  1
  Cu  Cu109  1  -0.00288569  0.33763599  0.00106237  1
  Cu  Cu110  1  0.16095925  0.16335410  0.74623451  1
  Cu  Cu111  1  0.67060769  0.67481503  0.50043872  1
  Cu  Cu112  1  0.16012927  0.83800998  0.25032915  1
  Cu  Cu113  1  0.33139664  0.32961111  0.50210207  1
  Cu  Cu114  1  0.67247819  0.34475158  0.50342985  1
  Se  Se115  1  0.07361223  0.07682753  0.06310205  1
  Se  Se116  1  0.06575131  0.06272472  0.55264451  1
  Se  Se117  1  0.08110478  0.42020669  0.05488668  1
  Se  Se118  1  0.08134160  0.41079810  0.55783791  1
  Se  Se119  1  0.07810403  0.75387524  0.05642703  1
  Se  Se120  1  0.08303574  0.74746537  0.54735276  1
  Se  Se121  1  0.41877503  0.07786631  0.05996212  1
  Se  Se122  1  0.40769169  0.07456069  0.56029328  1
  Se  Se123  1  0.41462045  0.41067950  0.05758509  1
  Se  Se124  1  0.41589897  0.41645804  0.54944554  1
  Se  Se125  1  0.40002738  0.74068067  0.05344162  1
  Se  Se126  1  0.42021156  0.75048276  0.55701450  1
  Se  Se127  1  0.74222105  0.07308224  0.05932891  1
  Se  Se128  1  0.74312441  0.08838626  0.55272995  1
  Se  Se129  1  0.75378969  0.41356277  0.04888962  1
  Se  Se130  1  0.75807305  0.42458626  0.55752055  1
  Se  Se131  1  0.74858820  0.74809401  0.06231864  1
  Se  Se132  1  0.75546906  0.76068804  0.54979411  1
  Se  Se133  1  0.26241436  0.25825129  0.06113769  1
  Se  Se134  1  0.24384845  0.24369353  0.54614899  1
  Se  Se135  1  0.24634761  0.58776671  0.04421738  1
  Se  Se136  1  0.25584728  0.58560187  0.56003502  1
  Se  Se137  1  0.24964446  0.92167783  0.05432655  1
  Se  Se138  1  0.24747783  0.90958159  0.55605523  1
  Se  Se139  1  0.59247855  0.25006573  0.05500376  1
  Se  Se140  1  0.59377917  0.26051689  0.56373644  1
  Se  Se141  1  0.58437562  0.58497159  0.06268439  1
  Se  Se142  1  0.58955957  0.58960766  0.55677043  1
  Se  Se143  1  0.59015367  0.92042444  0.06006894  1
  Se  Se144  1  0.57868463  0.91865713  0.55118028  1
  Se  Se145  1  0.93087646  0.24899549  0.06467521  1
  Se  Se146  1  0.91518792  0.25044774  0.55325254  1
  Se  Se147  1  0.91159261  0.58068766  0.05938713  1
  Se  Se148  1  0.91641258  0.58619110  0.54740809  1
  Se  Se149  1  0.90482766  0.90975193  0.05554206  1
  Se  Se150  1  0.91297636  0.92486060  0.53898415  1
  Se  Se151  1  0.08187473  0.24566984  0.44635647  1
  Se  Se152  1  0.07635101  0.25420963  0.94137215  1
  Se  Se153  1  0.07875391  0.58743750  0.43369725  1
  Se  Se154  1  0.07668049  0.59033726  0.94656927  1
  Se  Se155  1  0.10025296  0.89528783  0.44173892  1
  Se  Se156  1  0.08628952  0.92024987  0.95440655  1
  Se  Se157  1  0.41077569  0.25029964  0.43868377  1
  Se  Se158  1  0.40443823  0.26273400  0.94299784  1
  Se  Se159  1  0.42391317  0.58075863  0.45056957  1
  Se  Se160  1  0.40854016  0.59737811  0.93964225  1
  Se  Se161  1  0.41832073  0.91030443  0.45126481  1
  Se  Se162  1  0.41675538  0.92666979  0.93630105  1
  Se  Se163  1  0.74796330  0.25475303  0.45037997  1
  Se  Se164  1  0.75205392  0.24437043  0.93514208  1
  Se  Se165  1  0.75346742  0.58944949  0.44746191  1
  Se  Se166  1  0.75514085  0.57945871  0.95197472  1
  Se  Se167  1  0.74874801  0.92147221  0.44362172  1
  Se  Se168  1  0.76145380  0.90519880  0.95032752  1
  Se  Se169  1  0.24447056  0.07696143  0.44781688  1
  Se  Se170  1  0.25667086  0.08301457  0.94076852  1
  Se  Se171  1  0.25620914  0.40605604  0.43386513  1
  Se  Se172  1  0.24681294  0.41518610  0.95328489  1
  Se  Se173  1  0.24997412  0.74471850  0.45154964  1
  Se  Se174  1  0.24050326  0.77429956  0.94116882  1
  Se  Se175  1  0.58024662  0.08068451  0.43926801  1
  Se  Se176  1  0.59781520  0.06960100  0.93761835  1
  Se  Se177  1  0.58408340  0.42439925  0.45215303  1
  Se  Se178  1  0.59165618  0.40457103  0.93756698  1
  Se  Se179  1  0.58451385  0.75593453  0.44786323  1
  Se  Se180  1  0.59346261  0.74128237  0.94504134  1
  Se  Se181  1  0.89153238  0.10715858  0.43866819  1
  Se  Se182  1  0.93014378  0.07059993  0.94530157  1
  Se  Se183  1  0.91648193  0.42208743  0.44967352  1
  Se  Se184  1  0.91280654  0.41490458  0.94347517  1
  Se  Se185  1  0.91412105  0.75568194  0.44117643  1
  Se  Se186  1  0.91237874  0.75160331  0.95287748  1
  Se  Se187  1  0.24908765  0.24335871  0.30888697  1
  Se  Se188  1  0.23873095  0.24446553  0.81059946  1
  Se  Se189  1  0.24316109  0.57858593  0.30705711  1
  Se  Se190  1  0.24352324  0.58819366  0.80660470  1
  Se  Se191  1  0.24885280  0.91503855  0.30462444  1
  Se  Se192  1  0.25359214  0.92274192  0.79721579  1
  Se  Se193  1  0.57596859  0.23807713  0.31152873  1
  Se  Se194  1  0.58262492  0.24754587  0.79579231  1
  Se  Se195  1  0.58800361  0.58796535  0.30667251  1
  Se  Se196  1  0.57667063  0.57589169  0.81341301  1
  Se  Se197  1  0.58367036  0.91607471  0.30628788  1
  Se  Se198  1  0.58851321  0.91123862  0.80258950  1
  Se  Se199  1  0.92088716  0.25376301  0.30440966  1
  Se  Se200  1  0.92058036  0.25070712  0.79675227  1
  Se  Se201  1  0.91909363  0.58988998  0.30277917  1
  Se  Se202  1  0.90889669  0.57704970  0.80747191  1
  Se  Se203  1  0.91660696  0.92018641  0.30343249  1
  Se  Se204  1  0.91784097  0.90668618  0.81040841  1
  Se  Se205  1  0.08165634  0.08103658  0.30498043  1
  Se  Se206  1  0.09026883  0.08587242  0.81490938  1
  Se  Se207  1  0.08123530  0.41812062  0.30082343  1
  Se  Se208  1  0.07711454  0.41596820  0.80313596  1
  Se  Se209  1  0.07822455  0.75008307  0.29973254  1
  Se  Se210  1  0.08601135  0.75884830  0.80968067  1
  Se  Se211  1  0.41183333  0.07343157  0.30133566  1
  Se  Se212  1  0.41694058  0.08579721  0.79522674  1
  Se  Se213  1  0.42386422  0.41815106  0.30922519  1
  Se  Se214  1  0.41529565  0.42608007  0.81347320  1
  Se  Se215  1  0.41589536  0.75433042  0.31694831  1
  Se  Se216  1  0.41540888  0.75102305  0.79647143  1
  Se  Se217  1  0.74714554  0.08252548  0.30150563  1
  Se  Se218  1  0.75974759  0.07820009  0.80305166  1
  Se  Se219  1  0.76261424  0.42399640  0.31789389  1
  Se  Se220  1  0.74625046  0.41267510  0.80101571  1
  Se  Se221  1  0.74656644  0.74910405  0.30350764  1
  Se  Se222  1  0.76226275  0.75443625  0.80672930  1
  Se  Se223  1  0.24108895  0.08421266  0.20375825  1
  Se  Se224  1  0.24537622  0.08004872  0.69551379  1
  Se  Se225  1  0.24636805  0.42861808  0.18702305  1
  Se  Se226  1  0.23952441  0.42330008  0.69009180  1
  Se  Se227  1  0.23872498  0.75717056  0.18684697  1
  Se  Se228  1  0.25298491  0.74670419  0.69702414  1
  Se  Se229  1  0.58661549  0.07430389  0.20161275  1
  Se  Se230  1  0.57866709  0.08462904  0.70255256  1
  Se  Se231  1  0.58747280  0.41932850  0.19786230  1
  Se  Se232  1  0.58439969  0.41915297  0.69840923  1
  Se  Se233  1  0.58142110  0.74671699  0.20068831  1
  Se  Se234  1  0.58211157  0.75883116  0.68617723  1
  Se  Se235  1  0.91474305  0.08192323  0.20028070  1
  Se  Se236  1  0.91053261  0.08729753  0.68517759  1
  Se  Se237  1  0.91879189  0.41668541  0.19936124  1
  Se  Se238  1  0.92086293  0.41342334  0.69518981  1
  Se  Se239  1  0.91720156  0.75111245  0.19956717  1
  Se  Se240  1  0.91974445  0.76391676  0.68294491  1
  Se  Se241  1  0.09167798  0.25825128  0.20536475  1
  Se  Se242  1  0.07908908  0.24733708  0.69416878  1
  Se  Se243  1  0.07859645  0.59054328  0.19581876  1
  Se  Se244  1  0.08754492  0.57744585  0.68698369  1
  Se  Se245  1  0.07680416  0.91952566  0.19569568  1
  Se  Se246  1  0.08575606  0.90861030  0.68866457  1
  Se  Se247  1  0.42816026  0.23761768  0.18675985  1
  Se  Se248  1  0.41849332  0.24480044  0.68553224  1
  Se  Se249  1  0.42437228  0.57477620  0.19180376  1
  Se  Se250  1  0.41275158  0.58523207  0.69975103  1
  Se  Se251  1  0.41292310  0.91094749  0.20190197  1
  Se  Se252  1  0.41515251  0.91942487  0.69390590  1
  Se  Se253  1  0.76050883  0.24562949  0.18937133  1
  Se  Se254  1  0.74902352  0.25271054  0.69524512  1
  Se  Se255  1  0.74801014  0.58299701  0.19932873  1
  Se  Se256  1  0.75966216  0.58463987  0.69058897  1
  Se  Se257  1  0.74855233  0.91812124  0.20096414  1
  Se  Se258  1  0.75241084  0.92343511  0.69298077  1
