# generated using pymatgen
data_In86Cu29Se144
_symmetry_space_group_name_H-M   'P 1'
_cell_length_a   17.57894225
_cell_length_b   17.58415638
_cell_length_c   23.44585978
_cell_angle_alpha   90.01851883
_cell_angle_beta   89.97769385
_cell_angle_gamma   90.01970403
_symmetry_Int_Tables_number   1
_chemical_formula_structural   In86Cu29Se144
_chemical_formula_sum   'In86 Cu29 Se144'
_cell_volume   7247.36874535
_cell_formula_units_Z   1
loop_
 _symmetry_equiv_pos_site_id
 _symmetry_equiv_pos_as_xyz
  1  'x, y, z'
loop_
 _atom_site_type_symbol
 _atom_site_label
 _atom_site_symmetry_multiplicity
 _atom_site_fract_x
 _atom_site_fract_y
 _atom_site_fract_z
 _atom_site_occupancy
  In  In0  1  -0.02073025  0.15988892  0.11603276  1
  In  In1  1  0.01691133  0.15949369  0.63852133  1
  In  In2  1  0.00338747  0.49212091  0.11832014  1
  In  In3  1  -0.00216225  0.49957312  0.62811088  1
  In  In4  1  0.00562182  0.84115186  0.11232343  1
  In  In5  1  -0.00475764  0.82735899  0.62757625  1
  In  In6  1  0.31493956  0.16197419  0.12714990  1
  In  In7  1  0.34000366  0.17269162  0.61746136  1
  In  In8  1  0.33493785  0.51345719  0.13072277  1
  In  In9  1  0.32113402  0.48765567  0.61499660  1
  In  In10  1  0.33414286  0.82937172  0.12813914  1
  In  In11  1  0.32421527  0.84730223  0.62386101  1
  In  In12  1  0.68402024  0.16375315  0.12680315  1
  In  In13  1  0.66201597  0.17631909  0.62594106  1
  In  In14  1  0.66180647  0.50105568  0.13294763  1
  In  In15  1  0.67007933  0.49907463  0.61967717  1
  In  In16  1  0.67374570  0.85251940  0.10493049  1
  In  In17  1  0.67960821  0.81763299  0.63315010  1
  In  In18  1  0.16364402  -0.00506739  0.37413032  1
  In  In19  1  0.11532850  -0.00955495  0.86946383  1
  In  In20  1  0.16326215  0.33447205  0.38709443  1
  In  In21  1  0.16909552  0.33529544  0.85960267  1
  In  In22  1  0.17175150  0.66150656  0.38166111  1
  In  In23  1  0.14286202  0.68210059  0.89307389  1
  In  In24  1  0.49765087  0.01437242  0.37496119  1
  In  In25  1  0.49350689  -0.00557821  0.88096891  1
  In  In26  1  0.51021295  0.32497357  0.38217356  1
  In  In27  1  0.50315741  0.33716224  0.86398272  1
  In  In28  1  0.48911456  0.66986678  0.37699793  1
  In  In29  1  0.51303842  0.66835943  0.87186576  1
  In  In30  1  0.84110525  -0.01858576  0.37706720  1
  In  In31  1  0.87350666  -0.03220064  0.92219361  1
  In  In32  1  0.82992616  0.34808003  0.37734729  1
  In  In33  1  0.82723100  0.32605800  0.86695240  1
  In  In34  1  0.83716633  0.66486902  0.37917924  1
  In  In35  1  0.86234523  0.71015114  0.83500262  1
  In  In36  1  0.01291280  0.16645692  0.37946035  1
  In  In37  1  -0.01059015  0.15063808  0.85471215  1
  In  In38  1  -0.00066354  0.50348252  0.38652257  1
  In  In39  1  0.01018123  0.51359956  0.86812216  1
  In  In40  1  -0.01050573  0.84490732  0.37716692  1
  In  In41  1  0.00511134  0.82987142  0.88199113  1
  In  In42  1  0.33200086  0.16408691  0.37792683  1
  In  In43  1  0.31507389  0.16953168  0.87021415  1
  In  In44  1  0.32500657  0.51040958  0.38437051  1
  In  In45  1  0.32614927  0.49291748  0.86663421  1
  In  In46  1  0.32673168  0.82074631  0.36526192  1
  In  In47  1  0.32504742  0.83581735  0.88253197  1
  In  In48  1  0.65322993  0.16499150  0.37706426  1
  In  In49  1  0.67344200  0.17554968  0.87228656  1
  In  In50  1  0.68275446  0.48573424  0.38394436  1
  In  In51  1  0.67240049  0.50487171  0.86389371  1
  In  In52  1  0.68067537  0.83676716  0.37655484  1
  In  In53  1  0.69244354  0.82176429  0.89039653  1
  In  In54  1  0.17210161  -0.00927801  0.13274398  1
  In  In55  1  0.15671004  -0.01157314  0.61691777  1
  In  In56  1  0.15636234  0.33040891  0.12004912  1
  In  In57  1  0.16680252  0.33334451  0.62973206  1
  In  In58  1  0.17124825  0.67781529  0.11687850  1
  In  In59  1  0.15331966  0.65668154  0.62027570  1
  In  In60  1  0.49870072  -0.01407031  0.12454059  1
  In  In61  1  0.48926313  0.00442613  0.62029960  1
  In  In62  1  0.50342778  0.34943060  0.12795178  1
  In  In63  1  0.49914848  0.33469733  0.62044544  1
  In  In64  1  0.49270797  0.66753603  0.12901492  1
  In  In65  1  0.51853918  0.66308420  0.62379698  1
  In  In66  1  0.83928907  0.00037256  0.11847013  1
  In  In67  1  0.85110404  -0.00572994  0.63152295  1
  In  In68  1  0.83376908  0.32740331  0.12666273  1
  In  In69  1  0.82180577  0.33770893  0.63244108  1
  In  In70  1  0.82824569  0.67490760  0.12136709  1
  In  In71  1  0.83941204  0.66485325  0.62664495  1
  In  In72  1  0.50289919  0.16875325  0.00169055  1
  In  In73  1  0.66595788  0.66913125  0.24833022  1
  In  In74  1  0.49856189  0.83518693  0.50087623  1
  In  In75  1  0.66600883  0.00103862  0.24645954  1
  In  In76  1  0.67600331  -0.00328112  0.75827154  1
  In  In77  1  0.32671046  0.00538488  0.75281106  1
  In  In78  1  0.49737594  0.50645801  0.00025816  1
  In  In79  1  0.15293725  0.15918328  -0.01228536  1
  In  In80  1  -0.00265644  0.32862522  0.24942489  1
  In  In81  1  0.83561243  0.51062688  -0.00737065  1
  In  In82  1  0.32829000  0.65827701  0.74412896  1
  In  In83  1  0.83467346  0.16646624  0.51239217  1
  In  In84  1  0.33489151  0.33138282  0.25815591  1
  In  In85  1  0.00213048  0.66762349  0.24775384  1
  Cu  Cu86  1  0.49882633  0.83340987  0.24716354  1
  Cu  Cu87  1  0.66480996  0.33359242  0.50441787  1
  Cu  Cu88  1  0.67561088  0.66392707  0.50315655  1
  Cu  Cu89  1  0.33467815  0.33508504  0.49955953  1
  Cu  Cu90  1  0.16628496  0.83046634  0.24673969  1
  Cu  Cu91  1  0.00246062  0.33516626  0.50849987  1
  Cu  Cu92  1  0.50651884  0.49877740  0.25734820  1
  Cu  Cu93  1  0.15920548  0.15192113  0.25175148  1
  Cu  Cu94  1  0.67329174  0.33577039  -0.00429549  1
  Cu  Cu95  1  0.33309674  0.66946317  0.50063563  1
  Cu  Cu96  1  0.50310730  0.49280464  0.74193566  1
  Cu  Cu97  1  0.66862361  -0.00450880  0.49941216  1
  Cu  Cu98  1  0.83651347  0.16374656  0.74816357  1
  Cu  Cu99  1  0.00307233  -0.00379673  0.50413512  1
  Cu  Cu100  1  0.16162279  0.50331458  0.74622471  1
  Cu  Cu101  1  0.15489121  0.83339752  0.74947140  1
  Cu  Cu102  1  0.32641745  0.33605140  -0.01147380  1
  Cu  Cu103  1  0.50309563  0.82856668  0.75522079  1
  Cu  Cu104  1  0.82657529  0.49827658  0.74592013  1
  Cu  Cu105  1  0.67023168  0.67564461  -0.00596321  1
  Cu  Cu106  1  0.00245028  0.66936717  0.50336526  1
  Cu  Cu107  1  0.32610538  -0.00619177  0.00184908  1
  Cu  Cu108  1  0.32648823  0.00420612  0.49707608  1
  Cu  Cu109  1  0.49628692  0.17118806  0.25458805  1
  Cu  Cu110  1  0.00156721  0.33810710  -0.00604966  1
  Cu  Cu111  1  0.50138381  0.17413932  0.74538377  1
  Cu  Cu112  1  0.82984959  0.16555504  0.24899980  1
  Cu  Cu113  1  0.17175810  0.50252589  0.25480622  1
  Cu  Cu114  1  0.33283390  0.66654075  0.00418837  1
  Se  Se115  1  0.08078324  0.07523989  0.06256329  1
  Se  Se116  1  0.08169817  0.08679726  0.55436541  1
  Se  Se117  1  0.08827078  0.41663533  0.04710214  1
  Se  Se118  1  0.08652621  0.41987999  0.56014339  1
  Se  Se119  1  0.07782503  0.74395130  0.05003526  1
  Se  Se120  1  0.08462330  0.75511063  0.55570530  1
  Se  Se121  1  0.40415153  0.08103571  0.05856239  1
  Se  Se122  1  0.41668139  0.08447193  0.54652573  1
  Se  Se123  1  0.40411602  0.41098116  0.05533774  1
  Se  Se124  1  0.41997503  0.41944146  0.55003924  1
  Se  Se125  1  0.41833388  0.74870078  0.05640973  1
  Se  Se126  1  0.41110406  0.74634419  0.56535459  1
  Se  Se127  1  0.74914786  0.08058011  0.05353911  1
  Se  Se128  1  0.74370891  0.07085058  0.56795584  1
  Se  Se129  1  0.74608824  0.42062198  0.05816976  1
  Se  Se130  1  0.75547519  0.41460865  0.55183842  1
  Se  Se131  1  0.75614331  0.75627285  0.04717548  1
  Se  Se132  1  0.75724264  0.74969302  0.55493034  1
  Se  Se133  1  0.24992339  0.25179869  0.04933353  1
  Se  Se134  1  0.24965110  0.25569755  0.55528629  1
  Se  Se135  1  0.25170210  0.57964310  0.05590053  1
  Se  Se136  1  0.24813023  0.58625299  0.55318959  1
  Se  Se137  1  0.24818065  0.91051703  0.05913936  1
  Se  Se138  1  0.24620295  0.91456771  0.54618585  1
  Se  Se139  1  0.59114579  0.26315443  0.06085369  1
  Se  Se140  1  0.57963699  0.24587994  0.55122304  1
  Se  Se141  1  0.59411328  0.59505514  0.05800214  1
  Se  Se142  1  0.58592203  0.58033142  0.54832951  1
  Se  Se143  1  0.57348662  0.92180489  0.04498162  1
  Se  Se144  1  0.59170713  0.91667184  0.56570009  1
  Se  Se145  1  0.91613079  0.26006467  0.05007529  1
  Se  Se146  1  0.92528515  0.25440558  0.57095808  1
  Se  Se147  1  0.92518285  0.59284012  0.05832211  1
  Se  Se148  1  0.91956604  0.58271946  0.55519665  1
  Se  Se149  1  0.91531575  0.91852293  0.04495471  1
  Se  Se150  1  0.91680093  0.91265451  0.55449703  1
  Se  Se151  1  0.08272228  0.24900594  0.45456084  1
  Se  Se152  1  0.07401060  0.25773512  0.92916414  1
  Se  Se153  1  0.08690603  0.58324048  0.45158117  1
  Se  Se154  1  0.08180650  0.57484301  0.95211848  1
  Se  Se155  1  0.08294431  0.91363668  0.44632492  1
  Se  Se156  1  0.09657660  0.90191964  0.95304534  1
  Se  Se157  1  0.41442703  0.24904450  0.44455669  1
  Se  Se158  1  0.41296285  0.25501769  0.93637447  1
  Se  Se159  1  0.41907697  0.58571932  0.45080000  1
  Se  Se160  1  0.40756970  0.59075625  0.93565812  1
  Se  Se161  1  0.40933650  0.92108101  0.43757641  1
  Se  Se162  1  0.41388310  0.91245353  0.95068765  1
  Se  Se163  1  0.74645628  0.25031249  0.44434353  1
  Se  Se164  1  0.75584998  0.25016785  0.94682161  1
  Se  Se165  1  0.75788495  0.58035057  0.44812245  1
  Se  Se166  1  0.74657144  0.59667603  0.93171888  1
  Se  Se167  1  0.75626573  0.91256420  0.45230572  1
  Se  Se168  1  0.73658334  0.93447600  0.95159785  1
  Se  Se169  1  0.24164542  0.08519105  0.44275852  1
  Se  Se170  1  0.24911719  0.06678007  0.93529914  1
  Se  Se171  1  0.24775708  0.42016034  0.45043057  1
  Se  Se172  1  0.24172461  0.41701868  0.93742627  1
  Se  Se173  1  0.25209793  0.75362506  0.44652064  1
  Se  Se174  1  0.24842577  0.75034603  0.95184818  1
  Se  Se175  1  0.58313763  0.07997363  0.45108632  1
  Se  Se176  1  0.58892534  0.08264255  0.93880335  1
  Se  Se177  1  0.58374921  0.41770176  0.44904992  1
  Se  Se178  1  0.58865502  0.41602611  0.94032797  1
  Se  Se179  1  0.59386496  0.74515139  0.44227954  1
  Se  Se180  1  0.57908667  0.75543986  0.94528477  1
  Se  Se181  1  0.91975087  0.07904748  0.44560790  1
  Se  Se182  1  0.93983123  0.09480323  0.94839398  1
  Se  Se183  1  0.91877143  0.41316630  0.45074009  1
  Se  Se184  1  0.91903000  0.41471996  0.93253901  1
  Se  Se185  1  0.91998403  0.74941417  0.44507507  1
  Se  Se186  1  0.90743040  0.74336330  0.93583981  1
  Se  Se187  1  0.23262560  0.24408690  0.30864580  1
  Se  Se188  1  0.26141790  0.25793218  0.79462914  1
  Se  Se189  1  0.25390185  0.58743691  0.30586075  1
  Se  Se190  1  0.23320103  0.58723570  0.81138894  1
  Se  Se191  1  0.24777774  0.91438762  0.30325311  1
  Se  Se192  1  0.23562083  0.91277844  0.81046370  1
  Se  Se193  1  0.58518091  0.25155876  0.30300878  1
  Se  Se194  1  0.58840052  0.25109802  0.80076802  1
  Se  Se195  1  0.58496378  0.58193782  0.31675323  1
  Se  Se196  1  0.57834239  0.58005942  0.79858498  1
  Se  Se197  1  0.57733839  0.91049698  0.31147160  1
  Se  Se198  1  0.58041912  0.90866958  0.81541367  1
  Se  Se199  1  0.90883968  0.24159526  0.31477453  1
  Se  Se200  1  0.91860009  0.25502257  0.79685974  1
  Se  Se201  1  0.91508812  0.57409441  0.30814613  1
  Se  Se202  1  0.91093594  0.57838987  0.80067676  1
  Se  Se203  1  0.91752934  0.91740191  0.29792085  1
  Se  Se204  1  0.92808223  0.93158511  0.82347935  1
  Se  Se205  1  0.07305264  0.07461694  0.30603884  1
  Se  Se206  1  0.11479881  0.10738005  0.80546761  1
  Se  Se207  1  0.08746490  0.42140108  0.31030436  1
  Se  Se208  1  0.07731863  0.41934080  0.79849158  1
  Se  Se209  1  0.08897728  0.75368793  0.31291747  1
  Se  Se210  1  0.08001335  0.74588990  0.80559811  1
  Se  Se211  1  0.41153946  0.08601294  0.30298973  1
  Se  Se212  1  0.42563219  0.09361790  0.80930197  1
  Se  Se213  1  0.42212772  0.42299783  0.31766677  1
  Se  Se214  1  0.41594524  0.41860214  0.79879584  1
  Se  Se215  1  0.41872419  0.74536296  0.29835127  1
  Se  Se216  1  0.41172068  0.75275759  0.80889300  1
  Se  Se217  1  0.75450671  0.08535912  0.31437672  1
  Se  Se218  1  0.76594502  0.08500915  0.81585971  1
  Se  Se219  1  0.74921433  0.41498721  0.30157842  1
  Se  Se220  1  0.74491885  0.41092692  0.79874148  1
  Se  Se221  1  0.76289730  0.75640859  0.30472225  1
  Se  Se222  1  0.72826080  0.74548958  0.80091593  1
  Se  Se223  1  0.25238970  0.07649506  0.20267237  1
  Se  Se224  1  0.24733667  0.08282664  0.68003947  1
  Se  Se225  1  0.24372931  0.41555826  0.19222726  1
  Se  Se226  1  0.25078595  0.42115863  0.69778350  1
  Se  Se227  1  0.25013882  0.74415462  0.19633244  1
  Se  Se228  1  0.24016564  0.75769746  0.68963847  1
  Se  Se229  1  0.57315275  0.09270407  0.18833265  1
  Se  Se230  1  0.57796449  0.08117617  0.69349459  1
  Se  Se231  1  0.58750515  0.41491756  0.20398566  1
  Se  Se232  1  0.58841228  0.41240819  0.68835905  1
  Se  Se233  1  0.58590547  0.76435541  0.18459579  1
  Se  Se234  1  0.58438070  0.74732610  0.69983309  1
  Se  Se235  1  0.91190108  0.08250313  0.19533152  1
  Se  Se236  1  0.92481912  0.07883439  0.70219386  1
  Se  Se237  1  0.91169439  0.42523959  0.19265184  1
  Se  Se238  1  0.91417397  0.41568733  0.69639097  1
  Se  Se239  1  0.91604921  0.75861453  0.18734732  1
  Se  Se240  1  0.91755121  0.74541258  0.70007036  1
  Se  Se241  1  0.08451875  0.23435738  0.18856439  1
  Se  Se242  1  0.08213431  0.25902828  0.70172373  1
  Se  Se243  1  0.09159122  0.57440921  0.18892282  1
  Se  Se244  1  0.07550878  0.58865861  0.69848006  1
  Se  Se245  1  0.07884503  0.91073579  0.19499621  1
  Se  Se246  1  0.07668169  0.91880919  0.69419708  1
  Se  Se247  1  0.41892471  0.24641555  0.18731406  1
  Se  Se248  1  0.41615103  0.25289686  0.69152268  1
  Se  Se249  1  0.42362811  0.58107919  0.20289729  1
  Se  Se250  1  0.42181184  0.57434636  0.68256905  1
  Se  Se251  1  0.41297463  0.91818843  0.19800003  1
  Se  Se252  1  0.42371668  0.91069089  0.69691888  1
  Se  Se253  1  0.74889427  0.25410405  0.19974951  1
  Se  Se254  1  0.74683746  0.24484755  0.69944481  1
  Se  Se255  1  0.76228807  0.57792922  0.19371261  1
  Se  Se256  1  0.74694134  0.58360458  0.69097473  1
  Se  Se257  1  0.75517647  0.90998581  0.18953362  1
  Se  Se258  1  0.76596064  0.90564877  0.69921476  1
