# generated using pymatgen
data_In86Cu29Se144
_symmetry_space_group_name_H-M   'P 1'
_cell_length_a   17.58221383
_cell_length_b   17.58266516
_cell_length_c   23.43981058
_cell_angle_alpha   89.97896937
_cell_angle_beta   90.01160735
_cell_angle_gamma   89.97346878
_symmetry_Int_Tables_number   1
_chemical_formula_structural   In86Cu29Se144
_chemical_formula_sum   'In86 Cu29 Se144'
_cell_volume   7246.23269176
_cell_formula_units_Z   1
loop_
 _symmetry_equiv_pos_site_id
 _symmetry_equiv_pos_as_xyz
  1  'x, y, z'
loop_
 _atom_site_type_symbol
 _atom_site_label
 _atom_site_symmetry_multiplicity
 _atom_site_fract_x
 _atom_site_fract_y
 _atom_site_fract_z
 _atom_site_occupancy
  In  In0  1  0.00931186  0.16578480  0.12459563  1
  In  In1  1  -0.00057388  0.16277603  0.62258771  1
  In  In2  1  -0.01032979  0.48813441  0.11866767  1
  In  In3  1  0.00496188  0.48442984  0.62068872  1
  In  In4  1  -0.00175827  0.83136095  0.11113091  1
  In  In5  1  0.01555645  0.83719517  0.62878378  1
  In  In6  1  0.33968099  0.17035964  0.11584047  1
  In  In7  1  0.32640793  0.17201175  0.64598499  1
  In  In8  1  0.31947297  0.49720965  0.12178806  1
  In  In9  1  0.33098283  0.50201163  0.63005186  1
  In  In10  1  0.33762222  0.83911914  0.11077369  1
  In  In11  1  0.34416934  0.82991843  0.63572680  1
  In  In12  1  0.66512352  0.18309921  0.12162958  1
  In  In13  1  0.67293322  0.16267199  0.63262997  1
  In  In14  1  0.67776279  0.49398890  0.13323748  1
  In  In15  1  0.65738747  0.50685875  0.63358150  1
  In  In16  1  0.65572013  0.82047301  0.11637615  1
  In  In17  1  0.65700026  0.83777301  0.62872178  1
  In  In18  1  0.18472928  0.01314031  0.37954035  1
  In  In19  1  0.16638843  0.00207938  0.86684640  1
  In  In20  1  0.17038550  0.32959868  0.37659910  1
  In  In21  1  0.17700094  0.32050029  0.88583864  1
  In  In22  1  0.15283865  0.66022836  0.37561792  1
  In  In23  1  0.17651879  0.65611480  0.87937609  1
  In  In24  1  0.49377970  -0.00990099  0.38688157  1
  In  In25  1  0.49276996  0.00470913  0.86825405  1
  In  In26  1  0.50422189  0.33729023  0.36419666  1
  In  In27  1  0.48417698  0.31648015  0.86004638  1
  In  In28  1  0.50851090  0.67299502  0.37690752  1
  In  In29  1  0.50941142  0.67717039  0.87021548  1
  In  In30  1  0.84497887  0.00555023  0.37923977  1
  In  In31  1  0.82230482  -0.00713601  0.86811704  1
  In  In32  1  0.82734364  0.32365196  0.36192847  1
  In  In33  1  0.82534030  0.34415821  0.88323522  1
  In  In34  1  0.82350142  0.66794661  0.36943655  1
  In  In35  1  0.82012074  0.67270233  0.88382990  1
  In  In36  1  -0.00798902  0.17917825  0.38706434  1
  In  In37  1  0.01734013  0.16491987  0.87158219  1
  In  In38  1  0.01061363  0.49654702  0.37420505  1
  In  In39  1  -0.00154864  0.49611684  0.88615657  1
  In  In40  1  -0.00283806  0.82733628  0.37353038  1
  In  In41  1  -0.01005206  0.84158584  0.87754594  1
  In  In42  1  0.32151660  0.15988965  0.37982805  1
  In  In43  1  0.32839541  0.16557226  0.86699276  1
  In  In44  1  0.33895771  0.48149810  0.37449895  1
  In  In45  1  0.32333365  0.48889232  0.86907995  1
  In  In46  1  0.34626586  0.84088444  0.37972462  1
  In  In47  1  0.33656834  0.83267833  0.87248788  1
  In  In48  1  0.67096901  0.18078145  0.37504559  1
  In  In49  1  0.64640063  0.14999126  0.85661297  1
  In  In50  1  0.67072135  0.49859188  0.36625575  1
  In  In51  1  0.66600468  0.50326086  0.87462608  1
  In  In52  1  0.65474976  0.82602310  0.37331677  1
  In  In53  1  0.66445271  0.83444430  0.87769908  1
  In  In54  1  0.17302912  0.00585623  0.10961078  1
  In  In55  1  0.16070656  0.01249871  0.64331605  1
  In  In56  1  0.16732817  0.33147482  0.12432126  1
  In  In57  1  0.17383659  0.33229052  0.62291033  1
  In  In58  1  0.16201466  0.66491312  0.11144268  1
  In  In59  1  0.18210192  0.66817528  0.62611944  1
  In  In60  1  0.49564438  -0.00444125  0.11350309  1
  In  In61  1  0.51138116  0.00030909  0.63959057  1
  In  In62  1  0.50624713  0.32763472  0.12713707  1
  In  In63  1  0.49916293  0.31996438  0.64456410  1
  In  In64  1  0.50905654  0.68401868  0.12253873  1
  In  In65  1  0.49618250  0.67347335  0.62807819  1
  In  In66  1  0.84382534  0.00177280  0.12049625  1
  In  In67  1  0.82377518  0.00822598  0.63224057  1
  In  In68  1  0.82203178  0.34792989  0.14067719  1
  In  In69  1  0.83799204  0.32435362  0.62339773  1
  In  In70  1  0.81972542  0.65483381  0.11804480  1
  In  In71  1  0.81932946  0.66788969  0.62656822  1
  In  In72  1  0.33658864  0.65936170  0.24718406  1
  In  In73  1  0.49325420  0.49981771  0.50655443  1
  In  In74  1  0.83194126  0.49607097  0.48834053  1
  In  In75  1  0.82873585  0.84204537  0.50600709  1
  In  In76  1  0.66775743  0.00545602  0.25322137  1
  In  In77  1  0.33856669  0.00251542  0.24496638  1
  In  In78  1  0.83318120  0.17014707  0.00112856  1
  In  In79  1  0.49928168  0.49972315  -0.00424587  1
  In  In80  1  0.49562554  0.16325592  0.51120073  1
  In  In81  1  0.00263840  0.00726624  0.24387007  1
  In  In82  1  0.00048677  0.67228768  0.75228205  1
  In  In83  1  -0.00030890  0.33169156  0.75172487  1
  In  In84  1  -0.00756539  0.65620909  0.24567716  1
  In  In85  1  0.17391434  0.83862876  0.50263028  1
  Cu  Cu86  1  0.50206611  0.49974297  0.24828260  1
  Cu  Cu87  1  0.67143724  0.33485204  0.49921228  1
  Cu  Cu88  1  0.33504927  0.66869994  -0.00423582  1
  Cu  Cu89  1  0.66241608  -0.00061021  -0.01001501  1
  Cu  Cu90  1  0.67053304  0.66474796  -0.00280891  1
  Cu  Cu91  1  0.82524795  0.83143362  0.24426517  1
  Cu  Cu92  1  0.49776149  0.16970986  0.24637060  1
  Cu  Cu93  1  0.32884055  0.32867148  -0.00650884  1
  Cu  Cu94  1  0.83407945  0.16997147  0.74909093  1
  Cu  Cu95  1  0.50488759  0.83041661  0.75505699  1
  Cu  Cu96  1  0.49830280  0.50313873  0.75380715  1
  Cu  Cu97  1  0.01276600  0.32356157  0.49963273  1
  Cu  Cu98  1  0.17343182  0.83606732  0.75277428  1
  Cu  Cu99  1  0.82864472  0.83678485  0.75589203  1
  Cu  Cu100  1  0.17296389  0.83503202  0.24043411  1
  Cu  Cu101  1  0.16628003  0.48795022  0.24875329  1
  Cu  Cu102  1  0.32869945  0.66417347  0.50683339  1
  Cu  Cu103  1  -0.00208950  0.65520962  0.49888113  1
  Cu  Cu104  1  0.16545294  0.17500903  0.25213233  1
  Cu  Cu105  1  0.33327705  0.32637389  0.50137894  1
  Cu  Cu106  1  0.00912442  0.00700218  0.50312835  1
  Cu  Cu107  1  0.82623997  0.50867888  0.75474967  1
  Cu  Cu108  1  0.16834326  0.49632973  0.75013873  1
  Cu  Cu109  1  0.66720227  0.00475621  0.50903948  1
  Cu  Cu110  1  -0.00015468  0.33592563  0.00342351  1
  Cu  Cu111  1  0.00128150  0.00178760  -0.00578199  1
  Cu  Cu112  1  0.66139918  0.32917619  0.00100760  1
  Cu  Cu113  1  0.33092531  0.00014075  -0.01219923  1
  Cu  Cu114  1  0.00242506  0.67178846  -0.00476238  1
  Se  Se115  1  0.08132415  0.08772471  0.04788720  1
  Se  Se116  1  0.09344834  0.08389032  0.55915444  1
  Se  Se117  1  0.08788338  0.41819101  0.05450024  1
  Se  Se118  1  0.09147185  0.41256397  0.55082187  1
  Se  Se119  1  0.08924490  0.75713358  0.04429774  1
  Se  Se120  1  0.07892750  0.73968559  0.55597351  1
  Se  Se121  1  0.41280960  0.07986488  0.04754689  1
  Se  Se122  1  0.41104827  0.08007674  0.57621161  1
  Se  Se123  1  0.40927033  0.40884799  0.05579658  1
  Se  Se124  1  0.41518198  0.39953780  0.56620482  1
  Se  Se125  1  0.42113156  0.74960204  0.04821054  1
  Se  Se126  1  0.41189960  0.74983626  0.55605190  1
  Se  Se127  1  0.73875944  0.07659591  0.05749039  1
  Se  Se128  1  0.75331471  0.09012384  0.55576886  1
  Se  Se129  1  0.74526712  0.40944855  0.05691422  1
  Se  Se130  1  0.74506424  0.41858377  0.56171993  1
  Se  Se131  1  0.75308142  0.75162820  0.05018667  1
  Se  Se132  1  0.73609432  0.74602731  0.55421491  1
  Se  Se133  1  0.24651636  0.24801921  0.05206077  1
  Se  Se134  1  0.25890728  0.24264322  0.56111748  1
  Se  Se135  1  0.25218976  0.58344451  0.04776842  1
  Se  Se136  1  0.24757934  0.57577002  0.55483259  1
  Se  Se137  1  0.24891735  0.91571778  0.04374361  1
  Se  Se138  1  0.24815791  0.91894403  0.57575757  1
  Se  Se139  1  0.57302313  0.24579648  0.04879207  1
  Se  Se140  1  0.58994936  0.26006304  0.56246242  1
  Se  Se141  1  0.59015514  0.58420428  0.05932021  1
  Se  Se142  1  0.58828215  0.59255366  0.55637104  1
  Se  Se143  1  0.58425345  0.91484088  0.04897450  1
  Se  Se144  1  0.58019116  0.92307002  0.55826490  1
  Se  Se145  1  0.91726419  0.25910382  0.06507996  1
  Se  Se146  1  0.92106635  0.24909695  0.55260480  1
  Se  Se147  1  0.92351366  0.59039499  0.05539501  1
  Se  Se148  1  0.91551531  0.58327383  0.56178167  1
  Se  Se149  1  0.91555552  0.91971268  0.04678369  1
  Se  Se150  1  0.92809895  0.92520247  0.56266824  1
  Se  Se151  1  0.09871342  0.23976154  0.44862132  1
  Se  Se152  1  0.07897032  0.24911305  0.95004953  1
  Se  Se153  1  0.08634015  0.57461487  0.45011797  1
  Se  Se154  1  0.08511006  0.58267272  0.94773200  1
  Se  Se155  1  0.07809961  0.92246399  0.43788404  1
  Se  Se156  1  0.08464853  0.92002025  0.93945796  1
  Se  Se157  1  0.42017022  0.25559176  0.43966555  1
  Se  Se158  1  0.41237112  0.24590617  0.94053735  1
  Se  Se159  1  0.40701731  0.58826395  0.44002572  1
  Se  Se160  1  0.41138920  0.58751830  0.93300380  1
  Se  Se161  1  0.39951015  0.92925685  0.45646366  1
  Se  Se162  1  0.41981572  0.91714917  0.94032064  1
  Se  Se163  1  0.75671085  0.25457722  0.44643503  1
  Se  Se164  1  0.73613496  0.24594059  0.93797448  1
  Se  Se165  1  0.73563766  0.59332612  0.44265720  1
  Se  Se166  1  0.75139944  0.57399635  0.94937695  1
  Se  Se167  1  0.74137823  0.92778735  0.43957920  1
  Se  Se168  1  0.75247624  0.91518129  0.94607185  1
  Se  Se169  1  0.26406387  0.07478049  0.45795531  1
  Se  Se170  1  0.24629015  0.08548345  0.93850209  1
  Se  Se171  1  0.25360273  0.41289618  0.44758003  1
  Se  Se172  1  0.24641496  0.42148526  0.94921625  1
  Se  Se173  1  0.25401746  0.74104450  0.43760838  1
  Se  Se174  1  0.25124827  0.75230076  0.94289641  1
  Se  Se175  1  0.59031168  0.08336550  0.44296299  1
  Se  Se176  1  0.57792358  0.08463640  0.94087971  1
  Se  Se177  1  0.58721796  0.41406476  0.44255630  1
  Se  Se178  1  0.58187636  0.40508124  0.93625473  1
  Se  Se179  1  0.56847468  0.76591547  0.44890701  1
  Se  Se180  1  0.58399183  0.74958645  0.94861371  1
  Se  Se181  1  0.91755086  0.08541929  0.45346152  1
  Se  Se182  1  0.91729765  0.08126339  0.93529418  1
  Se  Se183  1  0.92742216  0.40221120  0.43941398  1
  Se  Se184  1  0.91114520  0.41831982  0.95434919  1
  Se  Se185  1  0.91732911  0.74118493  0.44479933  1
  Se  Se186  1  0.91364333  0.75280960  0.94545284  1
  Se  Se187  1  0.25636466  0.24863966  0.30642825  1
  Se  Se188  1  0.24529411  0.25621123  0.80358164  1
  Se  Se189  1  0.24227381  0.57412659  0.30898370  1
  Se  Se190  1  0.25102056  0.58331881  0.80062837  1
  Se  Se191  1  0.24625598  0.91083344  0.30667825  1
  Se  Se192  1  0.25852587  0.92009388  0.80313226  1
  Se  Se193  1  0.58568606  0.24819702  0.30008078  1
  Se  Se194  1  0.60734405  0.27537455  0.80866995  1
  Se  Se195  1  0.57808463  0.58316524  0.30637412  1
  Se  Se196  1  0.58540925  0.58512879  0.80422719  1
  Se  Se197  1  0.57010187  0.91659800  0.30628565  1
  Se  Se198  1  0.58489231  0.91793908  0.80745249  1
  Se  Se199  1  0.92748046  0.24690464  0.30442546  1
  Se  Se200  1  0.90789646  0.24754246  0.81573550  1
  Se  Se201  1  0.90589096  0.57000115  0.31027023  1
  Se  Se202  1  0.91322630  0.58142069  0.81365492  1
  Se  Se203  1  0.91040302  0.90907301  0.30282033  1
  Se  Se204  1  0.91777480  0.92074339  0.80099046  1
  Se  Se205  1  0.09114716  0.08795685  0.31146398  1
  Se  Se206  1  0.08319203  0.08297742  0.79686732  1
  Se  Se207  1  0.08475332  0.40854824  0.30554089  1
  Se  Se208  1  0.08773079  0.42113979  0.81314161  1
  Se  Se209  1  0.08933696  0.75597770  0.29935378  1
  Se  Se210  1  0.09191601  0.75595784  0.81416182  1
  Se  Se211  1  0.42619426  0.08836579  0.31146396  1
  Se  Se212  1  0.43255532  0.10551508  0.79966411  1
  Se  Se213  1  0.41526705  0.41385036  0.29569887  1
  Se  Se214  1  0.41121429  0.41595789  0.79889075  1
  Se  Se215  1  0.41996202  0.75629574  0.30482497  1
  Se  Se216  1  0.41529866  0.74626505  0.80209245  1
  Se  Se217  1  0.76267265  0.09208516  0.31030238  1
  Se  Se218  1  0.75011851  0.08096546  0.79719342  1
  Se  Se219  1  0.74455657  0.41080865  0.29968366  1
  Se  Se220  1  0.74935650  0.41845739  0.80617374  1
  Se  Se221  1  0.74421433  0.75402617  0.30293340  1
  Se  Se222  1  0.74740078  0.75032246  0.80707679  1
  Se  Se223  1  0.24134258  0.09072660  0.19014824  1
  Se  Se224  1  0.25392068  0.07776975  0.71202744  1
  Se  Se225  1  0.25407319  0.40994568  0.19584133  1
  Se  Se226  1  0.25116712  0.41302751  0.69624643  1
  Se  Se227  1  0.25001177  0.75148620  0.18313908  1
  Se  Se228  1  0.25319568  0.74777418  0.70070882  1
  Se  Se229  1  0.57444236  0.08578677  0.18670224  1
  Se  Se230  1  0.58747165  0.09244890  0.70368441  1
  Se  Se231  1  0.58399025  0.41390739  0.19535763  1
  Se  Se232  1  0.58146219  0.41801519  0.70052034  1
  Se  Se233  1  0.58963304  0.74993995  0.19905117  1
  Se  Se234  1  0.58552249  0.74682932  0.69837348  1
  Se  Se235  1  0.90556943  0.09838520  0.19306130  1
  Se  Se236  1  0.91717404  0.08654842  0.69559691  1
  Se  Se237  1  0.92159493  0.42100374  0.20052340  1
  Se  Se238  1  0.90671113  0.42773985  0.69508666  1
  Se  Se239  1  0.91169189  0.75584867  0.18644311  1
  Se  Se240  1  0.90805958  0.76056260  0.68998689  1
  Se  Se241  1  0.08162261  0.25292313  0.19570695  1
  Se  Se242  1  0.08904098  0.24471323  0.69217759  1
  Se  Se243  1  0.09305862  0.57562771  0.18843137  1
  Se  Se244  1  0.08547863  0.57610192  0.69058757  1
  Se  Se245  1  0.09044541  0.91381389  0.18291436  1
  Se  Se246  1  0.08142366  0.91619478  0.70579504  1
  Se  Se247  1  0.41259333  0.24941022  0.19215703  1
  Se  Se248  1  0.43119654  0.22899957  0.71353900  1
  Se  Se249  1  0.42616562  0.57569825  0.18157367  1
  Se  Se250  1  0.41731026  0.58450648  0.69500824  1
  Se  Se251  1  0.42494537  0.90546473  0.18988042  1
  Se  Se252  1  0.42193913  0.91667480  0.70397841  1
  Se  Se253  1  0.74689730  0.24624741  0.19754374  1
  Se  Se254  1  0.75290599  0.25666834  0.69686153  1
  Se  Se255  1  0.74827524  0.58895209  0.19916146  1
  Se  Se256  1  0.74346939  0.59033481  0.70020876  1
  Se  Se257  1  0.75145658  0.91763064  0.18552867  1
  Se  Se258  1  0.74660279  0.91581657  0.69586173  1
