# generated using pymatgen
data_In86Cu29Se144
_symmetry_space_group_name_H-M   'P 1'
_cell_length_a   17.57923570
_cell_length_b   17.58040592
_cell_length_c   23.43449300
_cell_angle_alpha   89.97504121
_cell_angle_beta   89.98954507
_cell_angle_gamma   89.99544567
_symmetry_Int_Tables_number   1
_chemical_formula_structural   In86Cu29Se144
_chemical_formula_sum   'In86 Cu29 Se144'
_cell_volume   7242.43156181
_cell_formula_units_Z   1
loop_
 _symmetry_equiv_pos_site_id
 _symmetry_equiv_pos_as_xyz
  1  'x, y, z'
loop_
 _atom_site_type_symbol
 _atom_site_label
 _atom_site_symmetry_multiplicity
 _atom_site_fract_x
 _atom_site_fract_y
 _atom_site_fract_z
 _atom_site_occupancy
  In  In0  1  -0.01434156  0.16619209  0.12409062  1
  In  In1  1  -0.00493027  0.16631602  0.62322478  1
  In  In2  1  0.00404533  0.48733694  0.12159547  1
  In  In3  1  0.00342024  0.50031447  0.62630853  1
  In  In4  1  0.01149433  0.83933176  0.13036066  1
  In  In5  1  -0.00002910  0.83279764  0.62669043  1
  In  In6  1  0.34996618  0.16505691  0.12614159  1
  In  In7  1  0.33908829  0.17143524  0.61686326  1
  In  In8  1  0.33222396  0.49836836  0.12040334  1
  In  In9  1  0.33637680  0.50827191  0.62893380  1
  In  In10  1  0.33591406  0.81947378  0.12454622  1
  In  In11  1  0.32287116  0.82637396  0.61829432  1
  In  In12  1  0.66307653  0.16069261  0.12348650  1
  In  In13  1  0.65432239  0.15568393  0.61498054  1
  In  In14  1  0.65407066  0.50878725  0.12929015  1
  In  In15  1  0.65979991  0.49016908  0.61120220  1
  In  In16  1  0.66909576  0.84091767  0.12539689  1
  In  In17  1  0.67703646  0.84103927  0.61939021  1
  In  In18  1  0.15304941  0.01437899  0.38638758  1
  In  In19  1  0.15945588  0.00608975  0.86795058  1
  In  In20  1  0.17495288  0.32828358  0.38248067  1
  In  In21  1  0.17143267  0.35178041  0.86464423  1
  In  In22  1  0.17178518  0.66326474  0.38843306  1
  In  In23  1  0.16476887  0.64889217  0.85791430  1
  In  In24  1  0.50713239  -0.00937454  0.37910503  1
  In  In25  1  0.51066530  -0.00111996  0.87431918  1
  In  In26  1  0.48732492  0.34643331  0.38352692  1
  In  In27  1  0.50382525  0.33045332  0.88309020  1
  In  In28  1  0.50299197  0.66252398  0.38437026  1
  In  In29  1  0.49582610  0.66876196  0.87245016  1
  In  In30  1  0.83044905  0.00288256  0.37757680  1
  In  In31  1  0.83810974  0.00666745  0.86777754  1
  In  In32  1  0.82057386  0.33624078  0.39485823  1
  In  In33  1  0.82748458  0.32277438  0.87106368  1
  In  In34  1  0.83890620  0.66312322  0.38624766  1
  In  In35  1  0.83633574  0.65584749  0.86820320  1
  In  In36  1  0.00011784  0.16433125  0.38239522  1
  In  In37  1  -0.00944495  0.16163164  0.86235905  1
  In  In38  1  -0.00041374  0.50388603  0.38347376  1
  In  In39  1  0.01192236  0.50676164  0.85403692  1
  In  In40  1  -0.01512653  0.84814486  0.39017040  1
  In  In41  1  0.00044104  0.83118351  0.86443840  1
  In  In42  1  0.32445808  0.17698542  0.38022106  1
  In  In43  1  0.34080967  0.17641279  0.87434866  1
  In  In44  1  0.34347141  0.48644901  0.38204358  1
  In  In45  1  0.32940523  0.50256022  0.87367396  1
  In  In46  1  0.33470702  0.83074249  0.38758927  1
  In  In47  1  0.35235038  0.82804049  0.87395619  1
  In  In48  1  0.67605039  0.16061591  0.38511322  1
  In  In49  1  0.67595643  0.16504925  0.87854778  1
  In  In50  1  0.65977831  0.49417939  0.38694668  1
  In  In51  1  0.66410101  0.49541129  0.87778854  1
  In  In52  1  0.65979701  0.83901422  0.38115687  1
  In  In53  1  0.64654479  0.83540115  0.87214640  1
  In  In54  1  0.16054169  -0.00758795  0.13040103  1
  In  In55  1  0.15761535  -0.00930042  0.61880261  1
  In  In56  1  0.16414792  0.34917972  0.12074062  1
  In  In57  1  0.16108715  0.32846455  0.62222112  1
  In  In58  1  0.17761645  0.66274872  0.12387611  1
  In  In59  1  0.16385936  0.66276229  0.62983613  1
  In  In60  1  0.51284035  0.01121042  0.12052032  1
  In  In61  1  0.51427956  0.01022443  0.62125269  1
  In  In62  1  0.49570751  0.33011454  0.12613671  1
  In  In63  1  0.50169420  0.33107446  0.61715105  1
  In  In64  1  0.49774415  0.66036257  0.11016720  1
  In  In65  1  0.48336704  0.65490729  0.62471952  1
  In  In66  1  0.82160593  0.00596293  0.13384932  1
  In  In67  1  0.83227814  -0.00101650  0.62508446  1
  In  In68  1  0.84748539  0.32644549  0.12284183  1
  In  In69  1  0.83647276  0.34319216  0.61075559  1
  In  In70  1  0.82295594  0.66613743  0.12578909  1
  In  In71  1  0.84148307  0.67236217  0.61899034  1
  In  In72  1  0.17138149  0.17090851  -0.00830627  1
  In  In73  1  0.17127703  0.82892026  0.00152766  1
  In  In74  1  0.00170346  0.67158458  0.26179134  1
  In  In75  1  0.66476955  0.66539144  0.25830906  1
  In  In76  1  0.66592536  0.33034192  0.74038615  1
  In  In77  1  0.83048688  0.49128533  -0.00223300  1
  In  In78  1  0.33617968  0.33480314  0.74204627  1
  In  In79  1  -0.00030235  0.32957759  0.25194024  1
  In  In80  1  0.83003710  0.83638008  0.00579311  1
  In  In81  1  0.66938669  0.66918729  0.74883639  1
  In  In82  1  0.33644831  0.00183987  0.25075619  1
  In  In83  1  0.33289259  -0.00429309  0.75126076  1
  In  In84  1  0.33570851  0.66544036  0.24804154  1
  In  In85  1  0.66710827  0.33128868  0.26164427  1
  Cu  Cu86  1  0.83779386  0.49992057  0.73937421  1
  Cu  Cu87  1  0.32944149  0.66625211  0.50549475  1
  Cu  Cu88  1  0.00359264  0.33228287  0.50157664  1
  Cu  Cu89  1  0.17102269  0.49763651  0.24858039  1
  Cu  Cu90  1  0.66333182  0.67062408  0.50511765  1
  Cu  Cu91  1  0.49996069  0.83353164  0.74478879  1
  Cu  Cu92  1  0.83699862  0.84013484  0.25471376  1
  Cu  Cu93  1  -0.00488224  0.00703605  -0.00515268  1
  Cu  Cu94  1  0.32687934  0.33716387  0.50439778  1
  Cu  Cu95  1  0.16478635  0.17038356  0.25855811  1
  Cu  Cu96  1  0.34796027  -0.00353412  -0.00206706  1
  Cu  Cu97  1  0.00048190  0.65766470  -0.01027340  1
  Cu  Cu98  1  0.83016563  0.16524384  0.74354137  1
  Cu  Cu99  1  0.33955597  0.00283814  0.50197570  1
  Cu  Cu100  1  0.33863955  0.33666953  -0.00141282  1
  Cu  Cu101  1  0.50624059  0.83597171  0.25118873  1
  Cu  Cu102  1  0.16061093  0.16290375  0.74189474  1
  Cu  Cu103  1  0.15906511  0.84675463  0.26197081  1
  Cu  Cu104  1  0.83346576  0.84088783  0.74414543  1
  Cu  Cu105  1  0.00521762  0.66517641  0.50791335  1
  Cu  Cu106  1  0.66827475  0.00255868  0.00137922  1
  Cu  Cu107  1  0.50404096  0.16860578  0.25016584  1
  Cu  Cu108  1  0.33308499  0.66133142  -0.00473815  1
  Cu  Cu109  1  0.16486481  0.82823812  0.74306366  1
  Cu  Cu110  1  0.83374937  0.16352643  0.25525350  1
  Cu  Cu111  1  -0.00482823  0.00104755  0.50483562  1
  Cu  Cu112  1  0.66362671  0.32827836  0.00312375  1
  Cu  Cu113  1  0.67021234  -0.00455453  0.50002873  1
  Cu  Cu114  1  0.00282800  0.33475836  -0.00655564  1
  Se  Se115  1  0.08310618  0.07999069  0.05565580  1
  Se  Se116  1  0.08211964  0.08505667  0.55451734  1
  Se  Se117  1  0.08503896  0.42107818  0.04399257  1
  Se  Se118  1  0.08467283  0.41809251  0.55422375  1
  Se  Se119  1  0.07341038  0.73797309  0.05732330  1
  Se  Se120  1  0.08708214  0.75155000  0.55929659  1
  Se  Se121  1  0.42314705  0.08597805  0.05137922  1
  Se  Se122  1  0.42445591  0.08694501  0.55231281  1
  Se  Se123  1  0.42110237  0.41774751  0.05492464  1
  Se  Se124  1  0.41072011  0.41846923  0.55900992  1
  Se  Se125  1  0.41329008  0.74984418  0.04771954  1
  Se  Se126  1  0.41758739  0.74970869  0.55437334  1
  Se  Se127  1  0.75405367  0.08463516  0.05508532  1
  Se  Se128  1  0.75208495  0.08030385  0.55307780  1
  Se  Se129  1  0.74289765  0.40751589  0.06610403  1
  Se  Se130  1  0.75074922  0.42152840  0.54331539  1
  Se  Se131  1  0.73523900  0.73953472  0.05449687  1
  Se  Se132  1  0.75379887  0.75219056  0.55182841  1
  Se  Se133  1  0.25709367  0.25534794  0.05958928  1
  Se  Se134  1  0.24554191  0.24725016  0.55306586  1
  Se  Se135  1  0.24794880  0.58068214  0.05039164  1
  Se  Se136  1  0.24724423  0.58180662  0.55853565  1
  Se  Se137  1  0.26158823  0.92544093  0.05972967  1
  Se  Se138  1  0.25092078  0.91956835  0.55099771  1
  Se  Se139  1  0.58008435  0.24695093  0.05847326  1
  Se  Se140  1  0.59413480  0.25995623  0.55076030  1
  Se  Se141  1  0.58707915  0.57866016  0.04879435  1
  Se  Se142  1  0.57666875  0.58649941  0.55439494  1
  Se  Se143  1  0.58540864  0.91687917  0.05381477  1
  Se  Se144  1  0.58292250  0.91508162  0.55311081  1
  Se  Se145  1  0.92106566  0.24966668  0.04628086  1
  Se  Se146  1  0.91680483  0.24744778  0.55003945  1
  Se  Se147  1  0.92064642  0.58771443  0.05804911  1
  Se  Se148  1  0.91742034  0.57897613  0.55454614  1
  Se  Se149  1  0.92551987  0.92590201  0.06195978  1
  Se  Se150  1  0.91465295  0.91332590  0.55691155  1
  Se  Se151  1  0.08616386  0.24771814  0.44759487  1
  Se  Se152  1  0.07979813  0.25483186  0.92991733  1
  Se  Se153  1  0.08595366  0.57986833  0.45282633  1
  Se  Se154  1  0.08403236  0.57843793  0.93531247  1
  Se  Se155  1  0.08402295  0.91828007  0.45342460  1
  Se  Se156  1  0.07745508  0.92066668  0.94204012  1
  Se  Se157  1  0.41071070  0.25378150  0.44969680  1
  Se  Se158  1  0.41989281  0.24624844  0.95077978  1
  Se  Se159  1  0.41150645  0.58467938  0.44816313  1
  Se  Se160  1  0.41797295  0.58040369  0.94156284  1
  Se  Se161  1  0.42127184  0.91530873  0.45032083  1
  Se  Se162  1  0.42778811  0.91366402  0.94321215  1
  Se  Se163  1  0.74302480  0.24781305  0.45898234  1
  Se  Se164  1  0.75266757  0.25147844  0.94983649  1
  Se  Se165  1  0.74328075  0.58674947  0.44790715  1
  Se  Se166  1  0.74523012  0.59151928  0.94268192  1
  Se  Se167  1  0.75433848  0.91257231  0.44631374  1
  Se  Se168  1  0.74626856  0.92232372  0.93857342  1
  Se  Se169  1  0.25288043  0.08459994  0.44857056  1
  Se  Se170  1  0.26198649  0.07093842  0.93792605  1
  Se  Se171  1  0.24514000  0.42243643  0.45020103  1
  Se  Se172  1  0.25187638  0.41496443  0.94409220  1
  Se  Se173  1  0.24652278  0.75410449  0.45509595  1
  Se  Se174  1  0.25276635  0.74216823  0.93457739  1
  Se  Se175  1  0.58415115  0.07814199  0.44775480  1
  Se  Se176  1  0.58614500  0.08538604  0.94527658  1
  Se  Se177  1  0.57746252  0.41444172  0.45455359  1
  Se  Se178  1  0.58579087  0.41624583  0.95000660  1
  Se  Se179  1  0.58013991  0.75290082  0.44921404  1
  Se  Se180  1  0.58148271  0.74645055  0.94206385  1
  Se  Se181  1  0.91263746  0.08398839  0.44881710  1
  Se  Se182  1  0.91374272  0.08949021  0.94151205  1
  Se  Se183  1  0.91933940  0.41776617  0.45048465  1
  Se  Se184  1  0.92269701  0.41453857  0.93125590  1
  Se  Se185  1  0.91893719  0.74731771  0.45418795  1
  Se  Se186  1  0.91918649  0.74632092  0.94014424  1
  Se  Se187  1  0.25086465  0.25601209  0.30351715  1
  Se  Se188  1  0.24275907  0.24058218  0.80325929  1
  Se  Se189  1  0.24605790  0.57932663  0.31085433  1
  Se  Se190  1  0.26539862  0.58334614  0.79441595  1
  Se  Se191  1  0.24878263  0.91949809  0.31828702  1
  Se  Se192  1  0.24242368  0.90269053  0.81162561  1
  Se  Se193  1  0.57583745  0.24293574  0.31977097  1
  Se  Se194  1  0.58283223  0.24607376  0.80964556  1
  Se  Se195  1  0.57233556  0.57129582  0.31055222  1
  Se  Se196  1  0.58098092  0.57510834  0.80560908  1
  Se  Se197  1  0.58925721  0.91882073  0.30312901  1
  Se  Se198  1  0.58199197  0.91984918  0.79584849  1
  Se  Se199  1  0.90499890  0.25022329  0.31587401  1
  Se  Se200  1  0.91081478  0.25169650  0.79703880  1
  Se  Se201  1  0.90814572  0.57449897  0.30842146  1
  Se  Se202  1  0.91704103  0.58772108  0.79273926  1
  Se  Se203  1  0.91936242  0.92265173  0.30841263  1
  Se  Se204  1  0.91926012  0.92008760  0.80091645  1
  Se  Se205  1  0.07889857  0.08680168  0.30677061  1
  Se  Se206  1  0.07779251  0.07920926  0.79568874  1
  Se  Se207  1  0.08833200  0.42262224  0.31052912  1
  Se  Se208  1  0.07443099  0.40264181  0.79291988  1
  Se  Se209  1  0.08867423  0.76041080  0.32286760  1
  Se  Se210  1  0.08275588  0.74542346  0.79958689  1
  Se  Se211  1  0.42297130  0.08991684  0.31342267  1
  Se  Se212  1  0.42314996  0.08949467  0.80668179  1
  Se  Se213  1  0.41162154  0.41273691  0.30310656  1
  Se  Se214  1  0.42420741  0.41487791  0.81063106  1
  Se  Se215  1  0.42359340  0.75744966  0.30995383  1
  Se  Se216  1  0.41861917  0.74747286  0.79645063  1
  Se  Se217  1  0.74595315  0.08282920  0.30641407  1
  Se  Se218  1  0.74826174  0.08554654  0.80168262  1
  Se  Se219  1  0.75845755  0.42541496  0.31513037  1
  Se  Se220  1  0.75561684  0.42495770  0.80258651  1
  Se  Se221  1  0.76060785  0.75539660  0.31374069  1
  Se  Se222  1  0.75750876  0.76227346  0.81049302  1
  Se  Se223  1  0.24242743  0.09290313  0.19162194  1
  Se  Se224  1  0.24847611  0.08598773  0.68617884  1
  Se  Se225  1  0.25220408  0.41651862  0.19315622  1
  Se  Se226  1  0.23883358  0.42268297  0.69110802  1
  Se  Se227  1  0.23470172  0.76333763  0.19971902  1
  Se  Se228  1  0.25369557  0.74694485  0.69551263  1
  Se  Se229  1  0.58725618  0.08270634  0.19980956  1
  Se  Se230  1  0.58655115  0.08635951  0.69759524  1
  Se  Se231  1  0.57800403  0.41803614  0.19805733  1
  Se  Se232  1  0.57216856  0.42608450  0.69084211  1
  Se  Se233  1  0.57731493  0.74912699  0.18931709  1
  Se  Se234  1  0.58036486  0.75327254  0.68402723  1
  Se  Se235  1  0.91658943  0.08255853  0.19860372  1
  Se  Se236  1  0.91704964  0.08050435  0.69400666  1
  Se  Se237  1  0.90874944  0.42537946  0.19527914  1
  Se  Se238  1  0.91648241  0.41005447  0.68948790  1
  Se  Se239  1  0.91071039  0.75641715  0.19254709  1
  Se  Se240  1  0.91391618  0.75093538  0.69592861  1
  Se  Se241  1  0.09004071  0.24368214  0.18689340  1
  Se  Se242  1  0.07795916  0.24982310  0.69316031  1
  Se  Se243  1  0.08674229  0.58020104  0.19286527  1
  Se  Se244  1  0.07339119  0.58905474  0.69777638  1
  Se  Se245  1  0.07618699  0.92566313  0.20598639  1
  Se  Se246  1  0.08206615  0.91779295  0.69682070  1
  Se  Se247  1  0.41663486  0.25030284  0.20046111  1
  Se  Se248  1  0.42996583  0.23937748  0.69221644  1
  Se  Se249  1  0.42653941  0.57782421  0.18984139  1
  Se  Se250  1  0.41041965  0.58611158  0.70546256  1
  Se  Se251  1  0.42279152  0.91019926  0.18824044  1
  Se  Se252  1  0.41954866  0.91336860  0.68383506  1
  Se  Se253  1  0.75714627  0.24650035  0.19372565  1
  Se  Se254  1  0.75625677  0.24468723  0.67943001  1
  Se  Se255  1  0.75682457  0.57353991  0.19824267  1
  Se  Se256  1  0.75017280  0.57673516  0.68304453  1
  Se  Se257  1  0.74643818  0.91540380  0.20101226  1
  Se  Se258  1  0.74441822  0.92235300  0.69683357  1
