# generated using pymatgen
data_In86Cu29Se144
_symmetry_space_group_name_H-M   'P 1'
_cell_length_a   17.56596083
_cell_length_b   17.56630793
_cell_length_c   23.42483206
_cell_angle_alpha   90.01892954
_cell_angle_beta   89.98586256
_cell_angle_gamma   89.99631640
_symmetry_Int_Tables_number   1
_chemical_formula_structural   In86Cu29Se144
_chemical_formula_sum   'In86 Cu29 Se144'
_cell_volume   7228.17817943
_cell_formula_units_Z   1
loop_
 _symmetry_equiv_pos_site_id
 _symmetry_equiv_pos_as_xyz
  1  'x, y, z'
loop_
 _atom_site_type_symbol
 _atom_site_label
 _atom_site_symmetry_multiplicity
 _atom_site_fract_x
 _atom_site_fract_y
 _atom_site_fract_z
 _atom_site_occupancy
  In  In0  1  -0.00562293  0.16582764  0.15108109  1
  In  In1  1  0.01178340  0.18828840  0.59053132  1
  In  In2  1  0.00210062  0.50054191  0.13996092  1
  In  In3  1  -0.00745366  0.48193568  0.60257685  1
  In  In4  1  0.00121134  0.83217370  0.13006952  1
  In  In5  1  0.01069167  0.84021086  0.62377866  1
  In  In6  1  0.33492161  0.16393792  0.13329703  1
  In  In7  1  0.33941784  0.16622256  0.61885384  1
  In  In8  1  0.34558921  0.48932271  0.12998568  1
  In  In9  1  0.32500084  0.50582911  0.62517199  1
  In  In10  1  0.31736585  0.84384785  0.12594941  1
  In  In11  1  0.33226380  0.83150193  0.64871127  1
  In  In12  1  0.66882927  0.16648263  0.14732955  1
  In  In13  1  0.67620230  0.17990529  0.61016698  1
  In  In14  1  0.66508885  0.50237329  0.13095630  1
  In  In15  1  0.67059263  0.49919159  0.63474435  1
  In  In16  1  0.67335463  0.81892046  0.12774104  1
  In  In17  1  0.65092283  0.83107729  0.62907087  1
  In  In18  1  0.18266831  0.01812017  0.37093575  1
  In  In19  1  0.17584647  -0.01187375  0.88080424  1
  In  In20  1  0.16323635  0.32965099  0.38289766  1
  In  In21  1  0.16955154  0.32126884  0.87063617  1
  In  In22  1  0.15957277  0.65808829  0.36680565  1
  In  In23  1  0.18184435  0.67455361  0.86980687  1
  In  In24  1  0.50267024  0.00649300  0.37075575  1
  In  In25  1  0.49358522  0.00744065  0.87510776  1
  In  In26  1  0.48581573  0.31830435  0.36801370  1
  In  In27  1  0.50666818  0.33993273  0.86553419  1
  In  In28  1  0.50265371  0.67103821  0.36562642  1
  In  In29  1  0.48602091  0.66065743  0.87253405  1
  In  In30  1  0.85202244  0.03603546  0.34322423  1
  In  In31  1  0.81807466  -0.00551046  0.87952725  1
  In  In32  1  0.83863596  0.33545630  0.37678275  1
  In  In33  1  0.81464113  0.34484104  0.87247499  1
  In  In34  1  0.82615423  0.65427817  0.37215112  1
  In  In35  1  0.84115630  0.67011176  0.87545487  1
  In  In36  1  0.00153854  0.17618461  0.37871591  1
  In  In37  1  0.00586362  0.16946495  0.87369681  1
  In  In38  1  -0.00053879  0.49248693  0.37954241  1
  In  In39  1  -0.01120316  0.51026517  0.87564224  1
  In  In40  1  0.00042226  0.83616053  0.36585069  1
  In  In41  1  -0.00052635  0.82964616  0.88411142  1
  In  In42  1  0.32465398  0.15905219  0.38371490  1
  In  In43  1  0.33977857  0.17135229  0.86042239  1
  In  In44  1  0.32450750  0.48955213  0.37001998  1
  In  In45  1  0.34325668  0.50986724  0.86851098  1
  In  In46  1  0.33876525  0.83836811  0.36688399  1
  In  In47  1  0.32771800  0.83325338  0.86884728  1
  In  In48  1  0.66662078  0.16894833  0.36992457  1
  In  In49  1  0.65684479  0.16562318  0.87007298  1
  In  In50  1  0.67562191  0.50662793  0.37369677  1
  In  In51  1  0.65590687  0.48353170  0.86458916  1
  In  In52  1  0.66547352  0.83512795  0.36648440  1
  In  In53  1  0.68070017  0.83641962  0.88276496  1
  In  In54  1  0.17236688  -0.01205671  0.13350606  1
  In  In55  1  0.17399846  0.00645221  0.62253495  1
  In  In56  1  0.17073754  0.32865784  0.13786858  1
  In  In57  1  0.17165444  0.33972860  0.61208327  1
  In  In58  1  0.15890201  0.67537190  0.13215287  1
  In  In59  1  0.17802593  0.66212342  0.62464163  1
  In  In60  1  0.48952039  0.00365351  0.13011832  1
  In  In61  1  0.48472491  0.00584455  0.62009936  1
  In  In62  1  0.49582104  0.33751299  0.13229163  1
  In  In63  1  0.50986977  0.32522500  0.62305089  1
  In  In64  1  0.51043721  0.65555947  0.12653215  1
  In  In65  1  0.49791977  0.67589188  0.63748768  1
  In  In66  1  0.84316844  -0.00956057  0.14206141  1
  In  In67  1  0.82710082  0.01324961  0.62039437  1
  In  In68  1  0.82669923  0.33624325  0.14915970  1
  In  In69  1  0.82617498  0.33320142  0.61326038  1
  In  In70  1  0.82812747  0.67099686  0.12949404  1
  In  In71  1  0.83323690  0.65400796  0.62381345  1
  In  In72  1  0.00141199  0.66090680  0.75275757  1
  In  In73  1  0.17399619  0.83519792  0.50423872  1
  In  In74  1  0.83008903  0.84152804  0.48804450  1
  In  In75  1  0.49952113  0.50009370  0.50078057  1
  In  In76  1  0.16881995  0.15829506  0.01457619  1
  In  In77  1  0.00037249  0.33553450  0.73297598  1
  In  In78  1  0.17523266  0.50697732  -0.00180654  1
  In  In79  1  0.00615973  0.00433188  0.73858077  1
  In  In80  1  0.83741261  0.15685459  0.01201773  1
  In  In81  1  0.82951087  0.50532629  0.00603001  1
  In  In82  1  0.66026376  -0.00147091  0.75144121  1
  In  In83  1  0.49818207  0.16402745  0.01043367  1
  In  In84  1  0.49398300  0.82927302  -0.00543248  1
  In  In85  1  0.49777423  0.83918055  0.50280306  1
  Cu  Cu86  1  0.00334139  0.67875789  0.00456146  1
  Cu  Cu87  1  -0.00157667  0.33675450  0.01235818  1
  Cu  Cu88  1  0.66434453  0.33078610  -0.00154086  1
  Cu  Cu89  1  0.66897743  -0.01092349  0.00949540  1
  Cu  Cu90  1  0.32982951  0.32777499  0.49622758  1
  Cu  Cu91  1  0.18178584  0.16487126  0.74307095  1
  Cu  Cu92  1  0.15670144  0.49376294  0.74271153  1
  Cu  Cu93  1  0.50658032  0.49800590  0.25361835  1
  Cu  Cu94  1  0.33221779  0.66443270  0.49899620  1
  Cu  Cu95  1  0.49140358  0.49818597  0.74634471  1
  Cu  Cu96  1  -0.00238694  0.00227326  0.48692499  1
  Cu  Cu97  1  0.16551238  0.17018098  0.25993383  1
  Cu  Cu98  1  0.66555762  0.33834946  0.49261518  1
  Cu  Cu99  1  0.33414891  0.66954143  -0.00118068  1
  Cu  Cu100  1  0.83781549  0.17712137  0.73907225  1
  Cu  Cu101  1  0.34698999  0.34028331  -0.00090454  1
  Cu  Cu102  1  0.49167568  0.16964085  0.25581930  1
  Cu  Cu103  1  0.49238762  0.82700160  0.24219843  1
  Cu  Cu104  1  0.66636101  0.65838299  0.00364170  1
  Cu  Cu105  1  0.67025835  0.66566175  0.50324167  1
  Cu  Cu106  1  0.83094968  0.82778144  0.24969652  1
  Cu  Cu107  1  0.17204632  0.49963811  0.25533195  1
  Cu  Cu108  1  0.50370314  0.17167407  0.74351664  1
  Cu  Cu109  1  -0.00263689  -0.00962454  0.00826869  1
  Cu  Cu110  1  0.84203139  0.49664140  0.25584749  1
  Cu  Cu111  1  0.00110902  0.65486712  0.49378061  1
  Cu  Cu112  1  0.16378344  0.83655180  0.25246543  1
  Cu  Cu113  1  0.67112381  0.01493469  0.49053865  1
  Cu  Cu114  1  0.83810860  0.83255966  0.75363155  1
  Se  Se115  1  0.06583873  0.07987705  0.07077683  1
  Se  Se116  1  0.08347754  0.07189517  0.54939380  1
  Se  Se117  1  0.08649004  0.41726556  0.06374539  1
  Se  Se118  1  0.07583855  0.39744946  0.54003131  1
  Se  Se119  1  0.08960770  0.75875516  0.05667535  1
  Se  Se120  1  0.07604159  0.73884465  0.55561226  1
  Se  Se121  1  0.39743262  0.07229905  0.05502754  1
  Se  Se122  1  0.42644921  0.09395072  0.54603892  1
  Se  Se123  1  0.42955721  0.42062285  0.05351917  1
  Se  Se124  1  0.40888110  0.40906589  0.55870334  1
  Se  Se125  1  0.41245042  0.74488838  0.06492556  1
  Se  Se126  1  0.40710940  0.74590588  0.56085219  1
  Se  Se127  1  0.74167837  0.07435915  0.07146908  1
  Se  Se128  1  0.75975626  0.09340956  0.54363261  1
  Se  Se129  1  0.74875117  0.40291105  0.06228142  1
  Se  Se130  1  0.73721113  0.42381948  0.55327794  1
  Se  Se131  1  0.75135913  0.74410612  0.05147648  1
  Se  Se132  1  0.74621087  0.75571071  0.55864266  1
  Se  Se133  1  0.26321646  0.26205594  0.05958788  1
  Se  Se134  1  0.24838496  0.24290326  0.55067405  1
  Se  Se135  1  0.25884256  0.59127537  0.06563241  1
  Se  Se136  1  0.24609285  0.57941290  0.54814535  1
  Se  Se137  1  0.24287525  0.92224891  0.05126536  1
  Se  Se138  1  0.27034974  0.91535888  0.56478506  1
  Se  Se139  1  0.59525098  0.25092660  0.06620260  1
  Se  Se140  1  0.58189826  0.25240117  0.54343811  1
  Se  Se141  1  0.58474013  0.57179460  0.05293202  1
  Se  Se142  1  0.58268129  0.59411068  0.56257230  1
  Se  Se143  1  0.57953501  0.91454068  0.06384013  1
  Se  Se144  1  0.59747032  0.93170084  0.55457593  1
  Se  Se145  1  0.91944694  0.25678803  0.07150439  1
  Se  Se146  1  0.90752243  0.26110861  0.53878433  1
  Se  Se147  1  0.93020120  0.58820612  0.06223855  1
  Se  Se148  1  0.91011393  0.58058649  0.54707671  1
  Se  Se149  1  0.91097038  0.91216752  0.06230590  1
  Se  Se150  1  0.92331438  0.92535134  0.55514477  1
  Se  Se151  1  0.08764889  0.24279258  0.45318675  1
  Se  Se152  1  0.07958918  0.25596947  0.95086930  1
  Se  Se153  1  0.09153198  0.57709378  0.44374867  1
  Se  Se154  1  0.07796957  0.59612571  0.94080457  1
  Se  Se155  1  0.08449289  0.91814200  0.43695709  1
  Se  Se156  1  0.08244146  0.91714080  0.94860006  1
  Se  Se157  1  0.41599633  0.24476091  0.44716028  1
  Se  Se158  1  0.41914790  0.25183405  0.93989193  1
  Se  Se159  1  0.41389136  0.58964341  0.43674402  1
  Se  Se160  1  0.41495523  0.58049428  0.94969223  1
  Se  Se161  1  0.40870660  0.92568256  0.44227939  1
  Se  Se162  1  0.40542989  0.92705480  0.94247110  1
  Se  Se163  1  0.74652593  0.25191004  0.44093142  1
  Se  Se164  1  0.74658659  0.24485621  0.94379864  1
  Se  Se165  1  0.75233790  0.58085906  0.45140677  1
  Se  Se166  1  0.74269362  0.58203857  0.93542816  1
  Se  Se167  1  0.74552011  0.93252806  0.42822820  1
  Se  Se168  1  0.75896028  0.91105620  0.95901897  1
  Se  Se169  1  0.24796720  0.07764979  0.45714619  1
  Se  Se170  1  0.25715200  0.09221679  0.93784613  1
  Se  Se171  1  0.24951916  0.41839824  0.44801451  1
  Se  Se172  1  0.25718646  0.40863399  0.93830511  1
  Se  Se173  1  0.25508329  0.74604611  0.43657083  1
  Se  Se174  1  0.25229470  0.75401023  0.94618246  1
  Se  Se175  1  0.57812170  0.09170422  0.44170567  1
  Se  Se176  1  0.59315293  0.07288868  0.94861420  1
  Se  Se177  1  0.57992915  0.41313354  0.43256324  1
  Se  Se178  1  0.58172684  0.41260751  0.94478594  1
  Se  Se179  1  0.58912526  0.74549908  0.44361305  1
  Se  Se180  1  0.59008987  0.73885751  0.94022971  1
  Se  Se181  1  0.91019030  0.08413209  0.43843893  1
  Se  Se182  1  0.92540519  0.07358831  0.94137142  1
  Se  Se183  1  0.90791322  0.42418033  0.44938364  1
  Se  Se184  1  0.91938147  0.40892482  0.94531482  1
  Se  Se185  1  0.92420026  0.74440482  0.43858341  1
  Se  Se186  1  0.91103800  0.75217890  0.95162922  1
  Se  Se187  1  0.25135027  0.25031092  0.31400193  1
  Se  Se188  1  0.25580917  0.25798821  0.79512114  1
  Se  Se189  1  0.25820182  0.58728797  0.30259671  1
  Se  Se190  1  0.23853353  0.57164997  0.80393166  1
  Se  Se191  1  0.24952023  0.92059944  0.30316154  1
  Se  Se192  1  0.25715159  0.92884447  0.80245388  1
  Se  Se193  1  0.58348069  0.25336870  0.30034561  1
  Se  Se194  1  0.58862754  0.25263815  0.79837762  1
  Se  Se195  1  0.58958187  0.58478091  0.30367861  1
  Se  Se196  1  0.57251484  0.57745753  0.80630022  1
  Se  Se197  1  0.56927234  0.90838896  0.30321387  1
  Se  Se198  1  0.57875162  0.90794205  0.81726549  1
  Se  Se199  1  0.91335300  0.24712455  0.30726387  1
  Se  Se200  1  0.91447617  0.25207050  0.80702355  1
  Se  Se201  1  0.92393603  0.58255296  0.30865677  1
  Se  Se202  1  0.89771432  0.57028768  0.79928656  1
  Se  Se203  1  0.91520923  0.91558047  0.29783100  1
  Se  Se204  1  0.91564762  0.92095051  0.80939619  1
  Se  Se205  1  0.07950652  0.08451810  0.30935232  1
  Se  Se206  1  0.09550193  0.09096269  0.80544264  1
  Se  Se207  1  0.08920483  0.41668563  0.30962103  1
  Se  Se208  1  0.07930211  0.42024588  0.81080773  1
  Se  Se209  1  0.08100128  0.74780699  0.30082447  1
  Se  Se210  1  0.08617675  0.76045600  0.80714791  1
  Se  Se211  1  0.40813268  0.08435435  0.30743813  1
  Se  Se212  1  0.42399206  0.08355251  0.79621941  1
  Se  Se213  1  0.41701308  0.41645103  0.30265702  1
  Se  Se214  1  0.41024755  0.41268815  0.80113200  1
  Se  Se215  1  0.41081478  0.74544212  0.29934847  1
  Se  Se216  1  0.40751734  0.74397871  0.80526906  1
  Se  Se217  1  0.71857051  0.05973721  0.30463387  1
  Se  Se218  1  0.76071826  0.09376697  0.80282164  1
  Se  Se219  1  0.75235733  0.41718134  0.30666630  1
  Se  Se220  1  0.74746972  0.41660786  0.79333552  1
  Se  Se221  1  0.74873195  0.74415620  0.30483851  1
  Se  Se222  1  0.75523400  0.75333683  0.80963778  1
  Se  Se223  1  0.24172131  0.08855893  0.19720157  1
  Se  Se224  1  0.26325918  0.07867882  0.69194839  1
  Se  Se225  1  0.25545102  0.41670082  0.19986000  1
  Se  Se226  1  0.24461581  0.41421113  0.69031904  1
  Se  Se227  1  0.24865383  0.75403303  0.19821312  1
  Se  Se228  1  0.24129498  0.74216340  0.70183937  1
  Se  Se229  1  0.57128436  0.08196184  0.20085963  1
  Se  Se230  1  0.58581199  0.09122034  0.68317930  1
  Se  Se231  1  0.58831938  0.41302222  0.19843156  1
  Se  Se232  1  0.57810070  0.41612878  0.69447315  1
  Se  Se233  1  0.58405967  0.74403459  0.19637385  1
  Se  Se234  1  0.58888768  0.74827265  0.70546847  1
  Se  Se235  1  0.89749850  0.09118774  0.21161266  1
  Se  Se236  1  0.92201249  0.10127627  0.67958594  1
  Se  Se237  1  0.92823034  0.41063618  0.20734212  1
  Se  Se238  1  0.90315071  0.42776599  0.68495961  1
  Se  Se239  1  0.91808794  0.74532190  0.19706889  1
  Se  Se240  1  0.91702418  0.75782171  0.68874216  1
  Se  Se241  1  0.08273067  0.25646626  0.20829119  1
  Se  Se242  1  0.09278015  0.23745862  0.68182150  1
  Se  Se243  1  0.08827425  0.58509970  0.20278254  1
  Se  Se244  1  0.07650021  0.56953960  0.68056786  1
  Se  Se245  1  0.07673295  0.92008486  0.20103282  1
  Se  Se246  1  0.10470755  0.90689742  0.69455605  1
  Se  Se247  1  0.41160722  0.25360130  0.19894879  1
  Se  Se248  1  0.41686444  0.25196890  0.69034300  1
  Se  Se249  1  0.42325733  0.57924429  0.19650527  1
  Se  Se250  1  0.40947059  0.58446457  0.69459361  1
  Se  Se251  1  0.40828032  0.91690667  0.19567340  1
  Se  Se252  1  0.45302836  0.89630479  0.68828785  1
  Se  Se253  1  0.75536924  0.24291220  0.21372882  1
  Se  Se254  1  0.74756299  0.25566574  0.68932871  1
  Se  Se255  1  0.75869001  0.57589880  0.19647572  1
  Se  Se256  1  0.73353891  0.60635311  0.69431911  1
  Se  Se257  1  0.74297522  0.90966318  0.19805017  1
  Se  Se258  1  0.75941436  0.91383757  0.69099426  1
