# generated using pymatgen
data_In86Cu29Se144
_symmetry_space_group_name_H-M   'P 1'
_cell_length_a   17.58337475
_cell_length_b   17.58231895
_cell_length_c   23.43933769
_cell_angle_alpha   90.00553175
_cell_angle_beta   89.98915827
_cell_angle_gamma   89.98912560
_symmetry_Int_Tables_number   1
_chemical_formula_structural   In86Cu29Se144
_chemical_formula_sum   'In86 Cu29 Se144'
_cell_volume   7246.42337951
_cell_formula_units_Z   1
loop_
 _symmetry_equiv_pos_site_id
 _symmetry_equiv_pos_as_xyz
  1  'x, y, z'
loop_
 _atom_site_type_symbol
 _atom_site_label
 _atom_site_symmetry_multiplicity
 _atom_site_fract_x
 _atom_site_fract_y
 _atom_site_fract_z
 _atom_site_occupancy
  In  In0  1  -0.00692378  0.18651110  0.13349111  1
  In  In1  1  -0.01978035  0.16693698  0.62722607  1
  In  In2  1  -0.00975985  0.49186618  0.11600615  1
  In  In3  1  0.00939536  0.50695776  0.61925475  1
  In  In4  1  0.00418046  0.83661213  0.11867955  1
  In  In5  1  0.00816850  0.82206988  0.63653396  1
  In  In6  1  0.33104298  0.15784073  0.12592317  1
  In  In7  1  0.34169872  0.17732648  0.62648957  1
  In  In8  1  0.34331541  0.51031770  0.11992398  1
  In  In9  1  0.33081874  0.50176766  0.62253475  1
  In  In10  1  0.32174253  0.82390188  0.12296011  1
  In  In11  1  0.31180674  0.80036270  0.59894241  1
  In  In12  1  0.68324648  0.16573959  0.13552104  1
  In  In13  1  0.68004817  0.16542140  0.61970302  1
  In  In14  1  0.66853659  0.49805806  0.12775025  1
  In  In15  1  0.65958766  0.49154489  0.61928784  1
  In  In16  1  0.67256426  0.82012980  0.13647305  1
  In  In17  1  0.65296530  0.84041121  0.61297708  1
  In  In18  1  0.15638818  -0.01751910  0.38076691  1
  In  In19  1  0.14753622  0.00248751  0.87113594  1
  In  In20  1  0.16166291  0.35006550  0.37925524  1
  In  In21  1  0.17979412  0.33557145  0.87249429  1
  In  In22  1  0.17493023  0.66351782  0.38269513  1
  In  In23  1  0.16759098  0.66418449  0.87563613  1
  In  In24  1  0.50904019  -0.01379969  0.37358713  1
  In  In25  1  0.51082293  -0.00128509  0.86966734  1
  In  In26  1  0.51049089  0.33472379  0.37596805  1
  In  In27  1  0.51537731  0.35155646  0.86574491  1
  In  In28  1  0.49629682  0.66189808  0.37790985  1
  In  In29  1  0.48554892  0.66022548  0.86845780  1
  In  In30  1  0.82416935  0.01325148  0.38330181  1
  In  In31  1  0.84073108  -0.00499806  0.88494781  1
  In  In32  1  0.83312586  0.33712863  0.37235296  1
  In  In33  1  0.82165310  0.34124314  0.88689673  1
  In  In34  1  0.81812557  0.67249276  0.37318754  1
  In  In35  1  0.84134249  0.65519966  0.88179712  1
  In  In36  1  -0.03978875  0.16509978  0.37710529  1
  In  In37  1  -0.00387358  0.15691006  0.87413128  1
  In  In38  1  0.00470897  0.49231906  0.37976051  1
  In  In39  1  -0.00603237  0.51004223  0.87920546  1
  In  In40  1  0.01291543  0.84292558  0.38417341  1
  In  In41  1  0.00202083  0.83194438  0.87457051  1
  In  In42  1  0.34434045  0.17402155  0.37823578  1
  In  In43  1  0.31900552  0.17542832  0.87259666  1
  In  In44  1  0.31852023  0.51904843  0.39674911  1
  In  In45  1  0.33337386  0.50095145  0.87521923  1
  In  In46  1  0.35928273  0.80035469  0.40294114  1
  In  In47  1  0.33208840  0.81103857  0.86862029  1
  In  In48  1  0.68475494  0.18175099  0.35731739  1
  In  In49  1  0.66835806  0.18420922  0.88064579  1
  In  In50  1  0.66803449  0.50122429  0.37605837  1
  In  In51  1  0.67217738  0.48545273  0.88891100  1
  In  In52  1  0.64794277  0.82000419  0.35252965  1
  In  In53  1  0.66812294  0.84334306  0.87518643  1
  In  In54  1  0.17437280  -0.00974023  0.12140378  1
  In  In55  1  0.16271651  -0.01639224  0.62609932  1
  In  In56  1  0.15277399  0.33480192  0.12664186  1
  In  In57  1  0.17094345  0.35222024  0.61968795  1
  In  In58  1  0.17303378  0.66977857  0.12120933  1
  In  In59  1  0.16675134  0.66082785  0.62786185  1
  In  In60  1  0.50799905  0.00433164  0.13050530  1
  In  In61  1  0.51100491  -0.01272251  0.61503445  1
  In  In62  1  0.50618095  0.35120518  0.12323424  1
  In  In63  1  0.49228100  0.35103071  0.63467227  1
  In  In64  1  0.51633158  0.65133644  0.14352770  1
  In  In65  1  0.46867533  0.63697169  0.59334546  1
  In  In66  1  0.83206489  -0.00564431  0.12133227  1
  In  In67  1  0.82949144  0.00902334  0.62477024  1
  In  In68  1  0.82853915  0.34118189  0.12721455  1
  In  In69  1  0.82701443  0.32467663  0.62026958  1
  In  In70  1  0.82218139  0.65410853  0.11712600  1
  In  In71  1  0.84954653  0.66964938  0.62581691  1
  In  In72  1  0.50174253  0.17313965  0.00863535  1
  In  In73  1  0.34154820  0.34088217  0.25266955  1
  In  In74  1  0.83524862  0.83314120  0.49920069  1
  In  In75  1  0.33235398  -0.00714746  0.25189875  1
  In  In76  1  0.15919862  0.16560944  0.00141470  1
  In  In77  1  0.33733715  -0.00056501  0.74325607  1
  In  In78  1  -0.00278966  0.00044646  0.25340763  1
  In  In79  1  0.66541985  0.66788412  0.74460637  1
  In  In80  1  -0.00165782  0.33576134  0.74664002  1
  In  In81  1  0.15870090  0.16890019  0.50526744  1
  In  In82  1  0.50111420  0.82404853  0.00162682  1
  In  In83  1  -0.00493333  0.65945793  0.24577937  1
  In  In84  1  0.50903937  0.17021395  0.49349977  1
  In  In85  1  0.66853221  0.00184600  0.74229823  1
  Cu  Cu86  1  0.83423959  0.83459889  0.24814717  1
  Cu  Cu87  1  0.33541277  0.33696199  -0.00303252  1
  Cu  Cu88  1  0.32993137  0.00488802  0.49814052  1
  Cu  Cu89  1  0.66342436  0.66509658  0.00585300  1
  Cu  Cu90  1  -0.00842773  0.33030269  0.49891563  1
  Cu  Cu91  1  0.49110726  0.82201976  0.73552947  1
  Cu  Cu92  1  0.82799517  0.16734236  0.75103070  1
  Cu  Cu93  1  -0.00415528  0.33777655  0.00197500  1
  Cu  Cu94  1  0.66742633  0.66531517  0.49124080  1
  Cu  Cu95  1  0.50070916  0.17653117  0.74998194  1
  Cu  Cu96  1  0.15727967  0.17124481  0.25839727  1
  Cu  Cu97  1  0.66966746  0.33420931  0.49643393  1
  Cu  Cu98  1  0.33101208  -0.01605551  -0.00501342  1
  Cu  Cu99  1  0.17003213  0.50330307  0.25536426  1
  Cu  Cu100  1  0.67389309  -0.00039379  0.00451625  1
  Cu  Cu101  1  0.50121910  0.50391903  0.25501353  1
  Cu  Cu102  1  -0.00240473  -0.00137075  0.00032387  1
  Cu  Cu103  1  0.00564422  0.67260995  -0.00171039  1
  Cu  Cu104  1  0.17553009  0.82218523  0.25477798  1
  Cu  Cu105  1  0.16909011  0.82872488  0.74998922  1
  Cu  Cu106  1  0.50731809  0.16976328  0.24848204  1
  Cu  Cu107  1  0.50024368  0.50293961  0.74606693  1
  Cu  Cu108  1  0.83994443  0.83328909  0.75442531  1
  Cu  Cu109  1  0.16419819  0.17207313  0.74923926  1
  Cu  Cu110  1  0.82799995  0.49882108  0.24584311  1
  Cu  Cu111  1  0.33191171  0.66057626  -0.00276161  1
  Cu  Cu112  1  0.17079305  0.50601332  0.74894861  1
  Cu  Cu113  1  0.83244863  0.49927449  0.75586110  1
  Cu  Cu114  1  0.00455410  0.65949160  0.50276944  1
  Se  Se115  1  0.07295379  0.07808914  0.06675007  1
  Se  Se116  1  0.07346040  0.07784237  0.56608911  1
  Se  Se117  1  0.08701005  0.41795088  0.05037321  1
  Se  Se118  1  0.07834518  0.41509426  0.54821003  1
  Se  Se119  1  0.08929323  0.75309244  0.05364460  1
  Se  Se120  1  0.08111619  0.74540496  0.55942439  1
  Se  Se121  1  0.40804405  0.06698346  0.05474154  1
  Se  Se122  1  0.41403389  0.08137818  0.55668836  1
  Se  Se123  1  0.41765566  0.41922522  0.05162762  1
  Se  Se124  1  0.42583477  0.42623156  0.55708427  1
  Se  Se125  1  0.41417798  0.73440327  0.06181177  1
  Se  Se126  1  0.44127726  0.77118249  0.55347525  1
  Se  Se127  1  0.75295080  0.08673422  0.05667051  1
  Se  Se128  1  0.74049930  0.06958502  0.55068880  1
  Se  Se129  1  0.76284979  0.43495782  0.05709958  1
  Se  Se130  1  0.75232742  0.41597750  0.55303463  1
  Se  Se131  1  0.74666278  0.75264502  0.05482431  1
  Se  Se132  1  0.74435016  0.74000607  0.55927068  1
  Se  Se133  1  0.25704094  0.25519652  0.05890007  1
  Se  Se134  1  0.25800905  0.25901920  0.55574357  1
  Se  Se135  1  0.24761922  0.57901017  0.05257072  1
  Se  Se136  1  0.25663950  0.59424102  0.55588286  1
  Se  Se137  1  0.24573112  0.90538220  0.04880058  1
  Se  Se138  1  0.24995785  0.91979934  0.55189386  1
  Se  Se139  1  0.59599057  0.25703486  0.06568515  1
  Se  Se140  1  0.58829004  0.25960967  0.56209559  1
  Se  Se141  1  0.58092748  0.58227210  0.05959834  1
  Se  Se142  1  0.58956077  0.57988620  0.54731114  1
  Se  Se143  1  0.58943555  0.91834425  0.05992535  1
  Se  Se144  1  0.60185529  0.93547302  0.53923123  1
  Se  Se145  1  0.91430652  0.25587222  0.05725141  1
  Se  Se146  1  0.90925155  0.24329599  0.54951716  1
  Se  Se147  1  0.92104198  0.58911864  0.05098448  1
  Se  Se148  1  0.91448755  0.58027414  0.55259946  1
  Se  Se149  1  0.91469111  0.91265056  0.05184855  1
  Se  Se150  1  0.92019537  0.91208478  0.56925883  1
  Se  Se151  1  0.07162224  0.25093681  0.43668311  1
  Se  Se152  1  0.07537775  0.25920981  0.93815211  1
  Se  Se153  1  0.08693592  0.57864186  0.44596466  1
  Se  Se154  1  0.08587483  0.58321589  0.94664170  1
  Se  Se155  1  0.07938940  0.92159376  0.46170768  1
  Se  Se156  1  0.08259358  0.91788538  0.94621922  1
  Se  Se157  1  0.41080117  0.26790666  0.44833190  1
  Se  Se158  1  0.41261040  0.25193692  0.93931916  1
  Se  Se159  1  0.41283307  0.59736559  0.45718022  1
  Se  Se160  1  0.41999517  0.57952482  0.94621645  1
  Se  Se161  1  0.41663799  0.92465713  0.44602200  1
  Se  Se162  1  0.41675351  0.91479857  0.93325708  1
  Se  Se163  1  0.75145044  0.25051936  0.44212817  1
  Se  Se164  1  0.75804910  0.24263803  0.95360761  1
  Se  Se165  1  0.75615136  0.58093439  0.44576589  1
  Se  Se166  1  0.74764414  0.58433650  0.94904971  1
  Se  Se167  1  0.74476666  0.90139510  0.42728126  1
  Se  Se168  1  0.75110699  0.91249898  0.94927596  1
  Se  Se169  1  0.25186653  0.08483308  0.43812597  1
  Se  Se170  1  0.25266582  0.07384744  0.94104066  1
  Se  Se171  1  0.25102396  0.41134582  0.45138324  1
  Se  Se172  1  0.24879085  0.41928369  0.94628548  1
  Se  Se173  1  0.22983648  0.76903249  0.44749651  1
  Se  Se174  1  0.25061705  0.74842283  0.94650492  1
  Se  Se175  1  0.59409797  0.09005850  0.42587239  1
  Se  Se176  1  0.58860457  0.07717824  0.94562281  1
  Se  Se177  1  0.58468581  0.41956065  0.44729346  1
  Se  Se178  1  0.57984736  0.40938918  0.95297015  1
  Se  Se179  1  0.58702378  0.75128369  0.43927219  1
  Se  Se180  1  0.58968984  0.73870239  0.93527309  1
  Se  Se181  1  0.93044135  0.06135967  0.44988678  1
  Se  Se182  1  0.91628840  0.08812171  0.95131174  1
  Se  Se183  1  0.91188515  0.41836852  0.44615924  1
  Se  Se184  1  0.91547377  0.42271692  0.94689857  1
  Se  Se185  1  0.92639888  0.73913872  0.43923705  1
  Se  Se186  1  0.91743802  0.75118057  0.94443014  1
  Se  Se187  1  0.24744195  0.24932435  0.31135539  1
  Se  Se188  1  0.25160866  0.25619079  0.79569312  1
  Se  Se189  1  0.25320895  0.58393879  0.30934043  1
  Se  Se190  1  0.25413200  0.58637956  0.80536991  1
  Se  Se191  1  0.24985390  0.90422537  0.31629555  1
  Se  Se192  1  0.24787411  0.91508936  0.80962407  1
  Se  Se193  1  0.58490289  0.25995326  0.29910466  1
  Se  Se194  1  0.58885820  0.25276313  0.80335439  1
  Se  Se195  1  0.58595742  0.58663551  0.30788785  1
  Se  Se196  1  0.58443118  0.57589111  0.80997557  1
  Se  Se197  1  0.58139516  0.92374121  0.29156896  1
  Se  Se198  1  0.57308841  0.90202767  0.79519460  1
  Se  Se199  1  0.91900235  0.25918919  0.30182793  1
  Se  Se200  1  0.90916550  0.24969589  0.81038454  1
  Se  Se201  1  0.90704129  0.57586497  0.31110938  1
  Se  Se202  1  0.91797045  0.58556954  0.80215010  1
  Se  Se203  1  0.91234956  0.90638120  0.31382395  1
  Se  Se204  1  0.91759381  0.92048476  0.80848528  1
  Se  Se205  1  0.08330622  0.08819091  0.31893594  1
  Se  Se206  1  0.07834377  0.08777039  0.79754363  1
  Se  Se207  1  0.08226347  0.41921417  0.30173023  1
  Se  Se208  1  0.08839332  0.42383254  0.80836630  1
  Se  Se209  1  0.08196932  0.74951557  0.30928752  1
  Se  Se210  1  0.08553079  0.74855423  0.80662545  1
  Se  Se211  1  0.42361473  0.09072413  0.30616611  1
  Se  Se212  1  0.42293399  0.09267534  0.80950221  1
  Se  Se213  1  0.41845220  0.43131805  0.31920132  1
  Se  Se214  1  0.41651377  0.42072687  0.80293201  1
  Se  Se215  1  0.41319880  0.74788178  0.31063176  1
  Se  Se216  1  0.41267852  0.74068232  0.79300533  1
  Se  Se217  1  0.76380196  0.08382116  0.29967452  1
  Se  Se218  1  0.75045892  0.08497298  0.81326975  1
  Se  Se219  1  0.74636611  0.41824950  0.30401721  1
  Se  Se220  1  0.74925931  0.41703002  0.80845032  1
  Se  Se221  1  0.74871956  0.74452859  0.29282677  1
  Se  Se222  1  0.75412150  0.75414623  0.81097989  1
  Se  Se223  1  0.23453837  0.08922082  0.19767158  1
  Se  Se224  1  0.24266398  0.09142309  0.68678301  1
  Se  Se225  1  0.24675998  0.42252293  0.18995597  1
  Se  Se226  1  0.25172244  0.41971838  0.69662836  1
  Se  Se227  1  0.25440147  0.73952854  0.19894659  1
  Se  Se228  1  0.25257719  0.75035983  0.69291101  1
  Se  Se229  1  0.59032226  0.08387595  0.19841687  1
  Se  Se230  1  0.57197181  0.09133485  0.68700045  1
  Se  Se231  1  0.58339124  0.42051835  0.20077523  1
  Se  Se232  1  0.59107964  0.41830452  0.70103958  1
  Se  Se233  1  0.56993803  0.76242781  0.20126999  1
  Se  Se234  1  0.57552659  0.74588946  0.67752236  1
  Se  Se235  1  0.90969360  0.08877972  0.19251825  1
  Se  Se236  1  0.91082264  0.08072938  0.70117270  1
  Se  Se237  1  0.91973060  0.42057741  0.19637941  1
  Se  Se238  1  0.90875145  0.42409796  0.68686941  1
  Se  Se239  1  0.91159817  0.75440031  0.18517103  1
  Se  Se240  1  0.92040305  0.74356748  0.70506237  1
  Se  Se241  1  0.08095980  0.25824305  0.20439429  1
  Se  Se242  1  0.08819391  0.24920134  0.68328048  1
  Se  Se243  1  0.08947510  0.57375146  0.18736750  1
  Se  Se244  1  0.07958632  0.58314188  0.69810859  1
  Se  Se245  1  0.09461465  0.90701312  0.19717285  1
  Se  Se246  1  0.08301929  0.91602489  0.70386395  1
  Se  Se247  1  0.42286047  0.24417966  0.18733911  1
  Se  Se248  1  0.41383633  0.25853541  0.70015112  1
  Se  Se249  1  0.41092100  0.58160786  0.20228584  1
  Se  Se250  1  0.41914682  0.58543216  0.69047332  1
  Se  Se251  1  0.41814616  0.90819858  0.18611697  1
  Se  Se252  1  0.41506185  0.90832268  0.67776475  1
  Se  Se253  1  0.75246160  0.26077078  0.20100908  1
  Se  Se254  1  0.74709969  0.24981418  0.69612552  1
  Se  Se255  1  0.74571849  0.58799905  0.19765304  1
  Se  Se256  1  0.75806511  0.57657330  0.68808936  1
  Se  Se257  1  0.75152310  0.91860525  0.19531065  1
  Se  Se258  1  0.75511021  0.90145621  0.68909203  1
