# generated using pymatgen
data_In86Cu29Se144
_symmetry_space_group_name_H-M   'P 1'
_cell_length_a   17.58070508
_cell_length_b   17.58183949
_cell_length_c   23.43588433
_cell_angle_alpha   89.99541187
_cell_angle_beta   90.00578041
_cell_angle_gamma   89.98705158
_symmetry_Int_Tables_number   1
_chemical_formula_structural   In86Cu29Se144
_chemical_formula_sum   'In86 Cu29 Se144'
_cell_volume   7244.05819666
_cell_formula_units_Z   1
loop_
 _symmetry_equiv_pos_site_id
 _symmetry_equiv_pos_as_xyz
  1  'x, y, z'
loop_
 _atom_site_type_symbol
 _atom_site_label
 _atom_site_symmetry_multiplicity
 _atom_site_fract_x
 _atom_site_fract_y
 _atom_site_fract_z
 _atom_site_occupancy
  In  In0  1  -0.00339441  0.16923545  0.13638866  1
  In  In1  1  -0.00518186  0.18115597  0.61151185  1
  In  In2  1  0.00716023  0.50985907  0.13414076  1
  In  In3  1  -0.00264177  0.48757569  0.61554460  1
  In  In4  1  0.01371260  0.81812878  0.13909897  1
  In  In5  1  0.00205649  0.84116892  0.61849531  1
  In  In6  1  0.34550176  0.15707211  0.13124534  1
  In  In7  1  0.34915910  0.17013397  0.62004900  1
  In  In8  1  0.31638525  0.51455497  0.14341026  1
  In  In9  1  0.32616261  0.50944028  0.62632639  1
  In  In10  1  0.33292346  0.83810696  0.11884201  1
  In  In11  1  0.33384986  0.81511322  0.62493336  1
  In  In12  1  0.65289892  0.17105736  0.12749605  1
  In  In13  1  0.66424875  0.17439729  0.60330802  1
  In  In14  1  0.67052124  0.49472322  0.13656214  1
  In  In15  1  0.67198239  0.50806043  0.62568903  1
  In  In16  1  0.66192005  0.83686850  0.13123762  1
  In  In17  1  0.65727217  0.82229256  0.61182471  1
  In  In18  1  0.16803182  -0.00264225  0.36362787  1
  In  In19  1  0.16555072  -0.00483976  0.88867446  1
  In  In20  1  0.17156119  0.35418692  0.35802956  1
  In  In21  1  0.17976499  0.33029722  0.87919776  1
  In  In22  1  0.16013357  0.65058748  0.35854996  1
  In  In23  1  0.17789478  0.65139153  0.88764660  1
  In  In24  1  0.50107038  -0.00209426  0.37159894  1
  In  In25  1  0.49057963  0.00107806  0.89391222  1
  In  In26  1  0.50170018  0.32529813  0.37217817  1
  In  In27  1  0.48629526  0.34463805  0.88391062  1
  In  In28  1  0.50965717  0.67457099  0.36473561  1
  In  In29  1  0.50612929  0.67143096  0.86820347  1
  In  In30  1  0.82951525  -0.00021961  0.37305256  1
  In  In31  1  0.83908132  0.00325383  0.88038797  1
  In  In32  1  0.82333490  0.32895549  0.36229021  1
  In  In33  1  0.84539716  0.33837220  0.87735948  1
  In  In34  1  0.83929119  0.67792186  0.36849324  1
  In  In35  1  0.81552445  0.66170438  0.88156934  1
  In  In36  1  -0.00843564  0.15618793  0.36577389  1
  In  In37  1  -0.00071279  0.17111430  0.88149747  1
  In  In38  1  0.00658889  0.52285332  0.34867168  1
  In  In39  1  -0.00207921  0.49966775  0.89022791  1
  In  In40  1  -0.01356484  0.81990447  0.36918437  1
  In  In41  1  0.00435543  0.84218471  0.88292272  1
  In  In42  1  0.34461882  0.17268662  0.36953169  1
  In  In43  1  0.33655397  0.18349054  0.88024706  1
  In  In44  1  0.32263789  0.49603125  0.36097348  1
  In  In45  1  0.33395662  0.49048905  0.87504272  1
  In  In46  1  0.33971122  0.83669175  0.36778372  1
  In  In47  1  0.35510470  0.81384633  0.89630723  1
  In  In48  1  0.67056558  0.16833621  0.37410661  1
  In  In49  1  0.66404238  0.15336903  0.87724156  1
  In  In50  1  0.67220767  0.49602267  0.35922285  1
  In  In51  1  0.65712970  0.53912938  0.89397714  1
  In  In52  1  0.66246257  0.83770706  0.37341201  1
  In  In53  1  0.65301913  0.81238931  0.87871830  1
  In  In54  1  0.18547235  -0.01670915  0.13716878  1
  In  In55  1  0.16540742  -0.00618312  0.62165382  1
  In  In56  1  0.16096260  0.34984114  0.14065039  1
  In  In57  1  0.16402656  0.34836720  0.61685004  1
  In  In58  1  0.16626415  0.66769504  0.12741291  1
  In  In59  1  0.18105861  0.66773016  0.62347837  1
  In  In60  1  0.49527531  0.00178120  0.12229864  1
  In  In61  1  0.50958266  0.00666368  0.61406753  1
  In  In62  1  0.50342275  0.32521386  0.13029685  1
  In  In63  1  0.49626527  0.32461278  0.61997096  1
  In  In64  1  0.49602636  0.67421902  0.13038921  1
  In  In65  1  0.49266258  0.67248198  0.62650293  1
  In  In66  1  0.83175229  -0.00328648  0.13644028  1
  In  In67  1  0.82522018  -0.00255291  0.60859350  1
  In  In68  1  0.82525671  0.35763671  0.15299857  1
  In  In69  1  0.83792510  0.33312997  0.61067855  1
  In  In70  1  0.83616005  0.66182804  0.13675377  1
  In  In71  1  0.81784949  0.65732804  0.62043150  1
  In  In72  1  0.49880207  0.49717693  0.48903986  1
  In  In73  1  0.83018791  0.82693228  0.00370728  1
  In  In74  1  0.00396952  0.33741648  0.74034067  1
  In  In75  1  0.17428818  0.17065995  0.00844461  1
  In  In76  1  0.66102635  0.34321746  0.74971830  1
  In  In77  1  0.66005876  -0.00598684  0.74449518  1
  In  In78  1  0.00220873  0.66535307  0.74843271  1
  In  In79  1  0.49778512  0.50106484  0.01112525  1
  In  In80  1  0.83003655  0.17612617  0.00979942  1
  In  In81  1  0.16335555  0.16917360  0.49065309  1
  In  In82  1  0.83565008  0.49871108  0.48926621  1
  In  In83  1  0.00077258  0.00289942  0.75871054  1
  In  In84  1  0.33684879  -0.00602406  0.75519675  1
  In  In85  1  0.16765252  0.82336258  0.49648948  1
  Cu  Cu86  1  0.49971499  0.83414195  0.24539755  1
  Cu  Cu87  1  0.33009584  0.66109579  0.00879954  1
  Cu  Cu88  1  0.32687382  0.34046046  0.48723484  1
  Cu  Cu89  1  0.82326811  0.81956086  0.74745525  1
  Cu  Cu90  1  0.34378659  -0.00210072  0.49357692  1
  Cu  Cu91  1  0.33423931  0.66190299  0.49763681  1
  Cu  Cu92  1  0.16904920  0.83247196  0.24761804  1
  Cu  Cu93  1  0.83169563  0.16648168  0.73599962  1
  Cu  Cu94  1  0.66357053  0.67236845  0.49430497  1
  Cu  Cu95  1  0.49731985  0.17713100  0.74952142  1
  Cu  Cu96  1  -0.00001970  0.66355017  0.01198484  1
  Cu  Cu97  1  0.82765600  0.16049516  0.24983493  1
  Cu  Cu98  1  0.49845662  0.49708137  0.24978373  1
  Cu  Cu99  1  0.66856620  0.00194401  0.48924020  1
  Cu  Cu100  1  0.17059014  0.16603698  0.25106131  1
  Cu  Cu101  1  0.82161095  0.50949860  0.75403032  1
  Cu  Cu102  1  -0.00363192  0.33366542  0.48482739  1
  Cu  Cu103  1  0.32997739  0.34119217  0.00653895  1
  Cu  Cu104  1  0.00172208  0.34775811  0.01572651  1
  Cu  Cu105  1  0.65810357  -0.00465686  0.00394382  1
  Cu  Cu106  1  0.18385838  0.17170278  0.75156281  1
  Cu  Cu107  1  0.17432486  0.82501518  0.75819879  1
  Cu  Cu108  1  0.00931903  -0.00632418  0.01517670  1
  Cu  Cu109  1  0.82872145  0.83797011  0.25325578  1
  Cu  Cu110  1  0.16925277  0.49781828  0.75141210  1
  Cu  Cu111  1  0.67362740  0.33950111  0.01238136  1
  Cu  Cu112  1  0.50335308  0.15982162  0.25160937  1
  Cu  Cu113  1  0.50028395  0.83254894  0.74996728  1
  Cu  Cu114  1  -0.00945982  -0.00584926  0.48985720  1
  Se  Se115  1  0.08567872  0.08153281  0.07004130  1
  Se  Se116  1  0.07466356  0.07282500  0.55187371  1
  Se  Se117  1  0.09214352  0.42836761  0.06210232  1
  Se  Se118  1  0.07878698  0.41451161  0.54143148  1
  Se  Se119  1  0.08468387  0.75234190  0.05594959  1
  Se  Se120  1  0.07665741  0.73773718  0.55937972  1
  Se  Se121  1  0.42293452  0.09171419  0.05227685  1
  Se  Se122  1  0.42100562  0.08635768  0.54760692  1
  Se  Se123  1  0.40676270  0.41704286  0.07274691  1
  Se  Se124  1  0.40621656  0.41561292  0.55409986  1
  Se  Se125  1  0.41657169  0.74726698  0.05470275  1
  Se  Se126  1  0.41630224  0.74840121  0.54875466  1
  Se  Se127  1  0.74415093  0.07381273  0.06107774  1
  Se  Se128  1  0.75209801  0.08870334  0.54190378  1
  Se  Se129  1  0.75836125  0.41852282  0.06483224  1
  Se  Se130  1  0.73942979  0.41520645  0.55256953  1
  Se  Se131  1  0.74398175  0.74039602  0.06598051  1
  Se  Se132  1  0.75380900  0.74838614  0.54780028  1
  Se  Se133  1  0.25595065  0.26124851  0.07161380  1
  Se  Se134  1  0.25455459  0.25630410  0.55330087  1
  Se  Se135  1  0.24547194  0.57746720  0.05889207  1
  Se  Se136  1  0.24670087  0.58136667  0.54864795  1
  Se  Se137  1  0.24821294  0.92083840  0.05110222  1
  Se  Se138  1  0.26093563  0.91985542  0.55507994  1
  Se  Se139  1  0.58233305  0.25335427  0.05168057  1
  Se  Se140  1  0.57519384  0.25715035  0.54364020  1
  Se  Se141  1  0.59175346  0.58768315  0.06791430  1
  Se  Se142  1  0.58514509  0.58936735  0.55359901  1
  Se  Se143  1  0.57907955  0.91029670  0.05719075  1
  Se  Se144  1  0.58704552  0.91963185  0.54730228  1
  Se  Se145  1  0.91805280  0.26450845  0.07034036  1
  Se  Se146  1  0.91203555  0.25076074  0.53691372  1
  Se  Se147  1  0.91552878  0.58241611  0.06369563  1
  Se  Se148  1  0.92072184  0.58773258  0.55569832  1
  Se  Se149  1  0.92031910  0.91318575  0.06755750  1
  Se  Se150  1  0.91332854  0.91028752  0.54763037  1
  Se  Se151  1  0.08132645  0.25674454  0.42561319  1
  Se  Se152  1  0.07523037  0.26330955  0.95098391  1
  Se  Se153  1  0.07603366  0.58465967  0.43366538  1
  Se  Se154  1  0.08349622  0.58106653  0.95526658  1
  Se  Se155  1  0.08142359  0.91758666  0.43648886  1
  Se  Se156  1  0.08794709  0.91033303  0.95836151  1
  Se  Se157  1  0.41559861  0.25271291  0.44613166  1
  Se  Se158  1  0.41612792  0.25713596  0.95614093  1
  Se  Se159  1  0.41074255  0.58847663  0.42992809  1
  Se  Se160  1  0.41181994  0.58577091  0.94447663  1
  Se  Se161  1  0.42241338  0.90986090  0.44222636  1
  Se  Se162  1  0.41186297  0.91734769  0.95973956  1
  Se  Se163  1  0.75353459  0.25381555  0.44062588  1
  Se  Se164  1  0.74246588  0.25835902  0.94087274  1
  Se  Se165  1  0.73989919  0.58953042  0.43483540  1
  Se  Se166  1  0.76598649  0.57382916  0.96059537  1
  Se  Se167  1  0.75226421  0.91273731  0.44323482  1
  Se  Se168  1  0.74137307  0.92050706  0.93970306  1
  Se  Se169  1  0.25687459  0.07514271  0.43774868  1
  Se  Se170  1  0.26184828  0.08232317  0.94515216  1
  Se  Se171  1  0.24276876  0.42628395  0.43948468  1
  Se  Se172  1  0.24739462  0.42040739  0.94990917  1
  Se  Se173  1  0.25498018  0.73909788  0.43235892  1
  Se  Se174  1  0.24760020  0.74722991  0.95407248  1
  Se  Se175  1  0.58160726  0.08444001  0.43987256  1
  Se  Se176  1  0.58107081  0.08793883  0.95299614  1
  Se  Se177  1  0.59630461  0.41120139  0.43537830  1
  Se  Se178  1  0.59319240  0.41592566  0.94674139  1
  Se  Se179  1  0.57777911  0.75420459  0.44312283  1
  Se  Se180  1  0.57856288  0.73497251  0.95154426  1
  Se  Se181  1  0.91120828  0.08575302  0.44290355  1
  Se  Se182  1  0.92800595  0.07724664  0.95593601  1
  Se  Se183  1  0.92285943  0.41755566  0.42357734  1
  Se  Se184  1  0.91231148  0.41686482  0.95584625  1
  Se  Se185  1  0.92166326  0.73960695  0.44685018  1
  Se  Se186  1  0.92479949  0.73910148  0.94218981  1
  Se  Se187  1  0.25123344  0.25032129  0.30616967  1
  Se  Se188  1  0.26085450  0.25881163  0.80320885  1
  Se  Se189  1  0.25149870  0.58260341  0.28942341  1
  Se  Se190  1  0.24975226  0.57892302  0.80834120  1
  Se  Se191  1  0.25515280  0.91668636  0.29841166  1
  Se  Se192  1  0.24851889  0.90927798  0.81902247  1
  Se  Se193  1  0.58615403  0.24740526  0.30173691  1
  Se  Se194  1  0.58001959  0.24771874  0.81425394  1
  Se  Se195  1  0.58534427  0.58354008  0.29823158  1
  Se  Se196  1  0.57896429  0.57237293  0.80681265  1
  Se  Se197  1  0.58221217  0.91690214  0.30022838  1
  Se  Se198  1  0.57245936  0.91477719  0.81457322  1
  Se  Se199  1  0.91391703  0.24547102  0.29889539  1
  Se  Se200  1  0.91366764  0.24155961  0.80147459  1
  Se  Se201  1  0.88881570  0.57757545  0.29495843  1
  Se  Se202  1  0.91364177  0.57805994  0.81258354  1
  Se  Se203  1  0.91706183  0.91900647  0.30538597  1
  Se  Se204  1  0.90277810  0.90226783  0.80808970  1
  Se  Se205  1  0.08259402  0.08012487  0.29878819  1
  Se  Se206  1  0.09904886  0.09652347  0.81381755  1
  Se  Se207  1  0.06798854  0.41241540  0.29091057  1
  Se  Se208  1  0.08483035  0.42056431  0.81201550  1
  Se  Se209  1  0.08374589  0.75321329  0.30199769  1
  Se  Se210  1  0.08796720  0.75007522  0.81677285  1
  Se  Se211  1  0.41475496  0.07851417  0.30261419  1
  Se  Se212  1  0.42590538  0.09111444  0.81198199  1
  Se  Se213  1  0.42006204  0.41247060  0.30575065  1
  Se  Se214  1  0.41919746  0.41559536  0.80423251  1
  Se  Se215  1  0.41622218  0.74893041  0.29838314  1
  Se  Se216  1  0.41432400  0.75376740  0.80549261  1
  Se  Se217  1  0.74397603  0.07846149  0.30315878  1
  Se  Se218  1  0.76036844  0.08575128  0.80185159  1
  Se  Se219  1  0.75390995  0.41652046  0.28960265  1
  Se  Se220  1  0.75203560  0.42318261  0.81600068  1
  Se  Se221  1  0.74409014  0.75326507  0.30440872  1
  Se  Se222  1  0.74224152  0.74310315  0.80641368  1
  Se  Se223  1  0.25599742  0.08226436  0.20025051  1
  Se  Se224  1  0.24962988  0.08403784  0.68828282  1
  Se  Se225  1  0.26222038  0.40806375  0.20764056  1
  Se  Se226  1  0.24689675  0.41570808  0.69170372  1
  Se  Se227  1  0.25322980  0.75530495  0.19052428  1
  Se  Se228  1  0.25394832  0.74361156  0.70120784  1
  Se  Se229  1  0.58359605  0.07680782  0.19480467  1
  Se  Se230  1  0.58094706  0.09956363  0.68876638  1
  Se  Se231  1  0.58234473  0.41069480  0.19987172  1
  Se  Se232  1  0.57222287  0.42606002  0.68446635  1
  Se  Se233  1  0.58742203  0.74633715  0.19999229  1
  Se  Se234  1  0.58301894  0.75359184  0.69256494  1
  Se  Se235  1  0.91819577  0.07835886  0.20137609  1
  Se  Se236  1  0.91867645  0.08522281  0.68217628  1
  Se  Se237  1  0.95019936  0.40288381  0.20123403  1
  Se  Se238  1  0.89859174  0.42740948  0.69119623  1
  Se  Se239  1  0.91341973  0.75247401  0.20304585  1
  Se  Se240  1  0.91189925  0.75304045  0.68600146  1
  Se  Se241  1  0.08634028  0.24905614  0.20031640  1
  Se  Se242  1  0.09589539  0.23892641  0.68669252  1
  Se  Se243  1  0.08330818  0.59716378  0.20245928  1
  Se  Se244  1  0.08636695  0.57027176  0.68722242  1
  Se  Se245  1  0.08091475  0.92102973  0.20047478  1
  Se  Se246  1  0.09333599  0.90622685  0.69850919  1
  Se  Se247  1  0.41937804  0.24665507  0.20088192  1
  Se  Se248  1  0.41185081  0.25645392  0.69643077  1
  Se  Se249  1  0.41978622  0.58714258  0.20027425  1
  Se  Se250  1  0.41089547  0.58895590  0.69166429  1
  Se  Se251  1  0.41575903  0.91682681  0.19216788  1
  Se  Se252  1  0.42640527  0.91521843  0.68551959  1
  Se  Se253  1  0.74747235  0.24465349  0.19357873  1
  Se  Se254  1  0.75101207  0.25159567  0.68349213  1
  Se  Se255  1  0.76736536  0.56548627  0.20520417  1
  Se  Se256  1  0.73993282  0.59282062  0.70108645  1
  Se  Se257  1  0.74220329  0.91968353  0.20189894  1
  Se  Se258  1  0.75466091  0.90848129  0.68516173  1
