# generated using pymatgen
data_In86Cu29Se144
_symmetry_space_group_name_H-M   'P 1'
_cell_length_a   17.58155900
_cell_length_b   17.58396845
_cell_length_c   23.43604457
_cell_angle_alpha   90.00431693
_cell_angle_beta   90.00292127
_cell_angle_gamma   89.99173980
_symmetry_Int_Tables_number   1
_chemical_formula_structural   In86Cu29Se144
_chemical_formula_sum   'In86 Cu29 Se144'
_cell_volume   7245.33694404
_cell_formula_units_Z   1
loop_
 _symmetry_equiv_pos_site_id
 _symmetry_equiv_pos_as_xyz
  1  'x, y, z'
loop_
 _atom_site_type_symbol
 _atom_site_label
 _atom_site_symmetry_multiplicity
 _atom_site_fract_x
 _atom_site_fract_y
 _atom_site_fract_z
 _atom_site_occupancy
  In  In0  1  0.00069847  0.17577634  0.12653089  1
  In  In1  1  -0.00063607  0.16689663  0.60909376  1
  In  In2  1  0.00444594  0.49790942  0.12508014  1
  In  In3  1  -0.00360110  0.51531022  0.62625524  1
  In  In4  1  0.00582403  0.82619808  0.13769109  1
  In  In5  1  -0.00866745  0.82720840  0.62193134  1
  In  In6  1  0.33543540  0.16474060  0.13003250  1
  In  In7  1  0.33019575  0.15973809  0.60763645  1
  In  In8  1  0.33077646  0.49696278  0.12293069  1
  In  In9  1  0.32667100  0.49712148  0.62261695  1
  In  In10  1  0.34690813  0.82551132  0.12391915  1
  In  In11  1  0.33400133  0.83189222  0.62243901  1
  In  In12  1  0.66077827  0.16260423  0.12255296  1
  In  In13  1  0.67274765  0.17656691  0.61732821  1
  In  In14  1  0.67726926  0.50490179  0.11855884  1
  In  In15  1  0.66990227  0.49474998  0.62940385  1
  In  In16  1  0.65730649  0.84110795  0.12938499  1
  In  In17  1  0.66218462  0.82680687  0.62936013  1
  In  In18  1  0.17264268  0.01060365  0.36731656  1
  In  In19  1  0.17317336  0.01167570  0.88408080  1
  In  In20  1  0.14633604  0.32184449  0.34976473  1
  In  In21  1  0.15917147  0.33456622  0.89692708  1
  In  In22  1  0.15871870  0.65624226  0.35348855  1
  In  In23  1  0.15086188  0.66294708  0.87790996  1
  In  In24  1  0.50182222  0.00216539  0.36904720  1
  In  In25  1  0.48885529  0.00672798  0.89228797  1
  In  In26  1  0.48566457  0.33260072  0.36846623  1
  In  In27  1  0.50718636  0.32909335  0.88148190  1
  In  In28  1  0.50037351  0.66420118  0.36358072  1
  In  In29  1  0.51562632  0.65162649  0.89780285  1
  In  In30  1  0.84344530  0.01889721  0.36097354  1
  In  In31  1  0.84510239  0.00514778  0.87691643  1
  In  In32  1  0.84256883  0.32417066  0.38016499  1
  In  In33  1  0.83081732  0.34794815  0.89235705  1
  In  In34  1  0.82278684  0.65312876  0.37072671  1
  In  In35  1  0.82561474  0.65793217  0.87283483  1
  In  In36  1  -0.00170070  0.16794553  0.37259600  1
  In  In37  1  -0.01115775  0.18431150  0.90241281  1
  In  In38  1  -0.00300250  0.48527855  0.35836464  1
  In  In39  1  -0.01782539  0.50232832  0.89381986  1
  In  In40  1  0.00141451  0.84122750  0.36506741  1
  In  In41  1  0.01336909  0.82097134  0.87945460  1
  In  In42  1  0.33109668  0.16233675  0.37182648  1
  In  In43  1  0.32396731  0.16742936  0.89391863  1
  In  In44  1  0.31498568  0.49009019  0.34634234  1
  In  In45  1  0.34234910  0.49892380  0.89762491  1
  In  In46  1  0.33748221  0.83690323  0.36130713  1
  In  In47  1  0.33784108  0.84309274  0.88811366  1
  In  In48  1  0.67843981  0.16002835  0.37605188  1
  In  In49  1  0.65724044  0.17918759  0.87840962  1
  In  In50  1  0.67286133  0.51260411  0.37410582  1
  In  In51  1  0.66893825  0.49890442  0.87938937  1
  In  In52  1  0.66040353  0.82561396  0.36878085  1
  In  In53  1  0.67044593  0.82174799  0.87438599  1
  In  In54  1  0.16240958  0.00625123  0.13529084  1
  In  In55  1  0.16286853  0.00859429  0.61872060  1
  In  In56  1  0.16253022  0.34334789  0.12777998  1
  In  In57  1  0.17324179  0.32347238  0.62369698  1
  In  In58  1  0.18769856  0.63521051  0.14629997  1
  In  In59  1  0.15601380  0.65101983  0.62190819  1
  In  In60  1  0.49676157  0.00281841  0.12469758  1
  In  In61  1  0.48991929  0.00318786  0.62352938  1
  In  In62  1  0.48724095  0.32078538  0.11898971  1
  In  In63  1  0.51231347  0.33763300  0.62561026  1
  In  In64  1  0.50042318  0.66886002  0.11752250  1
  In  In65  1  0.50595771  0.67972533  0.62599865  1
  In  In66  1  0.82907013  0.00730985  0.13302752  1
  In  In67  1  0.83037810  0.00549725  0.61845622  1
  In  In68  1  0.85374868  0.34676970  0.11247559  1
  In  In69  1  0.82401743  0.32604288  0.61978876  1
  In  In70  1  0.84308475  0.65240029  0.13426521  1
  In  In71  1  0.83446183  0.65843863  0.62408122  1
  In  In72  1  0.00229244  -0.00418754  0.74610695  1
  In  In73  1  0.34345238  0.66380234  0.75996761  1
  In  In74  1  0.83276454  0.84280578  0.49915328  1
  In  In75  1  0.82813248  0.83564711  0.00385340  1
  In  In76  1  0.50567538  0.83981274  0.48592477  1
  In  In77  1  0.33467809  -0.00132627  0.75960491  1
  In  In78  1  0.33731182  0.32955183  0.75874515  1
  In  In79  1  0.16959649  0.82840196  0.01156330  1
  In  In80  1  0.17286665  0.84608670  0.48455843  1
  In  In81  1  0.49849146  0.49800697  0.49943681  1
  In  In82  1  0.15916958  0.49187825  0.49049857  1
  In  In83  1  0.66681956  0.33285459  0.24290205  1
  In  In84  1  0.66750532  -0.00499729  0.74603182  1
  In  In85  1  -0.00663522  0.33603030  0.75821195  1
  Cu  Cu86  1  0.83083993  0.50293683  0.75598258  1
  Cu  Cu87  1  0.50083748  0.83182227  0.24345605  1
  Cu  Cu88  1  0.16324030  0.83580307  0.24571952  1
  Cu  Cu89  1  0.16802147  0.17099354  0.24712277  1
  Cu  Cu90  1  0.15919685  0.16414444  0.75605059  1
  Cu  Cu91  1  -0.00292852  0.65717171  0.00722454  1
  Cu  Cu92  1  0.51076407  0.82424329  0.75815557  1
  Cu  Cu93  1  0.33156121  0.33511958  0.00976981  1
  Cu  Cu94  1  0.67189226  0.66656616  0.00199297  1
  Cu  Cu95  1  0.66392588  0.33479024  0.49936723  1
  Cu  Cu96  1  0.83520082  0.49575180  0.24618214  1
  Cu  Cu97  1  0.51100134  0.50609241  0.75598340  1
  Cu  Cu98  1  0.32625843  0.32252842  0.48906163  1
  Cu  Cu99  1  0.33707065  0.66386818  0.48323494  1
  Cu  Cu100  1  0.50400494  0.17758816  0.75140951  1
  Cu  Cu101  1  0.16538353  0.81679557  0.75240139  1
  Cu  Cu102  1  0.84395807  0.81708056  0.74996623  1
  Cu  Cu103  1  0.66523095  0.33404140  0.00380160  1
  Cu  Cu104  1  0.49939802  0.16234369  0.24631859  1
  Cu  Cu105  1  0.82507019  0.17259966  0.74890743  1
  Cu  Cu106  1  0.84015497  0.17702886  0.24536078  1
  Cu  Cu107  1  0.66224192  0.00364911  0.00619151  1
  Cu  Cu108  1  0.50039029  0.50460143  0.24176847  1
  Cu  Cu109  1  0.16075795  0.50226213  0.75821295  1
  Cu  Cu110  1  -0.00381100  0.67207095  0.49590028  1
  Cu  Cu111  1  0.82416929  0.83445341  0.25013380  1
  Cu  Cu112  1  0.66940828  0.00209903  0.49222335  1
  Cu  Cu113  1  -0.00408678  0.33812539  0.49225728  1
  Cu  Cu114  1  0.00046414  0.00372937  0.01049015  1
  Se  Se115  1  0.08565640  0.08589859  0.06133405  1
  Se  Se116  1  0.09270374  0.09224847  0.54719263  1
  Se  Se117  1  0.07109478  0.40575568  0.05291237  1
  Se  Se118  1  0.07387394  0.40971701  0.56288751  1
  Se  Se119  1  0.07705144  0.73735794  0.06510170  1
  Se  Se120  1  0.08565769  0.74911275  0.55131699  1
  Se  Se121  1  0.43216685  0.10330856  0.05954621  1
  Se  Se122  1  0.42281536  0.08103089  0.54751009  1
  Se  Se123  1  0.42167700  0.42101821  0.05378533  1
  Se  Se124  1  0.40168268  0.40347176  0.55514109  1
  Se  Se125  1  0.41913503  0.75008775  0.04658254  1
  Se  Se126  1  0.41158377  0.74377880  0.54890375  1
  Se  Se127  1  0.75124521  0.08181526  0.05665413  1
  Se  Se128  1  0.74905136  0.08552286  0.55022968  1
  Se  Se129  1  0.75425931  0.41809918  0.04938800  1
  Se  Se130  1  0.74631069  0.41734159  0.55387452  1
  Se  Se131  1  0.74899578  0.74309489  0.06765601  1
  Se  Se132  1  0.74513605  0.74804238  0.55687176  1
  Se  Se133  1  0.25064065  0.25355119  0.06569061  1
  Se  Se134  1  0.24084180  0.24510121  0.54608788  1
  Se  Se135  1  0.24158517  0.57703837  0.05562326  1
  Se  Se136  1  0.25567811  0.58867163  0.54771387  1
  Se  Se137  1  0.25364472  0.92325308  0.06770073  1
  Se  Se138  1  0.26174127  0.92571563  0.55543993  1
  Se  Se139  1  0.58197485  0.24793385  0.05301813  1
  Se  Se140  1  0.57878495  0.25146955  0.55117467  1
  Se  Se141  1  0.58654385  0.58180558  0.05169764  1
  Se  Se142  1  0.58515669  0.58782489  0.56069632  1
  Se  Se143  1  0.57962638  0.91683735  0.05475028  1
  Se  Se144  1  0.59322204  0.92360578  0.55799207  1
  Se  Se145  1  0.90621549  0.23495579  0.05308403  1
  Se  Se146  1  0.91411277  0.25578364  0.54897719  1
  Se  Se147  1  0.90940427  0.57339890  0.05516578  1
  Se  Se148  1  0.91699886  0.58499604  0.54892106  1
  Se  Se149  1  0.92291597  0.91688704  0.06531187  1
  Se  Se150  1  0.93209140  0.93121920  0.55464299  1
  Se  Se151  1  0.08135776  0.26080329  0.43704023  1
  Se  Se152  1  0.11296979  0.21722244  0.95283279  1
  Se  Se153  1  0.07424645  0.58955798  0.43489080  1
  Se  Se154  1  0.08349405  0.57789723  0.95230442  1
  Se  Se155  1  0.07175755  0.93315701  0.43677531  1
  Se  Se156  1  0.07762213  0.92229562  0.94765229  1
  Se  Se157  1  0.41899892  0.24465375  0.44122113  1
  Se  Se158  1  0.41362201  0.25763688  0.94933573  1
  Se  Se159  1  0.40910182  0.57364665  0.42788305  1
  Se  Se160  1  0.40627382  0.60054562  0.95946961  1
  Se  Se161  1  0.40387220  0.92605177  0.43874336  1
  Se  Se162  1  0.40870234  0.92577990  0.96009670  1
  Se  Se163  1  0.74811527  0.25213883  0.44577489  1
  Se  Se164  1  0.74804413  0.25048037  0.94797905  1
  Se  Se165  1  0.75102349  0.58172319  0.45012225  1
  Se  Se166  1  0.75413261  0.58106261  0.94960141  1
  Se  Se167  1  0.74586468  0.92321583  0.43048738  1
  Se  Se168  1  0.74196753  0.92791767  0.93974861  1
  Se  Se169  1  0.24353334  0.08945087  0.44324462  1
  Se  Se170  1  0.25921263  0.07027621  0.95974544  1
  Se  Se171  1  0.25204721  0.40830299  0.43031192  1
  Se  Se172  1  0.24719358  0.41987942  0.95799127  1
  Se  Se173  1  0.25123708  0.74193983  0.42800871  1
  Se  Se174  1  0.24929074  0.74333829  0.94039351  1
  Se  Se175  1  0.58365484  0.08339485  0.44002256  1
  Se  Se176  1  0.58503659  0.08945292  0.94846474  1
  Se  Se177  1  0.58659279  0.41064356  0.43465803  1
  Se  Se178  1  0.58301028  0.41926218  0.94887936  1
  Se  Se179  1  0.58995402  0.73245410  0.44213895  1
  Se  Se180  1  0.59077742  0.75738996  0.95271033  1
  Se  Se181  1  0.90773347  0.09347138  0.44129220  1
  Se  Se182  1  0.91111999  0.08072528  0.95648736  1
  Se  Se183  1  0.91710821  0.42592612  0.44078299  1
  Se  Se184  1  0.94903672  0.38315649  0.95334573  1
  Se  Se185  1  0.91775649  0.75203991  0.43523843  1
  Se  Se186  1  0.92079067  0.74296306  0.94647742  1
  Se  Se187  1  0.25692791  0.25131027  0.29988091  1
  Se  Se188  1  0.23953098  0.24449215  0.81572918  1
  Se  Se189  1  0.26787809  0.60645247  0.29130607  1
  Se  Se190  1  0.24992699  0.57440889  0.81715016  1
  Se  Se191  1  0.24690118  0.91883230  0.29955783  1
  Se  Se192  1  0.23715517  0.90478797  0.81240970  1
  Se  Se193  1  0.58108602  0.24383768  0.30717139  1
  Se  Se194  1  0.58724090  0.26151315  0.80195289  1
  Se  Se195  1  0.58644117  0.57919669  0.29916125  1
  Se  Se196  1  0.58800751  0.58988144  0.81274759  1
  Se  Se197  1  0.58115430  0.91302001  0.30266964  1
  Se  Se198  1  0.57804374  0.91847384  0.81637028  1
  Se  Se199  1  0.92248135  0.25812575  0.30161236  1
  Se  Se200  1  0.90668009  0.24206123  0.81640314  1
  Se  Se201  1  0.91513941  0.58285901  0.30113832  1
  Se  Se202  1  0.92025157  0.57804931  0.81052703  1
  Se  Se203  1  0.91258454  0.91937268  0.29807683  1
  Se  Se204  1  0.91579863  0.90279686  0.81066613  1
  Se  Se205  1  0.08264921  0.08939596  0.30130221  1
  Se  Se206  1  0.07792028  0.08621242  0.81530142  1
  Se  Se207  1  0.11787070  0.45071023  0.30105951  1
  Se  Se208  1  0.08614047  0.42014644  0.81925407  1
  Se  Se209  1  0.07657533  0.75258816  0.29690992  1
  Se  Se210  1  0.07476109  0.73835336  0.80041950  1
  Se  Se211  1  0.41463809  0.08045542  0.30091097  1
  Se  Se212  1  0.42238488  0.09858603  0.81309682  1
  Se  Se213  1  0.41946762  0.41505327  0.29186056  1
  Se  Se214  1  0.42289733  0.42965975  0.81326456  1
  Se  Se215  1  0.41729038  0.74778599  0.29665626  1
  Se  Se216  1  0.42741995  0.75431193  0.82228900  1
  Se  Se217  1  0.75026978  0.09273536  0.29345720  1
  Se  Se218  1  0.75302542  0.08603253  0.80924866  1
  Se  Se219  1  0.75589103  0.41609329  0.30898363  1
  Se  Se220  1  0.75533571  0.41540700  0.81179147  1
  Se  Se221  1  0.74692860  0.74462187  0.30317132  1
  Se  Se222  1  0.75128442  0.74492265  0.80202289  1
  Se  Se223  1  0.25399780  0.08338660  0.20154411  1
  Se  Se224  1  0.24584773  0.08916321  0.69544155  1
  Se  Se225  1  0.24560960  0.42476008  0.19665675  1
  Se  Se226  1  0.24001079  0.42119276  0.69793251  1
  Se  Se227  1  0.24686948  0.75745707  0.19006428  1
  Se  Se228  1  0.24889566  0.74302696  0.68994764  1
  Se  Se229  1  0.58593803  0.08014793  0.19605750  1
  Se  Se230  1  0.57657908  0.09054181  0.69091591  1
  Se  Se231  1  0.57792128  0.41997906  0.18131582  1
  Se  Se232  1  0.58528312  0.41687981  0.70076011  1
  Se  Se233  1  0.58375393  0.74460833  0.19278420  1
  Se  Se234  1  0.59187715  0.74197457  0.70335027  1
  Se  Se235  1  0.92170230  0.08677506  0.19621487  1
  Se  Se236  1  0.91065519  0.09408753  0.69084561  1
  Se  Se237  1  0.92233250  0.41298669  0.19678938  1
  Se  Se238  1  0.90897072  0.42324007  0.69102498  1
  Se  Se239  1  0.90981249  0.75069262  0.19990669  1
  Se  Se240  1  0.92401974  0.73767114  0.69262775  1
  Se  Se241  1  0.08227155  0.25639783  0.19835798  1
  Se  Se242  1  0.08224785  0.24429407  0.69335501  1
  Se  Se243  1  0.06103223  0.60117022  0.19315888  1
  Se  Se244  1  0.08076436  0.58415825  0.70194198  1
  Se  Se245  1  0.07559707  0.92454738  0.20180341  1
  Se  Se246  1  0.09597566  0.90357897  0.68779695  1
  Se  Se247  1  0.41599078  0.25218191  0.20077629  1
  Se  Se248  1  0.41647772  0.24464683  0.68650736  1
  Se  Se249  1  0.41783555  0.58521219  0.18692253  1
  Se  Se250  1  0.42612419  0.57417553  0.68866962  1
  Se  Se251  1  0.41587365  0.91767974  0.19465709  1
  Se  Se252  1  0.42704681  0.90329051  0.69802818  1
  Se  Se253  1  0.76044679  0.25165724  0.18114602  1
  Se  Se254  1  0.74269842  0.25487660  0.69612009  1
  Se  Se255  1  0.74602053  0.57927934  0.19966631  1
  Se  Se256  1  0.75063941  0.58255349  0.69640650  1
  Se  Se257  1  0.74435776  0.92041099  0.19673742  1
  Se  Se258  1  0.76764655  0.90435499  0.69131705  1
