# generated using pymatgen
data_In86Cu29Se144
_symmetry_space_group_name_H-M   'P 1'
_cell_length_a   17.57875299
_cell_length_b   17.58275057
_cell_length_c   23.44347600
_cell_angle_alpha   90.00080736
_cell_angle_beta   90.01601786
_cell_angle_gamma   90.02223022
_symmetry_Int_Tables_number   1
_chemical_formula_structural   In86Cu29Se144
_chemical_formula_sum   'In86 Cu29 Se144'
_cell_volume   7245.97505851
_cell_formula_units_Z   1
loop_
 _symmetry_equiv_pos_site_id
 _symmetry_equiv_pos_as_xyz
  1  'x, y, z'
loop_
 _atom_site_type_symbol
 _atom_site_label
 _atom_site_symmetry_multiplicity
 _atom_site_fract_x
 _atom_site_fract_y
 _atom_site_fract_z
 _atom_site_occupancy
  In  In0  1  -0.00113564  0.16228298  0.11378426  1
  In  In1  1  0.00038101  0.16319746  0.63061295  1
  In  In2  1  0.01465644  0.50837286  0.12430226  1
  In  In3  1  0.00287291  0.49600120  0.62196805  1
  In  In4  1  -0.00488811  0.82532921  0.12767485  1
  In  In5  1  0.03002285  0.81429665  0.64430417  1
  In  In6  1  0.33556704  0.16539068  0.12585853  1
  In  In7  1  0.31768875  0.16528078  0.62606946  1
  In  In8  1  0.34584325  0.48694831  0.13595851  1
  In  In9  1  0.34378044  0.51492542  0.61485122  1
  In  In10  1  0.35152372  0.82164263  0.14605110  1
  In  In11  1  0.32799763  0.83026046  0.62773141  1
  In  In12  1  0.67568018  0.17383166  0.12075179  1
  In  In13  1  0.68281055  0.15716779  0.62461774  1
  In  In14  1  0.63919788  0.50128795  0.12226511  1
  In  In15  1  0.66820221  0.51200484  0.62419333  1
  In  In16  1  0.66208531  0.83849179  0.12007728  1
  In  In17  1  0.64561212  0.83699119  0.62191630  1
  In  In18  1  0.18102981  -0.00964289  0.38789984  1
  In  In19  1  0.17753274  0.00271824  0.86178935  1
  In  In20  1  0.17649636  0.32557670  0.38284381  1
  In  In21  1  0.15501674  0.33467225  0.87098960  1
  In  In22  1  0.16893911  0.66629040  0.38084514  1
  In  In23  1  0.17840259  0.68015520  0.85018073  1
  In  In24  1  0.48843657  0.00076326  0.37069634  1
  In  In25  1  0.49293012  0.00179398  0.88291565  1
  In  In26  1  0.50660988  0.33458892  0.36628830  1
  In  In27  1  0.50110582  0.33129737  0.88699176  1
  In  In28  1  0.47992041  0.68300513  0.38359587  1
  In  In29  1  0.49997501  0.66993593  0.88068521  1
  In  In30  1  0.84953731  0.00005715  0.38216047  1
  In  In31  1  0.84285775  0.00522648  0.86983590  1
  In  In32  1  0.81807475  0.33019856  0.37467573  1
  In  In33  1  0.83710036  0.32162472  0.87158099  1
  In  In34  1  0.83787224  0.65700914  0.37743228  1
  In  In35  1  0.83670359  0.67387999  0.86517728  1
  In  In36  1  0.00387063  0.16041150  0.38530672  1
  In  In37  1  0.00078979  0.16860996  0.87190667  1
  In  In38  1  0.00452410  0.51875485  0.38096769  1
  In  In39  1  0.00982489  0.50503058  0.86053479  1
  In  In40  1  0.01714392  0.82777224  0.38701095  1
  In  In41  1  0.01158334  0.84103941  0.85094840  1
  In  In42  1  0.33304437  0.15823221  0.36404106  1
  In  In43  1  0.34103197  0.15542137  0.88353366  1
  In  In44  1  0.33263373  0.50342496  0.37904492  1
  In  In45  1  0.33678282  0.51051672  0.87616560  1
  In  In46  1  0.33610013  0.83152858  0.37260641  1
  In  In47  1  0.33669247  0.83853852  0.86836286  1
  In  In48  1  0.65771460  0.17730808  0.37488441  1
  In  In49  1  0.66730612  0.16384685  0.88485464  1
  In  In50  1  0.66201927  0.48416346  0.37206990  1
  In  In51  1  0.65294252  0.50933653  0.88096299  1
  In  In52  1  0.65786971  0.83024064  0.37925052  1
  In  In53  1  0.65886753  0.82171016  0.87640099  1
  In  In54  1  0.17438722  0.01107313  0.12097149  1
  In  In55  1  0.16508752  -0.00268287  0.63016808  1
  In  In56  1  0.18341362  0.32982157  0.12955289  1
  In  In57  1  0.15471026  0.32363905  0.61313888  1
  In  In58  1  0.17086238  0.67032247  0.13223150  1
  In  In59  1  0.16953800  0.67271670  0.62024147  1
  In  In60  1  0.48933008  -0.00860473  0.12124405  1
  In  In61  1  0.50133499  -0.02182130  0.62390693  1
  In  In62  1  0.49768221  0.33060782  0.12712003  1
  In  In63  1  0.48673070  0.33277232  0.62078435  1
  In  In64  1  0.49775580  0.65985244  0.11655396  1
  In  In65  1  0.49474750  0.66776470  0.62552137  1
  In  In66  1  0.81997269  0.00387354  0.12227105  1
  In  In67  1  0.84281362  0.01944574  0.62085981  1
  In  In68  1  0.83479257  0.32085946  0.12504711  1
  In  In69  1  0.84745402  0.32828730  0.62900773  1
  In  In70  1  0.83883903  0.67270983  0.12646957  1
  In  In71  1  0.83354072  0.65895914  0.63126280  1
  In  In72  1  0.49808884  0.16282993  0.49055640  1
  In  In73  1  0.83374692  0.49160081  0.50382333  1
  In  In74  1  0.66010830  0.65995635  0.24347595  1
  In  In75  1  0.66853467  -0.00138251  0.75013863  1
  In  In76  1  0.66056755  0.00269238  0.25200198  1
  In  In77  1  0.83123606  0.49831693  -0.00969546  1
  In  In78  1  0.17198171  0.83855199  -0.01022193  1
  In  In79  1  0.83405530  0.83866151  0.51181385  1
  In  In80  1  0.83079340  0.84037262  -0.00563629  1
  In  In81  1  0.32402569  0.33858235  0.74914179  1
  In  In82  1  0.16950597  0.49797522  -0.00312419  1
  In  In83  1  0.00866668  -0.00555146  0.24743973  1
  In  In84  1  0.00569057  0.33694041  0.25098103  1
  In  In85  1  0.66371111  0.34080256  0.75639103  1
  Cu  Cu86  1  0.82850887  0.83555809  0.74575887  1
  Cu  Cu87  1  0.32964709  -0.00452158  0.00127896  1
  Cu  Cu88  1  0.17307087  0.83156244  0.26070715  1
  Cu  Cu89  1  0.00060087  0.32887599  0.50183122  1
  Cu  Cu90  1  0.16735849  0.51100799  0.25526787  1
  Cu  Cu91  1  0.00340574  0.66826878  -0.01003523  1
  Cu  Cu92  1  0.33935744  0.66200572  0.00420029  1
  Cu  Cu93  1  0.00470735  0.00448057  0.51073854  1
  Cu  Cu94  1  0.16936384  0.50112061  0.73901393  1
  Cu  Cu95  1  0.65900307  0.00682814  0.00209816  1
  Cu  Cu96  1  0.82971327  0.16882313  0.25038199  1
  Cu  Cu97  1  0.66582358  0.33656419  0.00223010  1
  Cu  Cu98  1  0.83199336  0.50360795  0.74745025  1
  Cu  Cu99  1  0.49403397  0.15496267  0.75617165  1
  Cu  Cu100  1  0.33572059  0.32844069  0.00780685  1
  Cu  Cu101  1  0.49985882  0.50914628  0.75095370  1
  Cu  Cu102  1  0.17280569  0.16284174  0.25125339  1
  Cu  Cu103  1  0.16348473  0.16431621  0.74735254  1
  Cu  Cu104  1  0.33053282  0.34096012  0.49903257  1
  Cu  Cu105  1  0.66202823  0.32615165  0.49592849  1
  Cu  Cu106  1  0.49282710  0.82459441  0.74888329  1
  Cu  Cu107  1  0.83852489  0.82243247  0.25295187  1
  Cu  Cu108  1  0.49344052  0.50171222  0.25274398  1
  Cu  Cu109  1  0.83392966  0.49870909  0.25370057  1
  Cu  Cu110  1  0.65457357  0.66320117  0.50113824  1
  Cu  Cu111  1  0.33237741  0.00116594  0.50122567  1
  Cu  Cu112  1  -0.00134396  0.00909751  -0.00547176  1
  Cu  Cu113  1  0.33218916  0.67389961  0.49999840  1
  Cu  Cu114  1  0.00160172  0.32402837  -0.00427157  1
  Se  Se115  1  0.08835324  0.08338473  0.04903131  1
  Se  Se116  1  0.09024382  0.08954811  0.56072417  1
  Se  Se117  1  0.07982838  0.40494134  0.05800491  1
  Se  Se118  1  0.08274458  0.41999303  0.54757452  1
  Se  Se119  1  0.08217985  0.74609624  0.05398230  1
  Se  Se120  1  0.08912346  0.76124530  0.55316782  1
  Se  Se121  1  0.41267674  0.08141387  0.05363032  1
  Se  Se122  1  0.41382517  0.08044586  0.56209674  1
  Se  Se123  1  0.41876160  0.41780262  0.05524541  1
  Se  Se124  1  0.41978757  0.42034232  0.54908582  1
  Se  Se125  1  0.41173512  0.75447160  0.05805743  1
  Se  Se126  1  0.41592632  0.75427973  0.55654944  1
  Se  Se127  1  0.75172180  0.08734676  0.04838714  1
  Se  Se128  1  0.74196015  0.06950215  0.55026353  1
  Se  Se129  1  0.74847255  0.41606438  0.06183521  1
  Se  Se130  1  0.74034845  0.40263797  0.56283932  1
  Se  Se131  1  0.74806931  0.74543047  0.05584063  1
  Se  Se132  1  0.73982141  0.73864308  0.56124662  1
  Se  Se133  1  0.24718911  0.24455129  0.05425117  1
  Se  Se134  1  0.25280931  0.24999848  0.55016768  1
  Se  Se135  1  0.25607149  0.58299898  0.06336936  1
  Se  Se136  1  0.24883707  0.58634281  0.54945368  1
  Se  Se137  1  0.25787431  0.91045270  0.06374827  1
  Se  Se138  1  0.25103137  0.92048449  0.55874392  1
  Se  Se139  1  0.58386075  0.25263946  0.05641832  1
  Se  Se140  1  0.58613208  0.24747166  0.56175912  1
  Se  Se141  1  0.59413218  0.59620576  0.04786909  1
  Se  Se142  1  0.57473990  0.57848091  0.55573399  1
  Se  Se143  1  0.57932257  0.91698568  0.05097057  1
  Se  Se144  1  0.58098066  0.91735989  0.54466903  1
  Se  Se145  1  0.91331173  0.24747300  0.04959270  1
  Se  Se146  1  0.91864210  0.24561071  0.55595625  1
  Se  Se147  1  0.92568219  0.58962482  0.05207081  1
  Se  Se148  1  0.92076587  0.59124440  0.55442249  1
  Se  Se149  1  0.92521254  0.92620521  0.05870117  1
  Se  Se150  1  0.93222277  0.91735150  0.57131894  1
  Se  Se151  1  0.08716522  0.24671180  0.44925527  1
  Se  Se152  1  0.08923835  0.24544374  0.94352413  1
  Se  Se153  1  0.08286754  0.59238400  0.45341561  1
  Se  Se154  1  0.09033436  0.59330382  0.93259673  1
  Se  Se155  1  0.08529800  0.92148270  0.45451138  1
  Se  Se156  1  0.07320033  0.92433583  0.93520730  1
  Se  Se157  1  0.40871341  0.25876792  0.43728235  1
  Se  Se158  1  0.41711935  0.24551261  0.95082574  1
  Se  Se159  1  0.41576094  0.58452678  0.45031548  1
  Se  Se160  1  0.42157049  0.57878312  0.95006532  1
  Se  Se161  1  0.41352155  0.91965412  0.44414084  1
  Se  Se162  1  0.41163730  0.91120147  0.94685654  1
  Se  Se163  1  0.74992739  0.24315535  0.44780193  1
  Se  Se164  1  0.74957607  0.25648537  0.94623436  1
  Se  Se165  1  0.73878751  0.58257309  0.44378230  1
  Se  Se166  1  0.74736436  0.60081898  0.94019543  1
  Se  Se167  1  0.74886784  0.91916491  0.44055023  1
  Se  Se168  1  0.73870260  0.93076255  0.93584076  1
  Se  Se169  1  0.25726823  0.09125114  0.44593943  1
  Se  Se170  1  0.24586505  0.07474060  0.94442201  1
  Se  Se171  1  0.24462682  0.42396033  0.44800750  1
  Se  Se172  1  0.26071769  0.40498554  0.93910451  1
  Se  Se173  1  0.25041490  0.75771682  0.44523007  1
  Se  Se174  1  0.25724213  0.73514914  0.93971859  1
  Se  Se175  1  0.59242610  0.07065669  0.43807629  1
  Se  Se176  1  0.57387583  0.08943504  0.94942683  1
  Se  Se177  1  0.57935835  0.41175833  0.44597335  1
  Se  Se178  1  0.58189147  0.42076853  0.95124696  1
  Se  Se179  1  0.57689099  0.75305870  0.45036509  1
  Se  Se180  1  0.57591908  0.75655747  0.95121362  1
  Se  Se181  1  0.91854040  0.08403625  0.45618359  1
  Se  Se182  1  0.91266767  0.09042773  0.94327741  1
  Se  Se183  1  0.92227035  0.40672660  0.43662428  1
  Se  Se184  1  0.93311786  0.41553516  0.93631765  1
  Se  Se185  1  0.91641265  0.74583674  0.44674184  1
  Se  Se186  1  0.92838201  0.75716928  0.93419902  1
  Se  Se187  1  0.24924722  0.25282538  0.30371469  1
  Se  Se188  1  0.24658926  0.24038019  0.81093861  1
  Se  Se189  1  0.25400006  0.58981906  0.30897899  1
  Se  Se190  1  0.25497194  0.57452890  0.79818641  1
  Se  Se191  1  0.25379770  0.92323112  0.30650139  1
  Se  Se192  1  0.22378359  0.88469976  0.80690554  1
  Se  Se193  1  0.58248248  0.24610759  0.29811721  1
  Se  Se194  1  0.57403390  0.24089398  0.81055451  1
  Se  Se195  1  0.57474587  0.58123646  0.31416301  1
  Se  Se196  1  0.58255558  0.59053292  0.80600055  1
  Se  Se197  1  0.57383123  0.90417618  0.30469539  1
  Se  Se198  1  0.57306853  0.91069498  0.80750628  1
  Se  Se199  1  0.91713744  0.24243332  0.31057621  1
  Se  Se200  1  0.92928564  0.26010327  0.80217390  1
  Se  Se201  1  0.91794924  0.58202446  0.30370960  1
  Se  Se202  1  0.91774084  0.58689808  0.79942713  1
  Se  Se203  1  0.91896904  0.90510481  0.31022694  1
  Se  Se204  1  0.91202360  0.92186809  0.79561869  1
  Se  Se205  1  0.09246606  0.08354138  0.31189779  1
  Se  Se206  1  0.08102299  0.08212685  0.80271808  1
  Se  Se207  1  0.09024525  0.42548755  0.31486820  1
  Se  Se208  1  0.08860419  0.41648692  0.79379383  1
  Se  Se209  1  0.08427960  0.74934140  0.30899537  1
  Se  Se210  1  0.06427191  0.72891335  0.79373860  1
  Se  Se211  1  0.43935372  0.10187270  0.30119465  1
  Se  Se212  1  0.40957916  0.07227137  0.80667489  1
  Se  Se213  1  0.41231381  0.41882900  0.30793565  1
  Se  Se214  1  0.42616177  0.41846656  0.80916109  1
  Se  Se215  1  0.41586805  0.75049595  0.30061341  1
  Se  Se216  1  0.41400288  0.74259980  0.80707683  1
  Se  Se217  1  0.75991984  0.08363560  0.31277567  1
  Se  Se218  1  0.75337801  0.09676628  0.80659251  1
  Se  Se219  1  0.74793657  0.41251940  0.29933313  1
  Se  Se220  1  0.75577480  0.43047545  0.81574238  1
  Se  Se221  1  0.75130220  0.74773853  0.31022945  1
  Se  Se222  1  0.74599972  0.75543748  0.80204132  1
  Se  Se223  1  0.25464207  0.07964282  0.19725975  1
  Se  Se224  1  0.25163810  0.07953486  0.70051073  1
  Se  Se225  1  0.24484711  0.42223426  0.20150275  1
  Se  Se226  1  0.24672936  0.42080973  0.67660168  1
  Se  Se227  1  0.25254600  0.74536111  0.20489428  1
  Se  Se228  1  0.24851409  0.74645297  0.69659311  1
  Se  Se229  1  0.58197659  0.08632518  0.18219426  1
  Se  Se230  1  0.57540028  0.08710313  0.68885956  1
  Se  Se231  1  0.57736666  0.41764834  0.19886755  1
  Se  Se232  1  0.57194658  0.42203834  0.69043943  1
  Se  Se233  1  0.57563419  0.75742503  0.18857015  1
  Se  Se234  1  0.58171019  0.74779943  0.69556160  1
  Se  Se235  1  0.91073572  0.08691009  0.19213853  1
  Se  Se236  1  0.90617829  0.09543584  0.70019200  1
  Se  Se237  1  0.91522614  0.42474893  0.18763780  1
  Se  Se238  1  0.91713296  0.42202453  0.69547318  1
  Se  Se239  1  0.92394030  0.74098750  0.20110869  1
  Se  Se240  1  0.91252356  0.75066524  0.69450206  1
  Se  Se241  1  0.08641617  0.23766995  0.19092291  1
  Se  Se242  1  0.08547019  0.25340136  0.69503350  1
  Se  Se243  1  0.08243441  0.59012206  0.19961831  1
  Se  Se244  1  0.08491463  0.58350451  0.68695912  1
  Se  Se245  1  0.09885139  0.90323634  0.18819632  1
  Se  Se246  1  0.06935116  0.93342650  0.70017385  1
  Se  Se247  1  0.39447095  0.26906968  0.19113752  1
  Se  Se248  1  0.41886742  0.24117136  0.69589043  1
  Se  Se249  1  0.41919313  0.58886462  0.19490491  1
  Se  Se250  1  0.41187580  0.58630555  0.69714281  1
  Se  Se251  1  0.40959394  0.93254884  0.20251284  1
  Se  Se252  1  0.41364643  0.91406113  0.69776584  1
  Se  Se253  1  0.74826330  0.25325273  0.19871545  1
  Se  Se254  1  0.75216340  0.25004161  0.69703417  1
  Se  Se255  1  0.75577830  0.57161170  0.18536269  1
  Se  Se256  1  0.74241995  0.58643896  0.70094406  1
  Se  Se257  1  0.75839890  0.90592218  0.19548848  1
  Se  Se258  1  0.75187825  0.91320136  0.68247816  1
