# generated using pymatgen
data_In86Cu29Se144
_symmetry_space_group_name_H-M   'P 1'
_cell_length_a   17.76938422
_cell_length_b   17.76145760
_cell_length_c   23.59175614
_cell_angle_alpha   89.94153309
_cell_angle_beta   90.02460042
_cell_angle_gamma   89.94551089
_symmetry_Int_Tables_number   1
_chemical_formula_structural   In86Cu29Se144
_chemical_formula_sum   'In86 Cu29 Se144'
_cell_volume   7445.79010167
_cell_formula_units_Z   1
loop_
 _symmetry_equiv_pos_site_id
 _symmetry_equiv_pos_as_xyz
  1  'x, y, z'
loop_
 _atom_site_type_symbol
 _atom_site_label
 _atom_site_symmetry_multiplicity
 _atom_site_fract_x
 _atom_site_fract_y
 _atom_site_fract_z
 _atom_site_occupancy
  In  In0  1  0.01354173  0.16824851  0.11715402  1
  In  In1  1  -0.01289634  0.18101406  0.63491531  1
  In  In2  1  0.00364171  0.50467073  0.11319376  1
  In  In3  1  0.00195841  0.49905343  0.62945789  1
  In  In4  1  -0.00903282  0.82372209  0.12016617  1
  In  In5  1  0.00545102  0.82515741  0.63850921  1
  In  In6  1  0.36866626  0.21581980  0.07160661  1
  In  In7  1  0.34186080  0.15900217  0.62268936  1
  In  In8  1  0.39757088  0.54899532  0.04531621  1
  In  In9  1  0.33643854  0.52039037  0.61630541  1
  In  In10  1  0.35133575  0.82338532  0.12172090  1
  In  In11  1  0.32388397  0.82141395  0.61509155  1
  In  In12  1  0.67172296  0.17925405  0.12548640  1
  In  In13  1  0.66165444  0.17014965  0.62782163  1
  In  In14  1  0.65879522  0.48580658  0.12519859  1
  In  In15  1  0.65585822  0.51117457  0.63641501  1
  In  In16  1  0.63705142  0.80723430  0.06663171  1
  In  In17  1  0.65734304  0.83491639  0.63256237  1
  In  In18  1  0.17346632  -0.01412717  0.37800162  1
  In  In19  1  0.16634030  0.00944465  0.87206102  1
  In  In20  1  0.17873135  0.33961027  0.37778362  1
  In  In21  1  0.15084057  0.33784659  0.87940106  1
  In  In22  1  0.20272891  0.63540523  0.43236431  1
  In  In23  1  0.16057352  0.65993737  0.86756088  1
  In  In24  1  0.51035475  -0.00480672  0.38387115  1
  In  In25  1  0.51704937  -0.01907895  0.90217809  1
  In  In26  1  0.50543274  0.33257029  0.38014229  1
  In  In27  1  0.50049419  0.31755881  0.88396922  1
  In  In28  1  0.51500585  0.66049159  0.37343446  1
  In  In29  1  0.50990815  0.67218922  0.87613221  1
  In  In30  1  0.84680541  0.00139414  0.38075026  1
  In  In31  1  0.81185510  -0.01938699  0.86430220  1
  In  In32  1  0.81704727  0.34369334  0.37536431  1
  In  In33  1  0.83938784  0.34125675  0.87069987  1
  In  In34  1  0.83084248  0.67197430  0.37502304  1
  In  In35  1  0.82844010  0.66287318  0.88271389  1
  In  In36  1  -0.00014784  0.15727890  0.38067236  1
  In  In37  1  -0.00223604  0.16793356  0.86636122  1
  In  In38  1  0.00943604  0.51592415  0.37978645  1
  In  In39  1  -0.00263694  0.50127709  0.87431983  1
  In  In40  1  0.01245379  0.83094830  0.38143432  1
  In  In41  1  -0.01709404  0.81664779  0.85826990  1
  In  In42  1  0.34530715  0.17951676  0.37486455  1
  In  In43  1  0.33898718  0.16173371  0.88468304  1
  In  In44  1  0.34299482  0.50235902  0.37925013  1
  In  In45  1  0.31885853  0.49516825  0.87815071  1
  In  In46  1  0.36533310  0.78691770  0.40709350  1
  In  In47  1  0.34649840  0.82668545  0.87822572  1
  In  In48  1  0.66252917  0.17368250  0.38552056  1
  In  In49  1  0.65532104  0.15724894  0.86942082  1
  In  In50  1  0.65831923  0.49529088  0.36514723  1
  In  In51  1  0.66548942  0.49884420  0.88098764  1
  In  In52  1  0.67266132  0.82286794  0.37340845  1
  In  In53  1  0.66516339  0.82331861  0.88714277  1
  In  In54  1  0.15812132  0.00367047  0.12480441  1
  In  In55  1  0.16513794  -0.01144787  0.62625351  1
  In  In56  1  0.22677065  0.40201490  0.06939793  1
  In  In57  1  0.15829298  0.33645058  0.62864393  1
  In  In58  1  0.18442487  0.65100773  0.12263651  1
  In  In59  1  0.16506186  0.67054244  0.62426155  1
  In  In60  1  0.50461695  -0.00323733  0.11860817  1
  In  In61  1  0.50437049  -0.00172591  0.62410485  1
  In  In62  1  0.51004063  0.34044585  0.12907951  1
  In  In63  1  0.50319703  0.35021606  0.62368249  1
  In  In64  1  0.51118465  0.66115392  0.13207263  1
  In  In65  1  0.49760371  0.67073280  0.62698318  1
  In  In66  1  0.83357437  -0.00453897  0.12065952  1
  In  In67  1  0.82003253  0.00744278  0.63433228  1
  In  In68  1  0.82111239  0.33350241  0.12483796  1
  In  In69  1  0.83360916  0.33381299  0.63268110  1
  In  In70  1  0.78237213  0.62994674  0.06461219  1
  In  In71  1  0.83048077  0.66361222  0.63516714  1
  In  In72  1  0.32753410  0.33801561  0.23435409  1
  In  In73  1  0.33896055  0.65783775  0.25687973  1
  In  In74  1  0.33172340  0.33487900  0.75558481  1
  In  In75  1  -0.00574000  0.33028843  0.24591677  1
  In  In76  1  0.83708864  0.49694005  0.50533793  1
  In  In77  1  0.33947276  -0.00227857  0.74902287  1
  In  In78  1  0.83196980  0.16207157  -0.01137109  1
  In  In79  1  -0.00383060  -0.00353383  0.24768604  1
  In  In80  1  0.17114326  0.16709950  0.50172386  1
  In  In81  1  0.33347380  0.00087147  0.24332758  1
  In  In82  1  -0.00173068  0.67569795  0.25408636  1
  In  In83  1  0.66949730  -0.00180624  0.25230752  1
  In  In84  1  0.16773549  0.83421304  -0.01055468  1
  In  In85  1  0.83724258  0.83701702  0.50354806  1
  Cu  Cu86  1  0.16826459  0.50117175  0.25335299  1
  Cu  Cu87  1  0.34144662  0.33868572  0.50065876  1
  Cu  Cu88  1  -0.00833095  0.33397345  -0.00658488  1
  Cu  Cu89  1  0.49997483  0.16495212  0.75166925  1
  Cu  Cu90  1  -0.00057867  0.33538364  0.50810241  1
  Cu  Cu91  1  0.66247007  0.33160151  -0.00161739  1
  Cu  Cu92  1  0.17102596  0.82862809  0.25454670  1
  Cu  Cu93  1  0.50319847  0.17216708  0.25337969  1
  Cu  Cu94  1  0.49800106  0.50133515  0.24674906  1
  Cu  Cu95  1  0.34052835  -0.00080009  0.50223947  1
  Cu  Cu96  1  0.83272856  0.16599183  0.25107817  1
  Cu  Cu97  1  0.82184150  0.83106226  0.75437547  1
  Cu  Cu98  1  0.82915140  0.82529187  0.24666507  1
  Cu  Cu99  1  0.16320681  0.17055218  0.75137139  1
  Cu  Cu100  1  0.50327720  0.82820503  0.75582184  1
  Cu  Cu101  1  0.82425158  0.51229679  0.23735074  1
  Cu  Cu102  1  0.66801259  0.66088213  0.50352921  1
  Cu  Cu103  1  0.00903293  0.67033065  -0.01001404  1
  Cu  Cu104  1  -0.00975441  0.01181413  0.50883856  1
  Cu  Cu105  1  0.82766683  0.50443998  0.75616044  1
  Cu  Cu106  1  0.17082052  0.83170203  0.74716043  1
  Cu  Cu107  1  0.16361237  0.49766764  0.75040496  1
  Cu  Cu108  1  0.00194422  -0.00101975  -0.00850545  1
  Cu  Cu109  1  0.16283275  0.16445812  0.24546122  1
  Cu  Cu110  1  0.66103483  0.33857685  0.50224045  1
  Cu  Cu111  1  0.82639962  0.16944004  0.75253172  1
  Cu  Cu112  1  0.66890257  0.00482791  0.50827602  1
  Cu  Cu113  1  0.50002669  0.50305262  0.75166489  1
  Cu  Cu114  1  0.32901179  -0.00558125  0.00047367  1
  Se  Se115  1  0.08323671  0.07809292  0.04769892  1
  Se  Se116  1  0.07881543  0.08661624  0.56552722  1
  Se  Se117  1  0.07356368  0.40179555  0.05789620  1
  Se  Se118  1  0.08314190  0.41865116  0.55733046  1
  Se  Se119  1  0.09030352  0.74071697  0.05884390  1
  Se  Se120  1  0.08655825  0.76360113  0.56159680  1
  Se  Se121  1  0.39877074  0.07239155  0.06642647  1
  Se  Se122  1  0.42325087  0.08173156  0.55386555  1
  Se  Se123  1  0.40248337  0.40175392  0.06872452  1
  Se  Se124  1  0.41627386  0.42646508  0.55542838  1
  Se  Se125  1  0.40314531  0.71465089  0.06180587  1
  Se  Se126  1  0.42868159  0.76020371  0.55579853  1
  Se  Se127  1  0.74492916  0.08350701  0.05755600  1
  Se  Se128  1  0.74893218  0.08941423  0.55964783  1
  Se  Se129  1  0.74653556  0.41253939  0.05186381  1
  Se  Se130  1  0.73970484  0.41726305  0.56469216  1
  Se  Se131  1  0.77819032  0.77537831  0.05533109  1
  Se  Se132  1  0.74615095  0.74481802  0.56077153  1
  Se  Se133  1  0.23116540  0.25424999  0.07563620  1
  Se  Se134  1  0.26017699  0.25948474  0.56115239  1
  Se  Se135  1  0.24440170  0.55627721  0.05262157  1
  Se  Se136  1  0.24810769  0.59591081  0.54880457  1
  Se  Se137  1  0.25221462  0.91254499  0.06348966  1
  Se  Se138  1  0.25214612  0.92274299  0.55417465  1
  Se  Se139  1  0.58321624  0.25265753  0.05730087  1
  Se  Se140  1  0.58104727  0.25791841  0.56008815  1
  Se  Se141  1  0.56019357  0.55778362  0.06122688  1
  Se  Se142  1  0.58211128  0.58510881  0.55910462  1
  Se  Se143  1  0.58641279  0.93983569  0.03927158  1
  Se  Se144  1  0.58812126  0.91596695  0.55626760  1
  Se  Se145  1  0.91465808  0.25170208  0.05641244  1
  Se  Se146  1  0.91278796  0.25605665  0.55819118  1
  Se  Se147  1  0.92765664  0.59785414  0.05212289  1
  Se  Se148  1  0.91995806  0.59272271  0.56227761  1
  Se  Se149  1  0.92769717  0.92358439  0.05567338  1
  Se  Se150  1  0.91857066  0.92560693  0.56868467  1
  Se  Se151  1  0.07944137  0.25949138  0.44257176  1
  Se  Se152  1  0.07161690  0.24608764  0.94231148  1
  Se  Se153  1  0.07504683  0.58133924  0.46154881  1
  Se  Se154  1  0.08686305  0.57975769  0.94177607  1
  Se  Se155  1  0.06915635  0.93571936  0.44561298  1
  Se  Se156  1  0.07352957  0.91552315  0.92889647  1
  Se  Se157  1  0.42190208  0.25234025  0.44957781  1
  Se  Se158  1  0.40554256  0.25337669  0.95476462  1
  Se  Se159  1  0.40641110  0.60889394  0.43710903  1
  Se  Se160  1  0.41392898  0.57883321  0.93532765  1
  Se  Se161  1  0.41709122  0.91603940  0.44463670  1
  Se  Se162  1  0.41296563  0.90597346  0.95567811  1
  Se  Se163  1  0.74799148  0.26001096  0.44863341  1
  Se  Se164  1  0.74162985  0.25588899  0.93483963  1
  Se  Se165  1  0.74647360  0.58305765  0.44123597  1
  Se  Se166  1  0.74544676  0.58286547  0.95346403  1
  Se  Se167  1  0.74434191  0.92537387  0.44271922  1
  Se  Se168  1  0.74875053  0.91410514  0.94788572  1
  Se  Se169  1  0.26245526  0.08040936  0.43937095  1
  Se  Se170  1  0.24975621  0.07765505  0.94630690  1
  Se  Se171  1  0.25781607  0.41932995  0.44641037  1
  Se  Se172  1  0.25236903  0.39855251  0.94410085  1
  Se  Se173  1  0.22715142  0.77700258  0.43578288  1
  Se  Se174  1  0.25493342  0.73717565  0.93863976  1
  Se  Se175  1  0.58556978  0.08395382  0.45046304  1
  Se  Se176  1  0.56634198  0.10295930  0.94603576  1
  Se  Se177  1  0.58483035  0.42332435  0.44391741  1
  Se  Se178  1  0.57853098  0.41265398  0.94488943  1
  Se  Se179  1  0.59258825  0.74498656  0.44427116  1
  Se  Se180  1  0.58292850  0.74109846  0.95773389  1
  Se  Se181  1  0.91044055  0.09248763  0.45272030  1
  Se  Se182  1  0.91680804  0.06963143  0.92974356  1
  Se  Se183  1  0.92550378  0.41123122  0.43886188  1
  Se  Se184  1  0.91219706  0.42193125  0.94472126  1
  Se  Se185  1  0.92385862  0.74209011  0.44506803  1
  Se  Se186  1  0.91919939  0.75069255  0.94320813  1
  Se  Se187  1  0.24336424  0.24300521  0.30616684  1
  Se  Se188  1  0.24540072  0.24170300  0.81450442  1
  Se  Se189  1  0.23951107  0.58036469  0.31804730  1
  Se  Se190  1  0.24879024  0.57704121  0.80320294  1
  Se  Se191  1  0.25562030  0.90845088  0.30785724  1
  Se  Se192  1  0.24959439  0.90871982  0.81095785  1
  Se  Se193  1  0.58508008  0.25006212  0.31039084  1
  Se  Se194  1  0.57860861  0.25097341  0.80503078  1
  Se  Se195  1  0.58519457  0.58446619  0.29562527  1
  Se  Se196  1  0.58384814  0.57985624  0.81012217  1
  Se  Se197  1  0.57914095  0.90707955  0.30939919  1
  Se  Se198  1  0.57802652  0.90671987  0.81914851  1
  Se  Se199  1  0.91125025  0.24361061  0.31381221  1
  Se  Se200  1  0.91275530  0.25200770  0.80229302  1
  Se  Se201  1  0.90731298  0.57432805  0.30690814  1
  Se  Se202  1  0.91118084  0.58559875  0.81010346  1
  Se  Se203  1  0.91039743  0.90218406  0.30874475  1
  Se  Se204  1  0.91175093  0.91754637  0.79863209  1
  Se  Se205  1  0.09081897  0.08415350  0.30845793  1
  Se  Se206  1  0.08254990  0.08263937  0.80065187  1
  Se  Se207  1  0.08538695  0.42126197  0.31063778  1
  Se  Se208  1  0.07946096  0.41744788  0.80441331  1
  Se  Se209  1  0.09621858  0.74799662  0.31524053  1
  Se  Se210  1  0.08602703  0.74849494  0.79918149  1
  Se  Se211  1  0.42640830  0.08694624  0.31015937  1
  Se  Se212  1  0.42386551  0.08417655  0.81289187  1
  Se  Se213  1  0.41862495  0.41712681  0.30578257  1
  Se  Se214  1  0.42443662  0.42034754  0.81404316  1
  Se  Se215  1  0.42828105  0.75513667  0.30822050  1
  Se  Se216  1  0.41897011  0.74472241  0.80592615  1
  Se  Se217  1  0.75857143  0.08722475  0.31471508  1
  Se  Se218  1  0.74440283  0.08258183  0.80248376  1
  Se  Se219  1  0.75333032  0.42575253  0.29822223  1
  Se  Se220  1  0.74670425  0.41983667  0.80857968  1
  Se  Se221  1  0.74875342  0.74188267  0.30092728  1
  Se  Se222  1  0.74694787  0.74758526  0.81378780  1
  Se  Se223  1  0.24497835  0.08991727  0.18643446  1
  Se  Se224  1  0.24469509  0.09084288  0.69237630  1
  Se  Se225  1  0.23513496  0.42700926  0.18516238  1
  Se  Se226  1  0.25010581  0.42453917  0.68947507  1
  Se  Se227  1  0.25048596  0.75165143  0.19233997  1
  Se  Se228  1  0.25258000  0.74888189  0.69399973  1
  Se  Se229  1  0.58083597  0.09108964  0.19208775  1
  Se  Se230  1  0.57963560  0.08271002  0.69472741  1
  Se  Se231  1  0.58621449  0.41254522  0.20529946  1
  Se  Se232  1  0.58228170  0.41665044  0.70161282  1
  Se  Se233  1  0.59426691  0.76829921  0.16851230  1
  Se  Se234  1  0.58318168  0.74529129  0.69949150  1
  Se  Se235  1  0.91302403  0.09329525  0.18871163  1
  Se  Se236  1  0.91048180  0.08851819  0.69796055  1
  Se  Se237  1  0.91044047  0.42786743  0.18661991  1
  Se  Se238  1  0.90995034  0.42630551  0.69643569  1
  Se  Se239  1  0.90539396  0.74426072  0.18704695  1
  Se  Se240  1  0.90865708  0.75220558  0.70059507  1
  Se  Se241  1  0.08952517  0.25076577  0.18838918  1
  Se  Se242  1  0.08204918  0.25509280  0.69893897  1
  Se  Se243  1  0.08768845  0.58112098  0.19335866  1
  Se  Se244  1  0.08679290  0.58324816  0.69364111  1
  Se  Se245  1  0.08803764  0.90183672  0.19254296  1
  Se  Se246  1  0.08543623  0.91852321  0.70116292  1
  Se  Se247  1  0.42089987  0.24033263  0.18811100  1
  Se  Se248  1  0.42060644  0.24637221  0.69261589  1
  Se  Se249  1  0.41258081  0.57117169  0.18729809  1
  Se  Se250  1  0.41807559  0.58239460  0.69513504  1
  Se  Se251  1  0.43028518  0.90742328  0.19223169  1
  Se  Se252  1  0.42310013  0.90365002  0.69072430  1
  Se  Se253  1  0.75143875  0.25193816  0.20036365  1
  Se  Se254  1  0.74590457  0.25169261  0.69631610  1
  Se  Se255  1  0.75183482  0.58440597  0.16995220  1
  Se  Se256  1  0.74468956  0.58753751  0.70289931  1
  Se  Se257  1  0.75547577  0.91286290  0.19061022  1
  Se  Se258  1  0.74332852  0.91537348  0.69862473  1
