# generated using pymatgen
data_In86Cu29Se144
_symmetry_space_group_name_H-M   'P 1'
_cell_length_a   17.56920889
_cell_length_b   17.57380533
_cell_length_c   23.41956389
_cell_angle_alpha   89.98742832
_cell_angle_beta   90.02747802
_cell_angle_gamma   89.98962824
_symmetry_Int_Tables_number   1
_chemical_formula_structural   In86Cu29Se144
_chemical_formula_sum   'In86 Cu29 Se144'
_cell_volume   7230.97323425
_cell_formula_units_Z   1
loop_
 _symmetry_equiv_pos_site_id
 _symmetry_equiv_pos_as_xyz
  1  'x, y, z'
loop_
 _atom_site_type_symbol
 _atom_site_label
 _atom_site_symmetry_multiplicity
 _atom_site_fract_x
 _atom_site_fract_y
 _atom_site_fract_z
 _atom_site_occupancy
  In  In0  1  -0.01087224  0.17741930  0.13971486  1
  In  In1  1  -0.00432329  0.17358269  0.62226818  1
  In  In2  1  0.00969405  0.49619006  0.14651431  1
  In  In3  1  -0.01115406  0.49229523  0.61748432  1
  In  In4  1  -0.00347970  0.83668422  0.13309052  1
  In  In5  1  -0.00715014  0.84199443  0.60770250  1
  In  In6  1  0.34168131  0.17245655  0.12947817  1
  In  In7  1  0.34556557  0.17392875  0.62128797  1
  In  In8  1  0.33951800  0.49128221  0.13580478  1
  In  In9  1  0.33195409  0.49133542  0.62081270  1
  In  In10  1  0.31798191  0.83662777  0.12779535  1
  In  In11  1  0.33791212  0.83133733  0.60883087  1
  In  In12  1  0.67947524  0.16337203  0.12678778  1
  In  In13  1  0.66224679  0.16167980  0.61357211  1
  In  In14  1  0.66108933  0.50207288  0.12817170  1
  In  In15  1  0.67416969  0.51066280  0.61989780  1
  In  In16  1  0.66907845  0.82024891  0.12851846  1
  In  In17  1  0.66441092  0.82777716  0.62068029  1
  In  In18  1  0.14424732  -0.00615935  0.36933067  1
  In  In19  1  0.15516522  -0.00250358  0.88020538  1
  In  In20  1  0.17087932  0.33525750  0.34647871  1
  In  In21  1  0.16508506  0.33259847  0.87077986  1
  In  In22  1  0.17624360  0.67672510  0.36315366  1
  In  In23  1  0.17666771  0.66897933  0.88209857  1
  In  In24  1  0.51195512  -0.00354825  0.39441723  1
  In  In25  1  0.50490315  -0.01315642  0.86796588  1
  In  In26  1  0.50488907  0.33431122  0.37677819  1
  In  In27  1  0.50330471  0.34917964  0.87537975  1
  In  In28  1  0.49961569  0.65771584  0.37779275  1
  In  In29  1  0.49961483  0.65742219  0.87492567  1
  In  In30  1  0.85078253  -0.01411184  0.40059407  1
  In  In31  1  0.83179281  0.00427482  0.87775946  1
  In  In32  1  0.83224307  0.33801001  0.37489109  1
  In  In33  1  0.83110598  0.31548539  0.87568912  1
  In  In34  1  0.83128747  0.66549119  0.37315406  1
  In  In35  1  0.83481926  0.68096384  0.87401633  1
  In  In36  1  -0.00695542  0.15975916  0.36220495  1
  In  In37  1  -0.01375539  0.16387239  0.87464363  1
  In  In38  1  -0.00619021  0.49095860  0.36179061  1
  In  In39  1  0.01126998  0.49648095  0.87745742  1
  In  In40  1  -0.00091427  0.83406487  0.37681006  1
  In  In41  1  -0.00325172  0.83317016  0.88502427  1
  In  In42  1  0.33690853  0.17784142  0.37389036  1
  In  In43  1  0.32181276  0.17128024  0.87200014  1
  In  In44  1  0.34367269  0.51306452  0.36266001  1
  In  In45  1  0.34733527  0.50315763  0.87726560  1
  In  In46  1  0.34479965  0.81103780  0.38966417  1
  In  In47  1  0.33345389  0.82331996  0.88050033  1
  In  In48  1  0.66204655  0.16951581  0.38800792  1
  In  In49  1  0.68367253  0.16613517  0.87405833  1
  In  In50  1  0.66708104  0.50064402  0.37565808  1
  In  In51  1  0.65040754  0.49758903  0.87665577  1
  In  In52  1  0.67849806  0.82949845  0.38475273  1
  In  In53  1  0.67283465  0.84167331  0.86213442  1
  In  In54  1  0.16661190  -0.01826330  0.12645833  1
  In  In55  1  0.16923056  -0.00447109  0.62051629  1
  In  In56  1  0.16608305  0.33354499  0.14502799  1
  In  In57  1  0.16579062  0.33275271  0.62653770  1
  In  In58  1  0.15535775  0.67640305  0.14281451  1
  In  In59  1  0.16153716  0.67248887  0.61808502  1
  In  In60  1  0.49381275  0.00646039  0.12579011  1
  In  In61  1  0.51710091  0.00868864  0.60648636  1
  In  In62  1  0.49404454  0.34101530  0.13189424  1
  In  In63  1  0.49266710  0.33178594  0.61851692  1
  In  In64  1  0.51393165  0.65429109  0.13567455  1
  In  In65  1  0.51071873  0.68052032  0.60754958  1
  In  In66  1  0.83953641  0.00855324  0.12138616  1
  In  In67  1  0.80330491  -0.02074639  0.59381582  1
  In  In68  1  0.83207136  0.32660944  0.13127002  1
  In  In69  1  0.83745617  0.33683952  0.61682470  1
  In  In70  1  0.82693896  0.67530250  0.13331055  1
  In  In71  1  0.82483590  0.65935929  0.61561959  1
  In  In72  1  0.50104675  0.16747919  0.00400026  1
  In  In73  1  0.16510810  0.16145763  0.00927163  1
  In  In74  1  0.67355773  -0.00069675  0.26451191  1
  In  In75  1  0.15948693  0.16404181  0.48736726  1
  In  In76  1  0.50045301  0.83097951  -0.00033963  1
  In  In77  1  -0.00328862  0.66377426  0.74301976  1
  In  In78  1  0.33649943  0.00119168  0.74170847  1
  In  In79  1  0.66702137  0.33459397  0.75381621  1
  In  In80  1  0.83506784  0.50403984  0.01067721  1
  In  In81  1  0.16770293  0.50101650  0.01807923  1
  In  In82  1  0.32971890  0.00304332  0.25551176  1
  In  In83  1  -0.00677132  0.00551396  0.74520161  1
  In  In84  1  0.33799478  0.66297820  0.75028149  1
  In  In85  1  0.17271309  0.50737384  0.48042935  1
  Cu  Cu86  1  0.50021068  0.50142295  0.74904472  1
  Cu  Cu87  1  0.32852939  -0.00404613  0.49858207  1
  Cu  Cu88  1  0.16557448  0.18103920  0.74722359  1
  Cu  Cu89  1  -0.00489389  0.67089619  0.49403843  1
  Cu  Cu90  1  0.83619423  0.49635643  0.74273474  1
  Cu  Cu91  1  0.82428691  0.50153054  0.25043701  1
  Cu  Cu92  1  0.33724363  0.33550975  0.49320485  1
  Cu  Cu93  1  0.50310395  0.16810193  0.73980220  1
  Cu  Cu94  1  0.16458550  0.83541534  0.25528133  1
  Cu  Cu95  1  0.82934441  0.16866868  0.25634848  1
  Cu  Cu96  1  0.83593568  0.83609524  0.25746807  1
  Cu  Cu97  1  -0.00138138  -0.00833086  0.00494514  1
  Cu  Cu98  1  0.66961701  0.66562702  0.00487630  1
  Cu  Cu99  1  0.00240733  0.33801985  0.49031135  1
  Cu  Cu100  1  0.00043325  0.67557157  0.01218891  1
  Cu  Cu101  1  0.67213424  -0.00532202  -0.00276082  1
  Cu  Cu102  1  0.16516543  0.48715577  0.74806758  1
  Cu  Cu103  1  0.82615701  0.83612822  0.74195228  1
  Cu  Cu104  1  0.50483950  0.49830342  0.25529967  1
  Cu  Cu105  1  0.83143436  0.16356197  0.74727820  1
  Cu  Cu106  1  0.16696728  0.83129327  0.75268301  1
  Cu  Cu107  1  0.66936151  0.66488716  0.49545262  1
  Cu  Cu108  1  0.50451972  0.17129511  0.25683602  1
  Cu  Cu109  1  0.33369682  0.67171751  0.00662971  1
  Cu  Cu110  1  0.33748629  0.34309289  0.00423970  1
  Cu  Cu111  1  0.51150573  0.83391718  0.73788992  1
  Cu  Cu112  1  0.49574185  0.82264501  0.25614109  1
  Cu  Cu113  1  0.66756292  0.34088884  0.49934989  1
  Cu  Cu114  1  -0.00917946  0.32415942  0.00635174  1
  Se  Se115  1  0.07075688  0.07657306  0.06769201  1
  Se  Se116  1  0.07750621  0.07859360  0.55682373  1
  Se  Se117  1  0.07316947  0.40276619  0.06615124  1
  Se  Se118  1  0.08775069  0.41606233  0.54918970  1
  Se  Se119  1  0.08650536  0.75604186  0.06489600  1
  Se  Se120  1  0.07995289  0.75139251  0.54865129  1
  Se  Se121  1  0.40127215  0.07475345  0.05384216  1
  Se  Se122  1  0.41088795  0.08266299  0.55087288  1
  Se  Se123  1  0.42097894  0.42478972  0.05689340  1
  Se  Se124  1  0.41730017  0.41974417  0.54798856  1
  Se  Se125  1  0.41844977  0.74609606  0.06852932  1
  Se  Se126  1  0.40438768  0.73512570  0.54427516  1
  Se  Se127  1  0.75027638  0.08252355  0.05101438  1
  Se  Se128  1  0.77088236  0.10968227  0.55127948  1
  Se  Se129  1  0.74359999  0.40912328  0.06089125  1
  Se  Se130  1  0.75354458  0.42302859  0.55252634  1
  Se  Se131  1  0.75366798  0.75104901  0.05372259  1
  Se  Se132  1  0.75181965  0.75149173  0.54879536  1
  Se  Se133  1  0.25474411  0.26269798  0.06186315  1
  Se  Se134  1  0.25164588  0.25446363  0.55087258  1
  Se  Se135  1  0.25672888  0.59559388  0.07215490  1
  Se  Se136  1  0.25261387  0.58719358  0.55541461  1
  Se  Se137  1  0.25356034  0.91883420  0.05180816  1
  Se  Se138  1  0.24279307  0.91272306  0.54899817  1
  Se  Se139  1  0.58744877  0.25423964  0.06568396  1
  Se  Se140  1  0.58285732  0.25629684  0.55194679  1
  Se  Se141  1  0.58315338  0.58269437  0.05366232  1
  Se  Se142  1  0.58497809  0.57998472  0.54816040  1
  Se  Se143  1  0.59023227  0.92353539  0.06188152  1
  Se  Se144  1  0.56834095  0.89389417  0.55179856  1
  Se  Se145  1  0.90897615  0.24141931  0.05909500  1
  Se  Se146  1  0.92293518  0.25639521  0.54791685  1
  Se  Se147  1  0.93036453  0.58702296  0.07186564  1
  Se  Se148  1  0.91835537  0.58387782  0.55003980  1
  Se  Se149  1  0.91218653  0.91073342  0.05809500  1
  Se  Se150  1  0.91627496  0.92334787  0.53792591  1
  Se  Se151  1  0.08324188  0.26423003  0.42709353  1
  Se  Se152  1  0.07740859  0.25208081  0.94443796  1
  Se  Se153  1  0.07096828  0.59233764  0.42960960  1
  Se  Se154  1  0.07870777  0.59187528  0.95148114  1
  Se  Se155  1  0.07730387  0.91870227  0.44786188  1
  Se  Se156  1  0.08535116  0.91148616  0.95212206  1
  Se  Se157  1  0.42293283  0.24755271  0.44673555  1
  Se  Se158  1  0.40834168  0.25709880  0.94164397  1
  Se  Se159  1  0.40882513  0.58178490  0.44542090  1
  Se  Se160  1  0.41554833  0.58957246  0.95073530  1
  Se  Se161  1  0.41688107  0.91165930  0.45113529  1
  Se  Se162  1  0.41002468  0.92539811  0.94223850  1
  Se  Se163  1  0.75243339  0.25750687  0.44768204  1
  Se  Se164  1  0.74474134  0.25204205  0.94918334  1
  Se  Se165  1  0.75414078  0.58026875  0.44475947  1
  Se  Se166  1  0.74869100  0.58746213  0.94043193  1
  Se  Se167  1  0.72704318  0.94006994  0.44745177  1
  Se  Se168  1  0.75117565  0.91094442  0.94082312  1
  Se  Se169  1  0.25517877  0.07356594  0.43254521  1
  Se  Se170  1  0.25464454  0.07672169  0.94272104  1
  Se  Se171  1  0.25567022  0.40510056  0.42782373  1
  Se  Se172  1  0.25064462  0.41779629  0.94401729  1
  Se  Se173  1  0.23792132  0.74613197  0.44778368  1
  Se  Se174  1  0.24834453  0.75338607  0.95449805  1
  Se  Se175  1  0.58469219  0.08751755  0.45991561  1
  Se  Se176  1  0.58706883  0.07440264  0.93951839  1
  Se  Se177  1  0.58142488  0.42215903  0.44647446  1
  Se  Se178  1  0.58450845  0.41431473  0.95118109  1
  Se  Se179  1  0.58326358  0.74692598  0.44365477  1
  Se  Se180  1  0.59284315  0.74531202  0.93858440  1
  Se  Se181  1  0.92681570  0.09561999  0.44673618  1
  Se  Se182  1  0.91972021  0.07823246  0.94861085  1
  Se  Se183  1  0.91664032  0.42454949  0.44266263  1
  Se  Se184  1  0.92144217  0.41232942  0.94454703  1
  Se  Se185  1  0.90833045  0.75343563  0.44323041  1
  Se  Se186  1  0.91525502  0.74819132  0.95210011  1
  Se  Se187  1  0.25844246  0.23919139  0.29469037  1
  Se  Se188  1  0.25365782  0.25890712  0.80025468  1
  Se  Se189  1  0.23429996  0.56896746  0.30104819  1
  Se  Se190  1  0.24091357  0.57218079  0.80837393  1
  Se  Se191  1  0.25137937  0.90728226  0.31783384  1
  Se  Se192  1  0.24796448  0.91356492  0.80976899  1
  Se  Se193  1  0.59177997  0.24957892  0.30996473  1
  Se  Se194  1  0.57582742  0.24157073  0.81162418  1
  Se  Se195  1  0.58734883  0.58590022  0.30522092  1
  Se  Se196  1  0.58405106  0.58476656  0.80172975  1
  Se  Se197  1  0.57442430  0.90761618  0.31387791  1
  Se  Se198  1  0.58892546  0.92208106  0.79220501  1
  Se  Se199  1  0.91494465  0.25762802  0.30276883  1
  Se  Se200  1  0.91566171  0.24737849  0.80006686  1
  Se  Se201  1  0.91111499  0.58486476  0.30065323  1
  Se  Se202  1  0.91248371  0.57507339  0.81011451  1
  Se  Se203  1  0.91343734  0.92341931  0.31145876  1
  Se  Se204  1  0.91230369  0.90649963  0.80595213  1
  Se  Se205  1  0.09449380  0.09396080  0.29873697  1
  Se  Se206  1  0.09100879  0.09333749  0.80595463  1
  Se  Se207  1  0.07600134  0.41588328  0.28926078  1
  Se  Se208  1  0.07708475  0.41102135  0.80268166  1
  Se  Se209  1  0.07571513  0.75173927  0.30324426  1
  Se  Se210  1  0.08658300  0.75034153  0.81076854  1
  Se  Se211  1  0.43261385  0.08123623  0.31521409  1
  Se  Se212  1  0.42333819  0.09142622  0.80650082  1
  Se  Se213  1  0.42027825  0.41199052  0.30479252  1
  Se  Se214  1  0.41598678  0.41893399  0.80219280  1
  Se  Se215  1  0.41203888  0.73942060  0.30729032  1
  Se  Se216  1  0.42970872  0.76170493  0.80485447  1
  Se  Se217  1  0.76168623  0.08807934  0.32355010  1
  Se  Se218  1  0.75144676  0.07768709  0.80143569  1
  Se  Se219  1  0.74486024  0.41538311  0.30456570  1
  Se  Se220  1  0.75916370  0.42465950  0.81311763  1
  Se  Se221  1  0.74748765  0.75269261  0.30539021  1
  Se  Se222  1  0.75066982  0.74762125  0.79796028  1
  Se  Se223  1  0.24504224  0.08618536  0.18745603  1
  Se  Se224  1  0.24151834  0.09652934  0.68733633  1
  Se  Se225  1  0.25567944  0.41514509  0.20536688  1
  Se  Se226  1  0.25410205  0.41176969  0.69390948  1
  Se  Se227  1  0.25326697  0.75384298  0.20458527  1
  Se  Se228  1  0.24845761  0.75582788  0.69096810  1
  Se  Se229  1  0.58067223  0.08498374  0.19715804  1
  Se  Se230  1  0.58444042  0.08330151  0.68824614  1
  Se  Se231  1  0.58628887  0.41501049  0.19930874  1
  Se  Se232  1  0.58156057  0.42149754  0.68837179  1
  Se  Se233  1  0.58714761  0.74856365  0.20250603  1
  Se  Se234  1  0.58773507  0.73902264  0.69158153  1
  Se  Se235  1  0.90967822  0.08176308  0.20169839  1
  Se  Se236  1  0.90205082  0.08338625  0.68100115  1
  Se  Se237  1  0.90855908  0.41558696  0.19958319  1
  Se  Se238  1  0.91899636  0.41112816  0.69357903  1
  Se  Se239  1  0.91610059  0.75064759  0.20179895  1
  Se  Se240  1  0.91166811  0.75908131  0.68407441  1
  Se  Se241  1  0.08615306  0.24185109  0.20576581  1
  Se  Se242  1  0.07596760  0.25546634  0.69327703  1
  Se  Se243  1  0.09459923  0.57824312  0.21102682  1
  Se  Se244  1  0.09093529  0.57138644  0.68688002  1
  Se  Se245  1  0.08069488  0.91955297  0.20315312  1
  Se  Se246  1  0.08550991  0.90769383  0.69139904  1
  Se  Se247  1  0.41952888  0.25068787  0.20174952  1
  Se  Se248  1  0.41654710  0.25597483  0.69633242  1
  Se  Se249  1  0.41966594  0.58180466  0.20134915  1
  Se  Se250  1  0.42458597  0.58064881  0.68433102  1
  Se  Se251  1  0.42357466  0.91014474  0.19533245  1
  Se  Se252  1  0.42433544  0.91174308  0.68158057  1
  Se  Se253  1  0.74487934  0.24898554  0.20201605  1
  Se  Se254  1  0.75197224  0.24827101  0.68852170  1
  Se  Se255  1  0.74338168  0.58664168  0.19601322  1
  Se  Se256  1  0.75347356  0.58507090  0.69592487  1
  Se  Se257  1  0.75497750  0.91400327  0.19346910  1
  Se  Se258  1  0.74700634  0.91961700  0.68554518  1
