# generated using pymatgen
data_In86Cu29Se144
_symmetry_space_group_name_H-M   'P 1'
_cell_length_a   17.57988928
_cell_length_b   17.58296597
_cell_length_c   23.43985853
_cell_angle_alpha   90.01011923
_cell_angle_beta   90.02176358
_cell_angle_gamma   89.99300957
_symmetry_Int_Tables_number   1
_chemical_formula_structural   In86Cu29Se144
_chemical_formula_sum   'In86 Cu29 Se144'
_cell_volume   7245.41416752
_cell_formula_units_Z   1
loop_
 _symmetry_equiv_pos_site_id
 _symmetry_equiv_pos_as_xyz
  1  'x, y, z'
loop_
 _atom_site_type_symbol
 _atom_site_label
 _atom_site_symmetry_multiplicity
 _atom_site_fract_x
 _atom_site_fract_y
 _atom_site_fract_z
 _atom_site_occupancy
  In  In0  1  -0.01044301  0.17445648  0.12967471  1
  In  In1  1  0.01447184  0.17203001  0.61945797  1
  In  In2  1  0.02381259  0.48689437  0.14423547  1
  In  In3  1  -0.00552073  0.49029247  0.62020394  1
  In  In4  1  0.00005157  0.83215657  0.13145251  1
  In  In5  1  0.00041091  0.83175387  0.61291409  1
  In  In6  1  0.33428561  0.17670737  0.14275657  1
  In  In7  1  0.33536744  0.18179047  0.62323680  1
  In  In8  1  0.32257949  0.50347004  0.12523786  1
  In  In9  1  0.32961402  0.50085448  0.62254357  1
  In  In10  1  0.33427260  0.83349068  0.13105754  1
  In  In11  1  0.31872316  0.83213954  0.62218177  1
  In  In12  1  0.66780627  0.15510031  0.12419634  1
  In  In13  1  0.65488325  0.16297040  0.62915113  1
  In  In14  1  0.66106292  0.51869425  0.11567896  1
  In  In15  1  0.67206560  0.50786333  0.61702113  1
  In  In16  1  0.67793936  0.83212242  0.12304728  1
  In  In17  1  0.67872654  0.83568877  0.62497229  1
  In  In18  1  0.16051934  -0.00046527  0.37191938  1
  In  In19  1  0.15654664  -0.00092234  0.88272651  1
  In  In20  1  0.16445177  0.33565506  0.37362018  1
  In  In21  1  0.17650559  0.34023242  0.86611329  1
  In  In22  1  0.16973794  0.66484013  0.37081696  1
  In  In23  1  0.19646335  0.63930931  0.90430479  1
  In  In24  1  0.48386244  -0.02126537  0.34505184  1
  In  In25  1  0.50850263  -0.01428670  0.87672055  1
  In  In26  1  0.49448812  0.35039868  0.37689731  1
  In  In27  1  0.49292255  0.35126934  0.88011282  1
  In  In28  1  0.46932814  0.65830818  0.36311358  1
  In  In29  1  0.48171854  0.66429078  0.87502649  1
  In  In30  1  0.82677503  -0.01107529  0.36927990  1
  In  In31  1  0.83323463  0.00385959  0.88175766  1
  In  In32  1  0.84769095  0.34101222  0.37290264  1
  In  In33  1  0.82912974  0.32742642  0.87532622  1
  In  In34  1  0.84733530  0.65533839  0.37980118  1
  In  In35  1  0.84701930  0.66700862  0.88059265  1
  In  In36  1  0.01377412  0.18269558  0.36445947  1
  In  In37  1  -0.01047550  0.16810345  0.87844672  1
  In  In38  1  0.00799509  0.49852928  0.37186627  1
  In  In39  1  0.01145899  0.50297936  0.87397683  1
  In  In40  1  0.00062277  0.82974004  0.37378963  1
  In  In41  1  0.00870272  0.82099900  0.88931544  1
  In  In42  1  0.32487266  0.15285906  0.36480971  1
  In  In43  1  0.31777193  0.17296171  0.87807003  1
  In  In44  1  0.32842168  0.50083376  0.37347021  1
  In  In45  1  0.33303979  0.49622591  0.87264777  1
  In  In46  1  0.32103970  0.81485752  0.35770853  1
  In  In47  1  0.33497436  0.81978459  0.87855406  1
  In  In48  1  0.66584760  0.15461692  0.37263596  1
  In  In49  1  0.68326909  0.16512350  0.87820101  1
  In  In50  1  0.66591671  0.50577428  0.38307839  1
  In  In51  1  0.66309762  0.49054187  0.87866369  1
  In  In52  1  0.66566623  0.84332199  0.37332448  1
  In  In53  1  0.66782523  0.84566601  0.87501545  1
  In  In54  1  0.17582691  -0.01027607  0.13812978  1
  In  In55  1  0.15812002  -0.00500532  0.61169520  1
  In  In56  1  0.16103890  0.34428388  0.13585891  1
  In  In57  1  0.16589198  0.33773615  0.62250831  1
  In  In58  1  0.16710350  0.66300159  0.13033546  1
  In  In59  1  0.17367872  0.67327347  0.61925288  1
  In  In60  1  0.50524451  -0.00402643  0.15112870  1
  In  In61  1  0.50312421  0.01132235  0.62725268  1
  In  In62  1  0.47159505  0.34127830  0.13203717  1
  In  In63  1  0.48402463  0.33433643  0.62531883  1
  In  In64  1  0.49375366  0.65477724  0.11838042  1
  In  In65  1  0.49426514  0.65212022  0.62074203  1
  In  In66  1  0.83457541  -0.00087336  0.12732012  1
  In  In67  1  0.83433878  -0.00980036  0.62299530  1
  In  In68  1  0.85900935  0.33364836  0.11704911  1
  In  In69  1  0.84096067  0.35092242  0.62613835  1
  In  In70  1  0.83277940  0.68257389  0.11999000  1
  In  In71  1  0.83553224  0.66793875  0.61670323  1
  In  In72  1  0.66685256  0.66575571  0.74328809  1
  In  In73  1  0.49642654  0.16794692  0.49514020  1
  In  In74  1  0.49874487  0.16735304  0.01415430  1
  In  In75  1  0.00671526  0.66643215  0.75325496  1
  In  In76  1  0.33369032  0.00589966  0.74886069  1
  In  In77  1  0.66333991  0.67609705  0.24305009  1
  In  In78  1  0.49851725  0.83001886  0.48463486  1
  In  In79  1  0.50240366  0.82472404  0.00789530  1
  In  In80  1  0.66369140  0.32846273  0.24551158  1
  In  In81  1  0.15690168  0.16848381  0.00842313  1
  In  In82  1  0.66471649  0.33052150  0.75329037  1
  In  In83  1  0.83600983  0.50395170  -0.00045293  1
  In  In84  1  -0.00061511  0.00231578  0.75144713  1
  In  In85  1  0.83482270  0.16699795  0.48970258  1
  Cu  Cu86  1  0.32917119  0.66237874  0.49390805  1
  Cu  Cu87  1  0.50397624  0.16349121  0.75440108  1
  Cu  Cu88  1  0.49385512  0.49859960  0.74732271  1
  Cu  Cu89  1  0.17000653  0.17661847  0.74439632  1
  Cu  Cu90  1  0.16231814  0.83040796  0.25091272  1
  Cu  Cu91  1  0.00007918  0.66770225  0.01031802  1
  Cu  Cu92  1  0.16303873  0.16686940  0.25170190  1
  Cu  Cu93  1  0.17151158  0.49997027  0.74955908  1
  Cu  Cu94  1  0.83891202  0.50069771  0.25108964  1
  Cu  Cu95  1  0.00443249  0.33952537  0.49419773  1
  Cu  Cu96  1  0.49194444  0.50074250  0.24699721  1
  Cu  Cu97  1  0.32445086  0.33839459  0.49936445  1
  Cu  Cu98  1  0.83275993  0.16151494  0.25057808  1
  Cu  Cu99  1  0.67310632  -0.00073061  0.00286846  1
  Cu  Cu100  1  0.67024133  0.67007112  0.49837128  1
  Cu  Cu101  1  0.32166714  -0.00106964  0.49289919  1
  Cu  Cu102  1  -0.00307850  -0.00805080  0.00791466  1
  Cu  Cu103  1  0.83347631  0.83822611  0.75039640  1
  Cu  Cu104  1  0.83527184  0.83322345  0.24927625  1
  Cu  Cu105  1  0.66813350  0.34214521  0.49835606  1
  Cu  Cu106  1  0.83142322  0.16396057  0.75376532  1
  Cu  Cu107  1  0.66477891  -0.00265314  0.49653269  1
  Cu  Cu108  1  0.32762280  0.34327834  0.00275475  1
  Cu  Cu109  1  0.17043118  0.82830688  0.75129305  1
  Cu  Cu110  1  0.49937804  0.83077915  0.75430248  1
  Cu  Cu111  1  0.66668923  0.33082626  0.00015059  1
  Cu  Cu112  1  0.00736871  0.66663336  0.49473049  1
  Cu  Cu113  1  -0.00101018  -0.00064740  0.49297566  1
  Cu  Cu114  1  0.33385103  -0.00433983  0.01486132  1
  Se  Se115  1  0.07828420  0.07108721  0.06933595  1
  Se  Se116  1  0.08085197  0.08485148  0.54585152  1
  Se  Se117  1  0.08079565  0.41303285  0.05958401  1
  Se  Se118  1  0.08698489  0.42075805  0.55090783  1
  Se  Se119  1  0.08401415  0.75104265  0.06246571  1
  Se  Se120  1  0.08903993  0.75209179  0.54903473  1
  Se  Se121  1  0.41263410  0.07489043  0.07375748  1
  Se  Se122  1  0.40391651  0.07466889  0.55537687  1
  Se  Se123  1  0.41380682  0.42532494  0.05396003  1
  Se  Se124  1  0.41383673  0.41773910  0.55212087  1
  Se  Se125  1  0.39870278  0.73884339  0.05428072  1
  Se  Se126  1  0.41075017  0.74629814  0.55346335  1
  Se  Se127  1  0.75662060  0.08420449  0.05394135  1
  Se  Se128  1  0.74198272  0.08254725  0.55559318  1
  Se  Se129  1  0.74627049  0.41182661  0.06248585  1
  Se  Se130  1  0.75466822  0.41942782  0.55289835  1
  Se  Se131  1  0.73585881  0.74061676  0.05011757  1
  Se  Se132  1  0.75167804  0.75459670  0.55158082  1
  Se  Se133  1  0.25763211  0.25294256  0.06248300  1
  Se  Se134  1  0.24646568  0.24994666  0.55281798  1
  Se  Se135  1  0.23375274  0.57541151  0.05537774  1
  Se  Se136  1  0.24777264  0.58185742  0.55151413  1
  Se  Se137  1  0.24699018  0.91100254  0.06080579  1
  Se  Se138  1  0.24516221  0.91128428  0.54755604  1
  Se  Se139  1  0.58651727  0.26374221  0.06919498  1
  Se  Se140  1  0.58881910  0.25896789  0.55706948  1
  Se  Se141  1  0.58121306  0.59186620  0.04350117  1
  Se  Se142  1  0.58441492  0.58551315  0.54942365  1
  Se  Se143  1  0.58362335  0.92932257  0.06280196  1
  Se  Se144  1  0.58142309  0.91884413  0.55679659  1
  Se  Se145  1  0.92486977  0.24485521  0.04599765  1
  Se  Se146  1  0.92057551  0.25736595  0.55351534  1
  Se  Se147  1  0.92313078  0.58202024  0.06893590  1
  Se  Se148  1  0.92442533  0.58693801  0.55334728  1
  Se  Se149  1  0.91237715  0.90903510  0.05990050  1
  Se  Se150  1  0.91532455  0.91868957  0.54896586  1
  Se  Se151  1  0.08596286  0.24988167  0.44628430  1
  Se  Se152  1  0.08463507  0.25584213  0.93621528  1
  Se  Se153  1  0.08899725  0.58227310  0.44178175  1
  Se  Se154  1  0.07681547  0.58252910  0.95289104  1
  Se  Se155  1  0.08399070  0.91360464  0.44324606  1
  Se  Se156  1  0.08499441  0.91468821  0.95415408  1
  Se  Se157  1  0.40379304  0.25638961  0.43809992  1
  Se  Se158  1  0.40882227  0.25433704  0.94748457  1
  Se  Se159  1  0.41718482  0.57857641  0.44604689  1
  Se  Se160  1  0.41377469  0.57654241  0.94415824  1
  Se  Se161  1  0.40508483  0.92331475  0.43242590  1
  Se  Se162  1  0.41117695  0.92152762  0.94748539  1
  Se  Se163  1  0.74078691  0.26077335  0.43506500  1
  Se  Se164  1  0.75404076  0.24885385  0.95144356  1
  Se  Se165  1  0.75559327  0.58269748  0.44909496  1
  Se  Se166  1  0.74216923  0.59086168  0.93954012  1
  Se  Se167  1  0.75141306  0.91366058  0.44755210  1
  Se  Se168  1  0.75355300  0.91461040  0.94845491  1
  Se  Se169  1  0.24213568  0.08645007  0.44163101  1
  Se  Se170  1  0.25582831  0.07509292  0.95133311  1
  Se  Se171  1  0.24429526  0.42164720  0.44358427  1
  Se  Se172  1  0.24498735  0.41899805  0.94399505  1
  Se  Se173  1  0.25057250  0.75183037  0.44207325  1
  Se  Se174  1  0.23473904  0.76808359  0.94688063  1
  Se  Se175  1  0.57750811  0.06824728  0.43710504  1
  Se  Se176  1  0.58705300  0.08021471  0.94603640  1
  Se  Se177  1  0.57943446  0.42338141  0.44897054  1
  Se  Se178  1  0.58168545  0.41760360  0.95310731  1
  Se  Se179  1  0.58851829  0.73540500  0.43030164  1
  Se  Se180  1  0.58436190  0.74736746  0.93337950  1
  Se  Se181  1  0.92438695  0.08015329  0.42967486  1
  Se  Se182  1  0.92248853  0.07899391  0.95017732  1
  Se  Se183  1  0.91841659  0.42465626  0.44570999  1
  Se  Se184  1  0.92238316  0.41271505  0.93881334  1
  Se  Se185  1  0.91811735  0.75021663  0.44675145  1
  Se  Se186  1  0.91449567  0.74955658  0.95636539  1
  Se  Se187  1  0.24747701  0.25022838  0.30458973  1
  Se  Se188  1  0.25817431  0.25326228  0.79809342  1
  Se  Se189  1  0.27766418  0.60810459  0.30733290  1
  Se  Se190  1  0.24712488  0.58542875  0.80859111  1
  Se  Se191  1  0.24549368  0.91828490  0.30238149  1
  Se  Se192  1  0.24376743  0.91748476  0.81048763  1
  Se  Se193  1  0.57818997  0.25106574  0.31612894  1
  Se  Se194  1  0.57619681  0.24480137  0.81967123  1
  Se  Se195  1  0.57889955  0.57872090  0.30504172  1
  Se  Se196  1  0.57838771  0.57625916  0.80638284  1
  Se  Se197  1  0.59809097  0.91766416  0.29448499  1
  Se  Se198  1  0.58667641  0.91687444  0.79874471  1
  Se  Se199  1  0.91281336  0.25109946  0.30088537  1
  Se  Se200  1  0.91416174  0.24891852  0.80468920  1
  Se  Se201  1  0.92305926  0.58347757  0.30260161  1
  Se  Se202  1  0.91031870  0.57546540  0.80619048  1
  Se  Se203  1  0.91959774  0.91497048  0.30345623  1
  Se  Se204  1  0.91909987  0.90729017  0.81427948  1
  Se  Se205  1  0.07796425  0.08039046  0.30059005  1
  Se  Se206  1  0.09379087  0.09519677  0.80750098  1
  Se  Se207  1  0.07326535  0.40369189  0.30280901  1
  Se  Se208  1  0.08471361  0.41900998  0.80110885  1
  Se  Se209  1  0.08046531  0.74537186  0.30422672  1
  Se  Se210  1  0.09668275  0.74975663  0.81580005  1
  Se  Se211  1  0.42614933  0.09560146  0.29712561  1
  Se  Se212  1  0.42235303  0.08814392  0.81841653  1
  Se  Se213  1  0.41075260  0.41755964  0.30161796  1
  Se  Se214  1  0.41319235  0.41261947  0.80026271  1
  Se  Se215  1  0.44429716  0.77713980  0.30398681  1
  Se  Se216  1  0.41106685  0.74812184  0.80030225  1
  Se  Se217  1  0.74856154  0.07872184  0.30186126  1
  Se  Se218  1  0.75149211  0.07724086  0.80548357  1
  Se  Se219  1  0.74956879  0.42441152  0.30728356  1
  Se  Se220  1  0.75692347  0.42557341  0.80550415  1
  Se  Se221  1  0.75837426  0.74976837  0.31095954  1
  Se  Se222  1  0.75730614  0.75179718  0.80899681  1
  Se  Se223  1  0.25137990  0.08416418  0.20253488  1
  Se  Se224  1  0.23976975  0.08651985  0.68436239  1
  Se  Se225  1  0.27442895  0.39616696  0.19307021  1
  Se  Se226  1  0.25185734  0.41548205  0.69319949  1
  Se  Se227  1  0.24971863  0.75030510  0.19833768  1
  Se  Se228  1  0.25309217  0.74643630  0.69712032  1
  Se  Se229  1  0.59065496  0.09219957  0.20318919  1
  Se  Se230  1  0.58635554  0.07853171  0.70376224  1
  Se  Se231  1  0.57999739  0.42909854  0.18725304  1
  Se  Se232  1  0.58041647  0.42276170  0.68793336  1
  Se  Se233  1  0.57014967  0.75846298  0.18195139  1
  Se  Se234  1  0.57367828  0.75645781  0.68483276  1
  Se  Se235  1  0.91831996  0.08043925  0.19714355  1
  Se  Se236  1  0.91262634  0.09189936  0.68684574  1
  Se  Se237  1  0.91792279  0.41176223  0.19946028  1
  Se  Se238  1  0.92628764  0.41476615  0.69972266  1
  Se  Se239  1  0.91533841  0.74547996  0.19846087  1
  Se  Se240  1  0.91449906  0.75823427  0.69132363  1
  Se  Se241  1  0.08093166  0.24939302  0.19687448  1
  Se  Se242  1  0.08115120  0.25634172  0.69399354  1
  Se  Se243  1  0.08687209  0.58808921  0.20604848  1
  Se  Se244  1  0.09119659  0.57937216  0.68744891  1
  Se  Se245  1  0.07827392  0.91766623  0.20197577  1
  Se  Se246  1  0.08826096  0.90770952  0.69169724  1
  Se  Se247  1  0.43967403  0.23793392  0.20467108  1
  Se  Se248  1  0.42099255  0.24512587  0.69995819  1
  Se  Se249  1  0.41098736  0.58623118  0.19392063  1
  Se  Se250  1  0.41110949  0.58378271  0.69515990  1
  Se  Se251  1  0.40553591  0.91884994  0.20456406  1
  Se  Se252  1  0.42130517  0.91071511  0.68891002  1
  Se  Se253  1  0.76231660  0.24751665  0.18633675  1
  Se  Se254  1  0.75592102  0.24435449  0.68857620  1
  Se  Se255  1  0.75737345  0.57891796  0.19058627  1
  Se  Se256  1  0.76430323  0.57642770  0.69164043  1
  Se  Se257  1  0.75020489  0.91545208  0.19652240  1
  Se  Se258  1  0.74988410  0.92164853  0.69829706  1
