# generated using pymatgen
data_In86Cu29Se144
_symmetry_space_group_name_H-M   'P 1'
_cell_length_a   17.56988703
_cell_length_b   17.57007525
_cell_length_c   23.42764998
_cell_angle_alpha   89.97451939
_cell_angle_beta   90.03665170
_cell_angle_gamma   90.01493309
_symmetry_Int_Tables_number   1
_chemical_formula_structural   In86Cu29Se144
_chemical_formula_sum   'In86 Cu29 Se144'
_cell_volume   7232.21237855
_cell_formula_units_Z   1
loop_
 _symmetry_equiv_pos_site_id
 _symmetry_equiv_pos_as_xyz
  1  'x, y, z'
loop_
 _atom_site_type_symbol
 _atom_site_label
 _atom_site_symmetry_multiplicity
 _atom_site_fract_x
 _atom_site_fract_y
 _atom_site_fract_z
 _atom_site_occupancy
  In  In0  1  -0.00368258  0.16045065  0.12202664  1
  In  In1  1  -0.00794506  0.17210992  0.63716964  1
  In  In2  1  -0.01032509  0.49062059  0.12594701  1
  In  In3  1  -0.03629015  0.52827514  0.66280882  1
  In  In4  1  0.01164017  0.84644748  0.11379342  1
  In  In5  1  -0.01381499  0.84453854  0.63342736  1
  In  In6  1  0.33235681  0.16723318  0.12617548  1
  In  In7  1  0.33382132  0.17506279  0.62200506  1
  In  In8  1  0.33743223  0.49340480  0.13391629  1
  In  In9  1  0.33631514  0.49292936  0.61851878  1
  In  In10  1  0.33633480  0.83519126  0.12675837  1
  In  In11  1  0.34379691  0.82296244  0.62351728  1
  In  In12  1  0.65387006  0.15500093  0.12116386  1
  In  In13  1  0.67966186  0.16262001  0.62942475  1
  In  In14  1  0.67015579  0.50985097  0.12801189  1
  In  In15  1  0.66802927  0.50575654  0.62613472  1
  In  In16  1  0.66961791  0.83360629  0.11999879  1
  In  In17  1  0.65737042  0.81948037  0.61888255  1
  In  In18  1  0.17085056  0.00839160  0.36410382  1
  In  In19  1  0.16287201  0.00654280  0.88813694  1
  In  In20  1  0.15475269  0.32539149  0.36730370  1
  In  In21  1  0.15757217  0.32638679  0.87940303  1
  In  In22  1  0.17152661  0.65321728  0.37399291  1
  In  In23  1  0.16046161  0.67584347  0.87679133  1
  In  In24  1  0.49535514  -0.00962197  0.35809994  1
  In  In25  1  0.50281589  -0.00204531  0.88772994  1
  In  In26  1  0.50557487  0.34890234  0.37356223  1
  In  In27  1  0.50580774  0.32694869  0.88014791  1
  In  In28  1  0.50672664  0.66869374  0.37114391  1
  In  In29  1  0.50661102  0.67485033  0.87408086  1
  In  In30  1  0.82355251  -0.00984754  0.35580893  1
  In  In31  1  0.84152524  -0.01275761  0.88416154  1
  In  In32  1  0.83921007  0.33375748  0.37627088  1
  In  In33  1  0.83006376  0.33022249  0.87137774  1
  In  In34  1  0.82471797  0.67826076  0.38507230  1
  In  In35  1  0.83653516  0.67224289  0.86964583  1
  In  In36  1  -0.01163495  0.17100524  0.35917953  1
  In  In37  1  -0.00051005  0.16075753  0.88222917  1
  In  In38  1  -0.00222369  0.48778782  0.37904114  1
  In  In39  1  -0.00625128  0.49069935  0.85255205  1
  In  In40  1  -0.01219127  0.82856184  0.37701545  1
  In  In41  1  -0.00456479  0.83815040  0.87480075  1
  In  In42  1  0.33771034  0.16369930  0.34940811  1
  In  In43  1  0.34136333  0.16471651  0.89834246  1
  In  In44  1  0.34231069  0.51409218  0.36150394  1
  In  In45  1  0.33316242  0.49440079  0.87596121  1
  In  In46  1  0.34855235  0.84531707  0.36340301  1
  In  In47  1  0.33060172  0.83182637  0.88822703  1
  In  In48  1  0.67693081  0.15534785  0.36097937  1
  In  In49  1  0.66127016  0.17734812  0.88733027  1
  In  In50  1  0.65541249  0.50895784  0.38378798  1
  In  In51  1  0.68165931  0.50881983  0.85437799  1
  In  In52  1  0.67195807  0.82814305  0.36989300  1
  In  In53  1  0.66137658  0.82849041  0.88436639  1
  In  In54  1  0.16493652  0.00097771  0.12344369  1
  In  In55  1  0.15781249  -0.01348701  0.62388567  1
  In  In56  1  0.18462081  0.30902204  0.13051833  1
  In  In57  1  0.15816373  0.33202856  0.62880806  1
  In  In58  1  0.16780244  0.68119673  0.12247211  1
  In  In59  1  0.15946298  0.65166385  0.63034732  1
  In  In60  1  0.50634948  0.00158825  0.13369622  1
  In  In61  1  0.51573324  -0.01036590  0.62430623  1
  In  In62  1  0.48821919  0.31584670  0.12042573  1
  In  In63  1  0.49456028  0.35007196  0.62061930  1
  In  In64  1  0.49837484  0.66956993  0.12745240  1
  In  In65  1  0.51568949  0.67651718  0.61775056  1
  In  In66  1  0.83334325  0.00159952  0.12404354  1
  In  In67  1  0.84405957  0.00316383  0.62453370  1
  In  In68  1  0.84789678  0.33188028  0.12918416  1
  In  In69  1  0.81268231  0.35882895  0.65485710  1
  In  In70  1  0.81588873  0.67846963  0.12675217  1
  In  In71  1  0.82282249  0.66972078  0.62860939  1
  In  In72  1  0.16397808  0.16637825  0.48979875  1
  In  In73  1  0.50681913  0.16902684  0.48679137  1
  In  In74  1  0.83495111  0.50484889  -0.01152381  1
  In  In75  1  0.00355528  0.66774552  0.25203542  1
  In  In76  1  0.50526074  0.49793327  0.00270412  1
  In  In77  1  0.66255198  0.33230655  0.24727502  1
  In  In78  1  0.67333260  -0.00692332  0.76419754  1
  In  In79  1  0.32957437  0.00117813  0.74986464  1
  In  In80  1  0.32703238  0.66617249  0.75427776  1
  In  In81  1  0.32804234  0.33389386  0.74899340  1
  In  In82  1  0.16235955  0.49905138  -0.00956878  1
  In  In83  1  0.16228682  0.49618332  0.50317811  1
  In  In84  1  0.17263009  0.82917876  0.50068071  1
  In  In85  1  0.83447624  0.16515222  0.49239289  1
  Cu  Cu86  1  0.33608959  -0.00468957  0.01312854  1
  Cu  Cu87  1  0.15477536  0.83590538  0.75346138  1
  Cu  Cu88  1  -0.00148047  -0.00358682  0.49845216  1
  Cu  Cu89  1  0.15877433  0.16696826  0.24092480  1
  Cu  Cu90  1  0.16477435  0.49485377  0.24886207  1
  Cu  Cu91  1  0.50777292  0.16733479  0.76236999  1
  Cu  Cu92  1  0.83913065  0.16821194  0.75868219  1
  Cu  Cu93  1  -0.00932351  0.67081595  -0.00359025  1
  Cu  Cu94  1  0.50921380  0.82876892  0.24466762  1
  Cu  Cu95  1  0.66829764  0.33702085  0.50759370  1
  Cu  Cu96  1  0.50391577  0.50621874  0.74406356  1
  Cu  Cu97  1  0.82708787  0.83455732  0.75232044  1
  Cu  Cu98  1  0.66392415  0.00164295  0.00380410  1
  Cu  Cu99  1  0.50049938  0.50221982  0.25041653  1
  Cu  Cu100  1  0.67152173  0.66155477  0.49994916  1
  Cu  Cu101  1  0.34736253  0.66883436  0.49310798  1
  Cu  Cu102  1  -0.00911448  0.66673670  0.51290820  1
  Cu  Cu103  1  0.00778524  0.32758073  0.00211020  1
  Cu  Cu104  1  0.83685164  0.83600612  0.24643841  1
  Cu  Cu105  1  0.17168906  0.83706404  0.24533058  1
  Cu  Cu106  1  0.35362475  -0.00274188  0.49235184  1
  Cu  Cu107  1  0.16262054  0.16201982  0.76057149  1
  Cu  Cu108  1  0.67266996  0.34043301  0.00061458  1
  Cu  Cu109  1  -0.00287947  -0.00379390  0.00279757  1
  Cu  Cu110  1  0.83210107  0.50333495  0.25268041  1
  Cu  Cu111  1  -0.01582840  0.34041081  0.50951304  1
  Cu  Cu112  1  0.66939565  -0.01742307  0.49210777  1
  Cu  Cu113  1  0.33321342  0.34544036  0.48798328  1
  Cu  Cu114  1  0.33178875  0.66522986  0.00586001  1
  Se  Se115  1  0.08248990  0.08156856  0.05235920  1
  Se  Se116  1  0.07552403  0.08113039  0.55868536  1
  Se  Se117  1  0.08309561  0.41222671  0.06091054  1
  Se  Se118  1  0.06902685  0.41851327  0.56666450  1
  Se  Se119  1  0.08163528  0.74785336  0.04825755  1
  Se  Se120  1  0.07886345  0.74774060  0.56577325  1
  Se  Se121  1  0.42043441  0.08093830  0.06288257  1
  Se  Se122  1  0.42102280  0.08233721  0.55809126  1
  Se  Se123  1  0.40623787  0.41091320  0.05434265  1
  Se  Se124  1  0.41846071  0.42382967  0.54286012  1
  Se  Se125  1  0.41640497  0.74877673  0.05648289  1
  Se  Se126  1  0.42546556  0.75390620  0.54880826  1
  Se  Se127  1  0.74985723  0.08562522  0.05435537  1
  Se  Se128  1  0.74225483  0.07044298  0.55202315  1
  Se  Se129  1  0.75321101  0.41917067  0.06061904  1
  Se  Se130  1  0.75353315  0.41374745  0.56260579  1
  Se  Se131  1  0.75263666  0.75486723  0.04788160  1
  Se  Se132  1  0.75181564  0.75043529  0.55102974  1
  Se  Se133  1  0.25194825  0.24124316  0.04914525  1
  Se  Se134  1  0.25427425  0.26435987  0.55031587  1
  Se  Se135  1  0.25168634  0.58004434  0.06055122  1
  Se  Se136  1  0.25945629  0.59514871  0.55356175  1
  Se  Se137  1  0.24609603  0.91047581  0.05809357  1
  Se  Se138  1  0.26622695  0.92640964  0.55626914  1
  Se  Se139  1  0.58953887  0.25662661  0.05364209  1
  Se  Se140  1  0.58823902  0.24983560  0.56288792  1
  Se  Se141  1  0.59409426  0.59471322  0.05501388  1
  Se  Se142  1  0.58435447  0.57967790  0.55190745  1
  Se  Se143  1  0.57990724  0.91947002  0.05784557  1
  Se  Se144  1  0.58150159  0.90840103  0.54784477  1
  Se  Se145  1  0.91686483  0.25050684  0.05319630  1
  Se  Se146  1  0.90738063  0.25177929  0.56533294  1
  Se  Se147  1  0.91773022  0.59025501  0.06036512  1
  Se  Se148  1  0.91299528  0.58031382  0.56669682  1
  Se  Se149  1  0.90857916  0.91270417  0.05217222  1
  Se  Se150  1  0.91402393  0.91562399  0.55179526  1
  Se  Se151  1  0.06131325  0.25899770  0.44433492  1
  Se  Se152  1  0.08846963  0.23953581  0.95154937  1
  Se  Se153  1  0.07021339  0.59280309  0.44647949  1
  Se  Se154  1  0.06257676  0.58475966  0.93500106  1
  Se  Se155  1  0.08632292  0.92259444  0.43875356  1
  Se  Se156  1  0.08062203  0.91215593  0.94791906  1
  Se  Se157  1  0.40548952  0.25386652  0.43177737  1
  Se  Se158  1  0.42886847  0.25388725  0.95447994  1
  Se  Se159  1  0.42339739  0.58099698  0.43901207  1
  Se  Se160  1  0.40990604  0.58827754  0.94248824  1
  Se  Se161  1  0.43273645  0.91155374  0.44047807  1
  Se  Se162  1  0.41599173  0.91528700  0.95301721  1
  Se  Se163  1  0.73428814  0.25542555  0.43896968  1
  Se  Se164  1  0.75750544  0.25507111  0.95004773  1
  Se  Se165  1  0.75581191  0.57716186  0.44793201  1
  Se  Se166  1  0.73760431  0.59433411  0.93802861  1
  Se  Se167  1  0.76028303  0.91153468  0.43705694  1
  Se  Se168  1  0.74317099  0.91811366  0.94808683  1
  Se  Se169  1  0.26661062  0.07957844  0.43708357  1
  Se  Se170  1  0.25302832  0.07818888  0.95774142  1
  Se  Se171  1  0.24647747  0.41916491  0.42902533  1
  Se  Se172  1  0.25960050  0.40199464  0.94427552  1
  Se  Se173  1  0.26148634  0.74558300  0.43478178  1
  Se  Se174  1  0.24481150  0.74503343  0.95142386  1
  Se  Se175  1  0.59474951  0.07043494  0.43349460  1
  Se  Se176  1  0.58011529  0.08894891  0.95274283  1
  Se  Se177  1  0.58201820  0.41669665  0.45282403  1
  Se  Se178  1  0.60212849  0.42197813  0.93606697  1
  Se  Se179  1  0.59244086  0.74551395  0.44184569  1
  Se  Se180  1  0.56455172  0.76002834  0.95106690  1
  Se  Se181  1  0.92277856  0.07410839  0.43282088  1
  Se  Se182  1  0.91313709  0.08177823  0.95124951  1
  Se  Se183  1  0.90616954  0.42206518  0.45074061  1
  Se  Se184  1  0.93175468  0.40999085  0.93922582  1
  Se  Se185  1  0.91613617  0.75198759  0.45428440  1
  Se  Se186  1  0.90961089  0.75515075  0.94341542  1
  Se  Se187  1  0.24148246  0.25104390  0.29706534  1
  Se  Se188  1  0.25557608  0.23505333  0.81534882  1
  Se  Se189  1  0.24723473  0.58596617  0.29472512  1
  Se  Se190  1  0.23837448  0.57370057  0.81299922  1
  Se  Se191  1  0.25425814  0.92182410  0.29966216  1
  Se  Se192  1  0.24275185  0.91102333  0.81265689  1
  Se  Se193  1  0.57377960  0.24374158  0.30975987  1
  Se  Se194  1  0.59201952  0.25621681  0.80727263  1
  Se  Se195  1  0.58796108  0.58177221  0.30210930  1
  Se  Se196  1  0.58012988  0.59118035  0.80111010  1
  Se  Se197  1  0.59313619  0.91211043  0.29878785  1
  Se  Se198  1  0.56880489  0.90943374  0.81152119  1
  Se  Se199  1  0.90334634  0.25616449  0.29733146  1
  Se  Se200  1  0.92533020  0.24887321  0.81103896  1
  Se  Se201  1  0.91318868  0.58237737  0.31481022  1
  Se  Se202  1  0.89671222  0.57389460  0.79959289  1
  Se  Se203  1  0.92660186  0.91304165  0.29978985  1
  Se  Se204  1  0.91303392  0.91863895  0.80219100  1
  Se  Se205  1  0.07871192  0.08479065  0.29965584  1
  Se  Se206  1  0.08146710  0.07589226  0.81132279  1
  Se  Se207  1  0.07631322  0.41693121  0.30210286  1
  Se  Se208  1  0.09977038  0.41362315  0.80407884  1
  Se  Se209  1  0.09604824  0.75875631  0.31240131  1
  Se  Se210  1  0.07469833  0.74905158  0.80560851  1
  Se  Se211  1  0.42395302  0.07963914  0.28933975  1
  Se  Se212  1  0.41936807  0.08873179  0.81446013  1
  Se  Se213  1  0.41681340  0.41510256  0.30035316  1
  Se  Se214  1  0.42726123  0.42271503  0.80496002  1
  Se  Se215  1  0.42297621  0.74876961  0.30042469  1
  Se  Se216  1  0.41395212  0.76155091  0.80867748  1
  Se  Se217  1  0.76833764  0.09424224  0.29009044  1
  Se  Se218  1  0.75652579  0.09096781  0.82097959  1
  Se  Se219  1  0.74714536  0.42416171  0.31164681  1
  Se  Se220  1  0.75800841  0.41184097  0.79697735  1
  Se  Se221  1  0.75925897  0.74723697  0.30047803  1
  Se  Se222  1  0.74352022  0.75663107  0.80867900  1
  Se  Se223  1  0.24650460  0.08306532  0.19367506  1
  Se  Se224  1  0.23868773  0.09250171  0.68833083  1
  Se  Se225  1  0.24841075  0.41069303  0.19666617  1
  Se  Se226  1  0.24137691  0.43003239  0.69144916  1
  Se  Se227  1  0.25311014  0.74894918  0.19618945  1
  Se  Se228  1  0.23803680  0.76040466  0.69140959  1
  Se  Se229  1  0.58524839  0.08687734  0.20298259  1
  Se  Se230  1  0.58187069  0.08520128  0.69879427  1
  Se  Se231  1  0.57232554  0.42219542  0.18419390  1
  Se  Se232  1  0.58220072  0.41682265  0.69247667  1
  Se  Se233  1  0.59266712  0.74553512  0.19186284  1
  Se  Se234  1  0.57811038  0.75436743  0.69762838  1
  Se  Se235  1  0.92832197  0.06916169  0.19258324  1
  Se  Se236  1  0.91424692  0.08079902  0.70243915  1
  Se  Se237  1  0.91640045  0.41747699  0.20428724  1
  Se  Se238  1  0.94596804  0.38814652  0.69270664  1
  Se  Se239  1  0.92084654  0.75659260  0.18677699  1
  Se  Se240  1  0.91020330  0.75212050  0.69718806  1
  Se  Se241  1  0.07415419  0.25304392  0.19052467  1
  Se  Se242  1  0.08748623  0.24651741  0.70139628  1
  Se  Se243  1  0.08785986  0.57717694  0.18659483  1
  Se  Se244  1  0.08427478  0.58599588  0.70862911  1
  Se  Se245  1  0.08323381  0.91647812  0.19467124  1
  Se  Se246  1  0.07518603  0.92388734  0.70127358  1
  Se  Se247  1  0.40980610  0.25184348  0.19835207  1
  Se  Se248  1  0.42825380  0.24290028  0.69466713  1
  Se  Se249  1  0.41628573  0.58557176  0.19627126  1
  Se  Se250  1  0.41659903  0.58310829  0.68704757  1
  Se  Se251  1  0.42053289  0.91294116  0.19760959  1
  Se  Se252  1  0.42397744  0.91165436  0.69355434  1
  Se  Se253  1  0.74892859  0.24739855  0.18388558  1
  Se  Se254  1  0.74881730  0.24288928  0.70480632  1
  Se  Se255  1  0.75093687  0.58739204  0.19997161  1
  Se  Se256  1  0.75313237  0.57777943  0.69811290  1
  Se  Se257  1  0.75049416  0.91547833  0.19218462  1
  Se  Se258  1  0.75060879  0.91439098  0.68680890  1
