# generated using pymatgen
data_In86Cu29Se144
_symmetry_space_group_name_H-M   'P 1'
_cell_length_a   17.57906692
_cell_length_b   17.57969207
_cell_length_c   23.43071302
_cell_angle_alpha   89.99931524
_cell_angle_beta   89.98721492
_cell_angle_gamma   89.98135401
_symmetry_Int_Tables_number   1
_chemical_formula_structural   In86Cu29Se144
_chemical_formula_sum   'In86 Cu29 Se144'
_cell_volume   7240.90007048
_cell_formula_units_Z   1
loop_
 _symmetry_equiv_pos_site_id
 _symmetry_equiv_pos_as_xyz
  1  'x, y, z'
loop_
 _atom_site_type_symbol
 _atom_site_label
 _atom_site_symmetry_multiplicity
 _atom_site_fract_x
 _atom_site_fract_y
 _atom_site_fract_z
 _atom_site_occupancy
  In  In0  1  0.01690042  0.16325220  0.14383881  1
  In  In1  1  -0.00532682  0.16352068  0.61722958  1
  In  In2  1  -0.01618203  0.49971371  0.12450020  1
  In  In3  1  -0.00609610  0.51214758  0.62493355  1
  In  In4  1  0.00231122  0.84957974  0.13875128  1
  In  In5  1  -0.00579798  0.82769413  0.61108665  1
  In  In6  1  0.33172759  0.15816676  0.12091614  1
  In  In7  1  0.31964730  0.14322105  0.60483379  1
  In  In8  1  0.34734159  0.49959444  0.12038903  1
  In  In9  1  0.34544344  0.50905801  0.62619012  1
  In  In10  1  0.31482213  0.84471463  0.14771517  1
  In  In11  1  0.33015942  0.83821506  0.61518618  1
  In  In12  1  0.65687012  0.16258614  0.12823310  1
  In  In13  1  0.65903109  0.16619943  0.61505563  1
  In  In14  1  0.67162974  0.50085665  0.11550000  1
  In  In15  1  0.67232628  0.49401610  0.63012432  1
  In  In16  1  0.66628758  0.84098465  0.14413813  1
  In  In17  1  0.66298471  0.82535810  0.62081272  1
  In  In18  1  0.16654750  -0.00472452  0.37394510  1
  In  In19  1  0.18001330  -0.00265657  0.87724464  1
  In  In20  1  0.14598100  0.32272795  0.36773766  1
  In  In21  1  0.15868369  0.32030443  0.87949290  1
  In  In22  1  0.18373091  0.67561696  0.36915590  1
  In  In23  1  0.17368710  0.68480907  0.85881316  1
  In  In24  1  0.49822658  -0.00846276  0.37870486  1
  In  In25  1  0.49440916  0.01603559  0.87644430  1
  In  In26  1  0.49759381  0.32361585  0.37996358  1
  In  In27  1  0.51089111  0.32514310  0.87658641  1
  In  In28  1  0.51678728  0.67422931  0.37094736  1
  In  In29  1  0.49130627  0.66390497  0.87036882  1
  In  In30  1  0.83711229  -0.00370303  0.37001416  1
  In  In31  1  0.83099796  -0.00487375  0.87813262  1
  In  In32  1  0.84083820  0.32043024  0.39063905  1
  In  In33  1  0.83333269  0.34916691  0.87603300  1
  In  In34  1  0.81302486  0.68400526  0.38517206  1
  In  In35  1  0.82433280  0.65637353  0.86391332  1
  In  In36  1  0.00124457  0.15804267  0.37311390  1
  In  In37  1  0.00084818  0.17835982  0.87980952  1
  In  In38  1  -0.00379034  0.48999452  0.37263007  1
  In  In39  1  -0.00956174  0.50473861  0.87731290  1
  In  In40  1  -0.01432059  0.84525176  0.37481422  1
  In  In41  1  0.01702451  0.83216639  0.86974020  1
  In  In42  1  0.33645059  0.14083586  0.38656629  1
  In  In43  1  0.34113209  0.16216941  0.87683237  1
  In  In44  1  0.33009462  0.50502455  0.37551520  1
  In  In45  1  0.33580663  0.51835201  0.87825268  1
  In  In46  1  0.33587491  0.84173339  0.38064732  1
  In  In47  1  0.33360697  0.84517186  0.86359090  1
  In  In48  1  0.68283250  0.15608931  0.38666670  1
  In  In49  1  0.64285402  0.16316509  0.87146882  1
  In  In50  1  0.66637287  0.51351016  0.37574959  1
  In  In51  1  0.66795576  0.50103425  0.87379388  1
  In  In52  1  0.67026237  0.83143371  0.37313076  1
  In  In53  1  0.67715685  0.82983605  0.87102948  1
  In  In54  1  0.15742530  0.01955337  0.15271540  1
  In  In55  1  0.17030870  -0.00045296  0.61274261  1
  In  In56  1  0.17330948  0.31167170  0.13274930  1
  In  In57  1  0.17407487  0.32084847  0.62259971  1
  In  In58  1  0.16747441  0.68453370  0.12945603  1
  In  In59  1  0.15648224  0.68084079  0.63040495  1
  In  In60  1  0.49396671  0.00095041  0.13335949  1
  In  In61  1  0.48251172  -0.01782221  0.60328520  1
  In  In62  1  0.50062408  0.33226705  0.11580802  1
  In  In63  1  0.51126109  0.32782927  0.62453960  1
  In  In64  1  0.50456424  0.66609479  0.12661457  1
  In  In65  1  0.48886435  0.68226885  0.63276063  1
  In  In66  1  0.82796657  0.00759276  0.14387975  1
  In  In67  1  0.82986866  -0.00165844  0.61181313  1
  In  In68  1  0.83071867  0.34672585  0.12853753  1
  In  In69  1  0.80688408  0.32062137  0.60687215  1
  In  In70  1  0.83268585  0.65338581  0.12053989  1
  In  In71  1  0.83381500  0.66311098  0.61948346  1
  In  In72  1  0.33185057  0.32582094  0.25747647  1
  In  In73  1  0.16768447  0.83937407  0.00713242  1
  In  In74  1  0.00775440  -0.00415792  0.74020803  1
  In  In75  1  -0.00348919  0.66562318  0.25131062  1
  In  In76  1  -0.00342692  0.34408979  0.75307805  1
  In  In77  1  0.67035440  0.33156053  0.25091073  1
  In  In78  1  0.50453417  0.49675125  0.50722828  1
  In  In79  1  0.16641971  0.49780711  -0.00465802  1
  In  In80  1  0.65915123  -0.00216426  0.74791022  1
  In  In81  1  0.83187207  0.83147132  0.00025346  1
  In  In82  1  0.50126215  0.83084225  0.01033725  1
  In  In83  1  0.34157724  0.33723335  0.74702361  1
  In  In84  1  0.82955185  0.17489685  0.01182832  1
  In  In85  1  0.16215646  0.49908847  0.50009369  1
  Cu  Cu86  1  0.34046788  0.32872504  0.00045124  1
  Cu  Cu87  1  0.33667471  0.67180304  0.00143016  1
  Cu  Cu88  1  0.49544323  0.83276792  0.25743025  1
  Cu  Cu89  1  0.84277454  0.16643927  0.26095936  1
  Cu  Cu90  1  -0.00579232  0.66529595  -0.00349266  1
  Cu  Cu91  1  0.82785297  0.50215512  0.25017477  1
  Cu  Cu92  1  0.66838030  0.33385838  -0.00324578  1
  Cu  Cu93  1  0.33698623  0.00810963  0.00389437  1
  Cu  Cu94  1  0.50738708  0.50605243  0.75080854  1
  Cu  Cu95  1  0.17104791  0.51029237  0.74975171  1
  Cu  Cu96  1  0.00844146  0.32897471  0.00524155  1
  Cu  Cu97  1  0.00029873  0.01086791  0.01361816  1
  Cu  Cu98  1  0.84043417  0.82452879  0.74355423  1
  Cu  Cu99  1  0.83241385  0.50103537  0.74653014  1
  Cu  Cu100  1  0.17096958  0.50256754  0.25054947  1
  Cu  Cu101  1  -0.00302202  0.00078105  0.49322814  1
  Cu  Cu102  1  0.50083461  0.15910115  0.25347895  1
  Cu  Cu103  1  0.00352081  0.66906420  0.49690361  1
  Cu  Cu104  1  0.16925072  0.15961107  0.74498058  1
  Cu  Cu105  1  0.48947384  0.15963085  0.74530585  1
  Cu  Cu106  1  0.33709966  0.67253732  0.49993602  1
  Cu  Cu107  1  0.82111799  0.17193845  0.74232799  1
  Cu  Cu108  1  0.66628075  0.67098863  0.50184710  1
  Cu  Cu109  1  0.32468002  0.32341079  0.49578087  1
  Cu  Cu110  1  0.49653486  0.83680966  0.74135023  1
  Cu  Cu111  1  0.66703666  0.66120524  -0.00100902  1
  Cu  Cu112  1  0.50024513  0.50829085  0.24741426  1
  Cu  Cu113  1  -0.00338154  0.32864877  0.49682275  1
  Cu  Cu114  1  0.66946248  0.00005363  0.49275765  1
  Se  Se115  1  0.09012919  0.08545131  0.06630565  1
  Se  Se116  1  0.07874308  0.08238758  0.55071994  1
  Se  Se117  1  0.08534902  0.41298694  0.06552226  1
  Se  Se118  1  0.07487976  0.40644500  0.56236837  1
  Se  Se119  1  0.06577454  0.74891802  0.05925533  1
  Se  Se120  1  0.09083138  0.75167432  0.54661220  1
  Se  Se121  1  0.42755348  0.08538450  0.05568415  1
  Se  Se122  1  0.44441532  0.10817779  0.55469165  1
  Se  Se123  1  0.42217213  0.41900031  0.04709551  1
  Se  Se124  1  0.40300077  0.40384480  0.55770439  1
  Se  Se125  1  0.40058249  0.75410899  0.06968469  1
  Se  Se126  1  0.42338229  0.75573893  0.55070302  1
  Se  Se127  1  0.74490878  0.07286945  0.06198548  1
  Se  Se128  1  0.74865911  0.08641556  0.54852272  1
  Se  Se129  1  0.75519666  0.41515190  0.04877364  1
  Se  Se130  1  0.75345331  0.43383800  0.55024474  1
  Se  Se131  1  0.73838765  0.74675166  0.06177503  1
  Se  Se132  1  0.75505261  0.75328742  0.55236907  1
  Se  Se133  1  0.25454661  0.24904305  0.05347400  1
  Se  Se134  1  0.23797006  0.23972040  0.54533354  1
  Se  Se135  1  0.24934980  0.59297712  0.05848235  1
  Se  Se136  1  0.25583793  0.58811582  0.55737719  1
  Se  Se137  1  0.25463988  0.93151460  0.06556105  1
  Se  Se138  1  0.26654190  0.93493328  0.54226843  1
  Se  Se139  1  0.59052216  0.24930725  0.05344325  1
  Se  Se140  1  0.58484439  0.25767155  0.54693696  1
  Se  Se141  1  0.57957020  0.58285455  0.05323210  1
  Se  Se142  1  0.58485794  0.59511263  0.56625835  1
  Se  Se143  1  0.59224184  0.92170070  0.06582618  1
  Se  Se144  1  0.59224065  0.91506738  0.55024920  1
  Se  Se145  1  0.92841948  0.25522235  0.07053082  1
  Se  Se146  1  0.91119675  0.24665172  0.55057700  1
  Se  Se147  1  0.91320164  0.57768902  0.04620939  1
  Se  Se148  1  0.91895798  0.58403246  0.54714249  1
  Se  Se149  1  0.91649549  0.92613194  0.06438707  1
  Se  Se150  1  0.91334330  0.91550401  0.54575171  1
  Se  Se151  1  0.08019788  0.24388106  0.44623898  1
  Se  Se152  1  0.08857090  0.24004746  0.95595042  1
  Se  Se153  1  0.08230081  0.59022246  0.43351607  1
  Se  Se154  1  0.08536661  0.59787887  0.93578610  1
  Se  Se155  1  0.07961275  0.91361516  0.44349842  1
  Se  Se156  1  0.07373628  0.92982425  0.94702822  1
  Se  Se157  1  0.41269996  0.24282959  0.44575617  1
  Se  Se158  1  0.42275722  0.24638183  0.94397751  1
  Se  Se159  1  0.41741492  0.58754822  0.44329299  1
  Se  Se160  1  0.42176407  0.58810679  0.95149372  1
  Se  Se161  1  0.41961669  0.91551607  0.45385472  1
  Se  Se162  1  0.41083231  0.91910798  0.94547623  1
  Se  Se163  1  0.73830945  0.25876332  0.45306957  1
  Se  Se164  1  0.74636836  0.25090701  0.93573156  1
  Se  Se165  1  0.74849213  0.58316164  0.45181315  1
  Se  Se166  1  0.75366633  0.58283953  0.94384379  1
  Se  Se167  1  0.75366509  0.91552891  0.44130799  1
  Se  Se168  1  0.73570646  0.92594934  0.94728437  1
  Se  Se169  1  0.25221423  0.05954779  0.45467250  1
  Se  Se170  1  0.25211264  0.08601993  0.94663058  1
  Se  Se171  1  0.24795161  0.40653682  0.43638398  1
  Se  Se172  1  0.26062114  0.40632997  0.93678106  1
  Se  Se173  1  0.25033066  0.75304991  0.44801982  1
  Se  Se174  1  0.25698335  0.75244337  0.94160337  1
  Se  Se175  1  0.58076394  0.08244322  0.44442022  1
  Se  Se176  1  0.58344128  0.07966888  0.94846394  1
  Se  Se177  1  0.58933114  0.41286113  0.44002745  1
  Se  Se178  1  0.58515998  0.41741301  0.94304349  1
  Se  Se179  1  0.58467784  0.75477365  0.44771299  1
  Se  Se180  1  0.58892813  0.74664235  0.94125340  1
  Se  Se181  1  0.91050942  0.08391536  0.44232267  1
  Se  Se182  1  0.91914673  0.08129762  0.94670867  1
  Se  Se183  1  0.91716813  0.42121288  0.45018168  1
  Se  Se184  1  0.92724940  0.41057185  0.94860794  1
  Se  Se185  1  0.91669444  0.75166146  0.44527931  1
  Se  Se186  1  0.92053948  0.74828564  0.93352275  1
  Se  Se187  1  0.24823571  0.23437005  0.31776781  1
  Se  Se188  1  0.24517368  0.24597310  0.80420070  1
  Se  Se189  1  0.25669953  0.58384812  0.30042889  1
  Se  Se190  1  0.25815895  0.58975127  0.80173351  1
  Se  Se191  1  0.25259091  0.91350915  0.30663818  1
  Se  Se192  1  0.22967606  0.90640110  0.80135913  1
  Se  Se193  1  0.58257140  0.24007555  0.31106724  1
  Se  Se194  1  0.57501245  0.24542815  0.79528506  1
  Se  Se195  1  0.58912004  0.58608823  0.29911323  1
  Se  Se196  1  0.58759087  0.58940447  0.80652401  1
  Se  Se197  1  0.58358559  0.91585398  0.30681824  1
  Se  Se198  1  0.57136238  0.90963104  0.81245899  1
  Se  Se199  1  0.92058643  0.25641823  0.31112735  1
  Se  Se200  1  0.90471085  0.24431164  0.80644911  1
  Se  Se201  1  0.90446199  0.58200001  0.31376813  1
  Se  Se202  1  0.92041581  0.58182422  0.79916097  1
  Se  Se203  1  0.90454607  0.90812758  0.29545199  1
  Se  Se204  1  0.91214970  0.91153994  0.80505288  1
  Se  Se205  1  0.07955154  0.07312841  0.30483739  1
  Se  Se206  1  0.08439962  0.09002567  0.80984037  1
  Se  Se207  1  0.08335288  0.42080002  0.29948122  1
  Se  Se208  1  0.09630618  0.42794353  0.81265030  1
  Se  Se209  1  0.08209246  0.75572981  0.31178804  1
  Se  Se210  1  0.07744519  0.74956332  0.79287739  1
  Se  Se211  1  0.41742978  0.07668020  0.30712707  1
  Se  Se212  1  0.40708959  0.07746606  0.79980038  1
  Se  Se213  1  0.42747655  0.42410012  0.30946232  1
  Se  Se214  1  0.42445604  0.42670249  0.81244461  1
  Se  Se215  1  0.41557964  0.74871783  0.31296919  1
  Se  Se216  1  0.41754824  0.75544870  0.80257880  1
  Se  Se217  1  0.75011912  0.08448208  0.30481732  1
  Se  Se218  1  0.75251091  0.08818774  0.80898404  1
  Se  Se219  1  0.75643258  0.41854882  0.31483053  1
  Se  Se220  1  0.74966605  0.41778842  0.80178509  1
  Se  Se221  1  0.73938546  0.73984835  0.30161766  1
  Se  Se222  1  0.75006475  0.74911258  0.79726312  1
  Se  Se223  1  0.26258818  0.09394502  0.20375061  1
  Se  Se224  1  0.24843775  0.07778647  0.68902638  1
  Se  Se225  1  0.25199637  0.42100496  0.19003027  1
  Se  Se226  1  0.24304887  0.42526975  0.68843998  1
  Se  Se227  1  0.25332289  0.73791469  0.20730163  1
  Se  Se228  1  0.26943490  0.73864583  0.68390966  1
  Se  Se229  1  0.58698240  0.07717054  0.20106737  1
  Se  Se230  1  0.57086282  0.08038198  0.68403441  1
  Se  Se231  1  0.57798401  0.42051724  0.19028056  1
  Se  Se232  1  0.58077591  0.41676144  0.69613866  1
  Se  Se233  1  0.57718801  0.75087629  0.19988532  1
  Se  Se234  1  0.58754878  0.75201418  0.69876940  1
  Se  Se235  1  0.92479120  0.08161119  0.20573145  1
  Se  Se236  1  0.90427912  0.08689990  0.69080324  1
  Se  Se237  1  0.91584469  0.41812300  0.20186989  1
  Se  Se238  1  0.90517151  0.41595975  0.68384777  1
  Se  Se239  1  0.90772059  0.75186628  0.18711750  1
  Se  Se240  1  0.92218180  0.74575299  0.68682020  1
  Se  Se241  1  0.08419529  0.26048109  0.20948853  1
  Se  Se242  1  0.08212024  0.24369398  0.69414827  1
  Se  Se243  1  0.08773869  0.57695813  0.18696678  1
  Se  Se244  1  0.08243719  0.58408208  0.69457886  1
  Se  Se245  1  0.11554676  0.89326012  0.19811186  1
  Se  Se246  1  0.09178392  0.90466379  0.68035470  1
  Se  Se247  1  0.42784191  0.24700371  0.19310486  1
  Se  Se248  1  0.41214696  0.23995216  0.68195733  1
  Se  Se249  1  0.41409290  0.58658841  0.19364924  1
  Se  Se250  1  0.41822025  0.58705956  0.70135175  1
  Se  Se251  1  0.41509678  0.92043841  0.20495714  1
  Se  Se252  1  0.41311469  0.92000434  0.68873390  1
  Se  Se253  1  0.76249277  0.23909393  0.19249109  1
  Se  Se254  1  0.73679015  0.25013827  0.68897905  1
  Se  Se255  1  0.74598109  0.57970332  0.19174265  1
  Se  Se256  1  0.75057943  0.58724123  0.69379744  1
  Se  Se257  1  0.76179788  0.91003714  0.20890816  1
  Se  Se258  1  0.75842979  0.91259427  0.69019592  1
