# generated using pymatgen
data_In86Cu29Se144
_symmetry_space_group_name_H-M   'P 1'
_cell_length_a   17.58196561
_cell_length_b   17.57987583
_cell_length_c   23.44228352
_cell_angle_alpha   90.00162535
_cell_angle_beta   89.97236670
_cell_angle_gamma   90.00153037
_symmetry_Int_Tables_number   1
_chemical_formula_structural   In86Cu29Se144
_chemical_formula_sum   'In86 Cu29 Se144'
_cell_volume   7245.74578615
_cell_formula_units_Z   1
loop_
 _symmetry_equiv_pos_site_id
 _symmetry_equiv_pos_as_xyz
  1  'x, y, z'
loop_
 _atom_site_type_symbol
 _atom_site_label
 _atom_site_symmetry_multiplicity
 _atom_site_fract_x
 _atom_site_fract_y
 _atom_site_fract_z
 _atom_site_occupancy
  In  In0  1  -0.00907926  0.15215291  0.11971905  1
  In  In1  1  -0.01156256  0.16132756  0.61866701  1
  In  In2  1  -0.00661219  0.51399358  0.11974787  1
  In  In3  1  0.00949235  0.50399944  0.62795673  1
  In  In4  1  0.01286195  0.84840934  0.11459763  1
  In  In5  1  0.00403695  0.83364562  0.63913201  1
  In  In6  1  0.32071822  0.16608759  0.12069252  1
  In  In7  1  0.32378655  0.15882578  0.61511294  1
  In  In8  1  0.35148619  0.49855459  0.12186241  1
  In  In9  1  0.32896872  0.50967039  0.62425578  1
  In  In10  1  0.31483685  0.84767208  0.14079215  1
  In  In11  1  0.34202387  0.83767727  0.62678588  1
  In  In12  1  0.67219224  0.15614335  0.13133826  1
  In  In13  1  0.66810544  0.16352084  0.62694548  1
  In  In14  1  0.66591633  0.50097135  0.12144920  1
  In  In15  1  0.65727129  0.50259360  0.63858425  1
  In  In16  1  0.67775515  0.82425798  0.12624380  1
  In  In17  1  0.66927792  0.83548038  0.63247465  1
  In  In18  1  0.17773972  0.00762463  0.36382879  1
  In  In19  1  0.16522866  -0.00636824  0.86942046  1
  In  In20  1  0.16845953  0.33190647  0.38336013  1
  In  In21  1  0.14970331  0.32822781  0.87822324  1
  In  In22  1  0.16260452  0.65519056  0.37412572  1
  In  In23  1  0.16884502  0.69072444  0.87331271  1
  In  In24  1  0.50636636  0.00493982  0.37046755  1
  In  In25  1  0.50112921  0.01274349  0.85987636  1
  In  In26  1  0.50181130  0.31755565  0.37745081  1
  In  In27  1  0.51435098  0.32982226  0.86929206  1
  In  In28  1  0.50518070  0.67073755  0.36889065  1
  In  In29  1  0.50437820  0.65224627  0.87739398  1
  In  In30  1  0.84049295  0.00280518  0.36950711  1
  In  In31  1  0.83556744  -0.00102145  0.87834958  1
  In  In32  1  0.81628813  0.33107242  0.37141012  1
  In  In33  1  0.82606611  0.34124894  0.88391242  1
  In  In34  1  0.83191883  0.67566138  0.37422706  1
  In  In35  1  0.83031480  0.66842728  0.87438539  1
  In  In36  1  0.00703937  0.15695044  0.38324901  1
  In  In37  1  0.00781637  0.15451713  0.88232033  1
  In  In38  1  0.01006808  0.51098584  0.37949842  1
  In  In39  1  -0.01781120  0.49877025  0.87648576  1
  In  In40  1  -0.00800480  0.83620221  0.37260762  1
  In  In41  1  0.00007720  0.83297707  0.87155471  1
  In  In42  1  0.33904092  0.16321383  0.38067853  1
  In  In43  1  0.33646528  0.14931839  0.87373538  1
  In  In44  1  0.32453344  0.49551400  0.37448734  1
  In  In45  1  0.34215770  0.50164775  0.88484977  1
  In  In46  1  0.33255229  0.83585100  0.35791507  1
  In  In47  1  0.32020968  0.84416048  0.87957655  1
  In  In48  1  0.66676897  0.16345784  0.37651787  1
  In  In49  1  0.67090441  0.17579449  0.86742109  1
  In  In50  1  0.67186054  0.50022140  0.36875568  1
  In  In51  1  0.66495047  0.50121885  0.87140985  1
  In  In52  1  0.66821559  0.83183003  0.36711043  1
  In  In53  1  0.67628577  0.84469948  0.87222209  1
  In  In54  1  0.16391808  -0.00135309  0.12550029  1
  In  In55  1  0.14931387  0.00689828  0.63635436  1
  In  In56  1  0.18624668  0.32349320  0.11706969  1
  In  In57  1  0.17008894  0.33446193  0.61911067  1
  In  In58  1  0.16271131  0.68667245  0.12785895  1
  In  In59  1  0.16846659  0.66475900  0.62473195  1
  In  In60  1  0.49921884  0.00298120  0.13153897  1
  In  In61  1  0.48872764  0.01586416  0.63890338  1
  In  In62  1  0.49809830  0.34882563  0.11833516  1
  In  In63  1  0.52033216  0.32730151  0.63323758  1
  In  In64  1  0.50737125  0.66254882  0.12612987  1
  In  In65  1  0.50360069  0.67060527  0.62907105  1
  In  In66  1  0.83517873  -0.00174721  0.12423945  1
  In  In67  1  0.82570525  0.00869348  0.63395104  1
  In  In68  1  0.81982797  0.32273768  0.11889282  1
  In  In69  1  0.82865357  0.31873672  0.62492614  1
  In  In70  1  0.82856165  0.66104548  0.11533260  1
  In  In71  1  0.83132710  0.66907299  0.63076745  1
  In  In72  1  0.49842434  0.83170853  0.00605743  1
  In  In73  1  0.49898121  0.17263879  -0.00871281  1
  In  In74  1  0.83745145  0.49531956  0.49942673  1
  In  In75  1  0.34098925  0.33004591  0.24746942  1
  In  In76  1  0.33853063  0.67413364  0.74985373  1
  In  In77  1  -0.00344519  0.32832166  0.24424317  1
  In  In78  1  0.83704609  0.83512533  0.49959842  1
  In  In79  1  -0.00339632  0.67442772  0.25289212  1
  In  In80  1  0.16604152  0.83528210  0.50103345  1
  In  In81  1  0.16167875  0.50071801  0.00163761  1
  In  In82  1  0.50493487  0.83973969  0.49387283  1
  In  In83  1  0.33932018  0.32934685  0.75692321  1
  In  In84  1  0.50036626  0.49554490  0.51078999  1
  In  In85  1  -0.00819539  0.33310317  0.74925810  1
  Cu  Cu86  1  0.50360361  0.83361043  0.75251760  1
  Cu  Cu87  1  0.32577136  -0.00306659  -0.00177244  1
  Cu  Cu88  1  -0.00483347  0.32534105  0.00288464  1
  Cu  Cu89  1  0.83056239  0.16161880  0.24917321  1
  Cu  Cu90  1  0.50509267  0.16503826  0.25292935  1
  Cu  Cu91  1  0.33248308  0.33005680  0.49981690  1
  Cu  Cu92  1  0.16885195  0.51117077  0.75079061  1
  Cu  Cu93  1  0.82320922  0.50098433  0.24388625  1
  Cu  Cu94  1  0.82585095  0.50213863  0.75576268  1
  Cu  Cu95  1  0.66523288  0.00734006  0.50333898  1
  Cu  Cu96  1  0.66815538  0.32675706  0.50164912  1
  Cu  Cu97  1  0.66713696  0.66076891  -0.00165378  1
  Cu  Cu98  1  0.50179606  0.83168511  0.24465615  1
  Cu  Cu99  1  0.50917221  0.50159486  0.24643697  1
  Cu  Cu100  1  0.83439666  0.83249197  0.75572892  1
  Cu  Cu101  1  0.00062317  0.33286077  0.50389242  1
  Cu  Cu102  1  0.67620193  0.00295456  0.00128279  1
  Cu  Cu103  1  -0.00074081  0.00219439  0.50214085  1
  Cu  Cu104  1  0.17157885  0.50317053  0.25438397  1
  Cu  Cu105  1  0.83288681  0.83452349  0.24512792  1
  Cu  Cu106  1  0.32904857  0.00567472  0.49942295  1
  Cu  Cu107  1  0.16367475  0.16010304  0.74810454  1
  Cu  Cu108  1  0.32973339  0.66196557  0.49662124  1
  Cu  Cu109  1  0.83336528  0.16424861  0.75229935  1
  Cu  Cu110  1  0.33209518  0.67121256  0.00217092  1
  Cu  Cu111  1  0.00040193  -0.00242914  -0.00171665  1
  Cu  Cu112  1  0.16544162  0.15973230  0.24765719  1
  Cu  Cu113  1  0.66692566  0.33609496  -0.00254152  1
  Cu  Cu114  1  -0.00461876  0.67218871  -0.00468504  1
  Se  Se115  1  0.08477534  0.08058265  0.05294104  1
  Se  Se116  1  0.08450688  0.08449313  0.55518986  1
  Se  Se117  1  0.07502430  0.40672384  0.06444702  1
  Se  Se118  1  0.08174593  0.41846711  0.55579816  1
  Se  Se119  1  0.08308970  0.75070267  0.04850537  1
  Se  Se120  1  0.07407440  0.74798321  0.56002360  1
  Se  Se121  1  0.41408747  0.07598554  0.05406618  1
  Se  Se122  1  0.42063407  0.08040735  0.55269149  1
  Se  Se123  1  0.40593590  0.40850879  0.04656785  1
  Se  Se124  1  0.40908520  0.40400388  0.56758712  1
  Se  Se125  1  0.40606551  0.75003548  0.06841041  1
  Se  Se126  1  0.41194937  0.74299367  0.55366079  1
  Se  Se127  1  0.75561301  0.08794470  0.05578102  1
  Se  Se128  1  0.75497200  0.08546007  0.55530557  1
  Se  Se129  1  0.75071622  0.41893015  0.05235914  1
  Se  Se130  1  0.74090986  0.41411285  0.56172797  1
  Se  Se131  1  0.74963046  0.74949953  0.04745583  1
  Se  Se132  1  0.74338930  0.74709975  0.55725990  1
  Se  Se133  1  0.25547498  0.24384490  0.04255312  1
  Se  Se134  1  0.24377751  0.24732378  0.54909933  1
  Se  Se135  1  0.25103104  0.58974808  0.06335978  1
  Se  Se136  1  0.24589750  0.58248238  0.55180573  1
  Se  Se137  1  0.24810752  0.91409687  0.05584689  1
  Se  Se138  1  0.25386773  0.92534409  0.56234105  1
  Se  Se139  1  0.58946548  0.25223370  0.05945897  1
  Se  Se140  1  0.58448969  0.24517623  0.55540010  1
  Se  Se141  1  0.58026734  0.58073811  0.05124644  1
  Se  Se142  1  0.59400797  0.59257637  0.55855044  1
  Se  Se143  1  0.59193666  0.92526404  0.06068864  1
  Se  Se144  1  0.58597389  0.92482465  0.56280654  1
  Se  Se145  1  0.91081369  0.24276268  0.05531773  1
  Se  Se146  1  0.91179169  0.24956474  0.55001768  1
  Se  Se147  1  0.91350733  0.58299268  0.04387678  1
  Se  Se148  1  0.92149983  0.58905940  0.55973340  1
  Se  Se149  1  0.91305545  0.91585954  0.05099286  1
  Se  Se150  1  0.92274276  0.92217547  0.56458341  1
  Se  Se151  1  0.08336007  0.24914600  0.44862196  1
  Se  Se152  1  0.08242566  0.24424111  0.95269767  1
  Se  Se153  1  0.08923676  0.58421332  0.45218710  1
  Se  Se154  1  0.07822160  0.58960536  0.93606789  1
  Se  Se155  1  0.07826706  0.92525689  0.43892365  1
  Se  Se156  1  0.08284006  0.91543871  0.94223972  1
  Se  Se157  1  0.41911462  0.24661858  0.45097283  1
  Se  Se158  1  0.40671080  0.25914278  0.93260670  1
  Se  Se159  1  0.41740611  0.58405392  0.44085145  1
  Se  Se160  1  0.41863408  0.58728504  0.95442459  1
  Se  Se161  1  0.40484825  0.92246316  0.43760146  1
  Se  Se162  1  0.42052683  0.92811278  0.94069743  1
  Se  Se163  1  0.75154063  0.24579432  0.44683452  1
  Se  Se164  1  0.74719865  0.24668579  0.94669218  1
  Se  Se165  1  0.74657394  0.58852836  0.44256687  1
  Se  Se166  1  0.75029798  0.57955557  0.94217757  1
  Se  Se167  1  0.74181799  0.92352450  0.44193066  1
  Se  Se168  1  0.75498568  0.91413641  0.94970197  1
  Se  Se169  1  0.24410811  0.08557297  0.44422514  1
  Se  Se170  1  0.24507847  0.07891679  0.94201777  1
  Se  Se171  1  0.25057960  0.41818212  0.44988728  1
  Se  Se172  1  0.24825243  0.40988149  0.94055187  1
  Se  Se173  1  0.25789560  0.74975879  0.43740882  1
  Se  Se174  1  0.24924296  0.75670976  0.95192156  1
  Se  Se175  1  0.57932453  0.08444571  0.44650598  1
  Se  Se176  1  0.59126840  0.07591503  0.93978564  1
  Se  Se177  1  0.58988270  0.41188723  0.44297878  1
  Se  Se178  1  0.58345499  0.41646515  0.94273333  1
  Se  Se179  1  0.59572481  0.74260812  0.44322687  1
  Se  Se180  1  0.58867490  0.74855465  0.94108131  1
  Se  Se181  1  0.91185810  0.08083670  0.44758304  1
  Se  Se182  1  0.91429802  0.08374514  0.94978195  1
  Se  Se183  1  0.92489176  0.40620267  0.43447135  1
  Se  Se184  1  0.91615753  0.41552161  0.95292923  1
  Se  Se185  1  0.93007463  0.73851088  0.44567270  1
  Se  Se186  1  0.91265900  0.75447197  0.94153167  1
  Se  Se187  1  0.24370898  0.24542354  0.30681646  1
  Se  Se188  1  0.23691436  0.24351804  0.80987736  1
  Se  Se189  1  0.25617236  0.58682489  0.30426554  1
  Se  Se190  1  0.25101817  0.58261276  0.81447022  1
  Se  Se191  1  0.24525396  0.91637714  0.29513063  1
  Se  Se192  1  0.25930916  0.92357816  0.80104547  1
  Se  Se193  1  0.58806368  0.24991560  0.30452022  1
  Se  Se194  1  0.56832724  0.23124906  0.80011305  1
  Se  Se195  1  0.58875922  0.58554652  0.30301347  1
  Se  Se196  1  0.58650418  0.58713485  0.80211391  1
  Se  Se197  1  0.58203315  0.91474993  0.30289305  1
  Se  Se198  1  0.58704025  0.91940720  0.80315241  1
  Se  Se199  1  0.91156312  0.24215537  0.31011179  1
  Se  Se200  1  0.91161702  0.24454517  0.81581728  1
  Se  Se201  1  0.90788807  0.57274637  0.30763934  1
  Se  Se202  1  0.91435802  0.58483385  0.80349915  1
  Se  Se203  1  0.91717042  0.91591706  0.29937811  1
  Se  Se204  1  0.91665837  0.92028493  0.80552389  1
  Se  Se205  1  0.07780289  0.08381102  0.30307397  1
  Se  Se206  1  0.07863798  0.08098257  0.80313109  1
  Se  Se207  1  0.08815489  0.41850612  0.30736748  1
  Se  Se208  1  0.08578579  0.42705639  0.80635012  1
  Se  Se209  1  0.09303486  0.75956140  0.30976219  1
  Se  Se210  1  0.08044925  0.75042831  0.80043687  1
  Se  Se211  1  0.41579688  0.08629609  0.30554456  1
  Se  Se212  1  0.41628043  0.09233406  0.79345391  1
  Se  Se213  1  0.42930403  0.42196503  0.30979523  1
  Se  Se214  1  0.42547185  0.42930307  0.80895677  1
  Se  Se215  1  0.42043980  0.74697898  0.29908179  1
  Se  Se216  1  0.42371136  0.75922482  0.81792465  1
  Se  Se217  1  0.74727443  0.07997533  0.30568567  1
  Se  Se218  1  0.75214856  0.08071355  0.80762143  1
  Se  Se219  1  0.74467111  0.41320898  0.29710023  1
  Se  Se220  1  0.74856423  0.41078193  0.80581656  1
  Se  Se221  1  0.75239126  0.74810297  0.29952191  1
  Se  Se222  1  0.74590784  0.74951964  0.80464775  1
  Se  Se223  1  0.25281156  0.08099419  0.19418420  1
  Se  Se224  1  0.25143808  0.08319174  0.69355664  1
  Se  Se225  1  0.24658956  0.42249647  0.19088860  1
  Se  Se226  1  0.24561934  0.42248907  0.69591264  1
  Se  Se227  1  0.25555460  0.73983059  0.20142664  1
  Se  Se228  1  0.24455170  0.76078413  0.69197002  1
  Se  Se229  1  0.58684158  0.07836508  0.20086478  1
  Se  Se230  1  0.60124860  0.06874927  0.69552138  1
  Se  Se231  1  0.58586339  0.41453274  0.19193613  1
  Se  Se232  1  0.58471051  0.41390983  0.70604017  1
  Se  Se233  1  0.58749889  0.74850417  0.19384234  1
  Se  Se234  1  0.58479582  0.74997932  0.69857762  1
  Se  Se235  1  0.91652321  0.07918865  0.19764470  1
  Se  Se236  1  0.92069578  0.08508783  0.69873934  1
  Se  Se237  1  0.90888797  0.42379929  0.18645141  1
  Se  Se238  1  0.90351682  0.42536479  0.68867252  1
  Se  Se239  1  0.91300481  0.75501158  0.18292045  1
  Se  Se240  1  0.91487093  0.74821645  0.70018469  1
  Se  Se241  1  0.09224335  0.24313719  0.18514516  1
  Se  Se242  1  0.08617259  0.24689179  0.68955353  1
  Se  Se243  1  0.08735418  0.57823622  0.19404682  1
  Se  Se244  1  0.08373586  0.59126927  0.69827225  1
  Se  Se245  1  0.08447310  0.91393294  0.19507615  1
  Se  Se246  1  0.08438348  0.91562746  0.70619669  1
  Se  Se247  1  0.42804932  0.24009242  0.18530031  1
  Se  Se248  1  0.41364105  0.24449230  0.68447434  1
  Se  Se249  1  0.42083910  0.58200386  0.19597443  1
  Se  Se250  1  0.42564799  0.57409468  0.69520743  1
  Se  Se251  1  0.41674144  0.92092809  0.19969806  1
  Se  Se252  1  0.41677989  0.91538359  0.70089446  1
  Se  Se253  1  0.74862367  0.24863511  0.19840337  1
  Se  Se254  1  0.74871909  0.24781407  0.69976208  1
  Se  Se255  1  0.74627359  0.58890243  0.19037856  1
  Se  Se256  1  0.74777500  0.58712620  0.69898458  1
  Se  Se257  1  0.74797134  0.91868311  0.19375199  1
  Se  Se258  1  0.75245826  0.91642111  0.70055597  1
