# generated using pymatgen
data_In86Cu29Se144
_symmetry_space_group_name_H-M   'P 1'
_cell_length_a   17.57667319
_cell_length_b   17.57521849
_cell_length_c   23.43591344
_cell_angle_alpha   89.99991961
_cell_angle_beta   90.00218170
_cell_angle_gamma   90.00190192
_symmetry_Int_Tables_number   1
_chemical_formula_structural   In86Cu29Se144
_chemical_formula_sum   'In86 Cu29 Se144'
_cell_volume   7239.67875160
_cell_formula_units_Z   1
loop_
 _symmetry_equiv_pos_site_id
 _symmetry_equiv_pos_as_xyz
  1  'x, y, z'
loop_
 _atom_site_type_symbol
 _atom_site_label
 _atom_site_symmetry_multiplicity
 _atom_site_fract_x
 _atom_site_fract_y
 _atom_site_fract_z
 _atom_site_occupancy
  In  In0  1  0.00884774  0.16125810  0.14123606  1
  In  In1  1  0.00312222  0.18662451  0.62647521  1
  In  In2  1  -0.00376565  0.49549635  0.12268539  1
  In  In3  1  -0.00098482  0.50198702  0.62805780  1
  In  In4  1  0.00323227  0.83693811  0.11870444  1
  In  In5  1  0.00044964  0.81736398  0.63442948  1
  In  In6  1  0.34014604  0.16816338  0.12281173  1
  In  In7  1  0.34621110  0.15978864  0.62972786  1
  In  In8  1  0.31904252  0.48522172  0.10523721  1
  In  In9  1  0.31730451  0.50179140  0.62755611  1
  In  In10  1  0.32915422  0.84525843  0.12001981  1
  In  In11  1  0.33053591  0.84670550  0.62968492  1
  In  In12  1  0.66064354  0.17980076  0.12035663  1
  In  In13  1  0.66629120  0.16801157  0.62444643  1
  In  In14  1  0.67177150  0.50593994  0.10922275  1
  In  In15  1  0.67535029  0.48982756  0.63441812  1
  In  In16  1  0.66192299  0.79643222  0.11963061  1
  In  In17  1  0.68581629  0.82992641  0.64977937  1
  In  In18  1  0.15226258  0.00940576  0.37942259  1
  In  In19  1  0.17068460  -0.02047455  0.86681751  1
  In  In20  1  0.17490909  0.33017137  0.36821073  1
  In  In21  1  0.17673267  0.34471224  0.86964816  1
  In  In22  1  0.15937041  0.66699296  0.38485488  1
  In  In23  1  0.15529943  0.67212602  0.87872578  1
  In  In24  1  0.50935107  0.00244082  0.37980668  1
  In  In25  1  0.50219228  0.00749533  0.87064786  1
  In  In26  1  0.48443081  0.32915634  0.37474262  1
  In  In27  1  0.49698480  0.33040823  0.87670570  1
  In  In28  1  0.50718746  0.65660787  0.36795562  1
  In  In29  1  0.50610127  0.65227181  0.87879476  1
  In  In30  1  0.84486918  -0.00247853  0.37722258  1
  In  In31  1  0.81881751  -0.00090444  0.86889806  1
  In  In32  1  0.83986965  0.32320165  0.38559044  1
  In  In33  1  0.84200612  0.34803207  0.86800829  1
  In  In34  1  0.81996144  0.66722259  0.37473171  1
  In  In35  1  0.83141691  0.66263856  0.87371976  1
  In  In36  1  -0.00006259  0.15897300  0.37062263  1
  In  In37  1  -0.01149407  0.17218705  0.86925609  1
  In  In38  1  0.00803456  0.48862134  0.38064202  1
  In  In39  1  -0.00441389  0.50075140  0.87717508  1
  In  In40  1  -0.00081214  0.84848445  0.37481867  1
  In  In41  1  0.01009321  0.81779270  0.87378875  1
  In  In42  1  0.32596416  0.17968747  0.37919549  1
  In  In43  1  0.34537575  0.17966332  0.86913195  1
  In  In44  1  0.33304801  0.48309488  0.37347648  1
  In  In45  1  0.33845621  0.48218220  0.88875571  1
  In  In46  1  0.32787081  0.82424533  0.37955401  1
  In  In47  1  0.31485354  0.83404130  0.86824322  1
  In  In48  1  0.66189244  0.16743241  0.38954512  1
  In  In49  1  0.65156631  0.15983887  0.87082991  1
  In  In50  1  0.66795899  0.51104752  0.37507189  1
  In  In51  1  0.67289768  0.50386946  0.87258640  1
  In  In52  1  0.67393711  0.82582565  0.37086406  1
  In  In53  1  0.67849375  0.83476492  0.86861243  1
  In  In54  1  0.16676767  -0.00718786  0.12329450  1
  In  In55  1  0.18463372  -0.00240600  0.62332650  1
  In  In56  1  0.16352341  0.33446736  0.13179265  1
  In  In57  1  0.15734047  0.34619186  0.63591118  1
  In  In58  1  0.16693927  0.66744321  0.11456103  1
  In  In59  1  0.15992416  0.65596172  0.62180260  1
  In  In60  1  0.48741860  0.00218003  0.12125235  1
  In  In61  1  0.49771563  0.00983759  0.63021973  1
  In  In62  1  0.48944924  0.32924995  0.10718905  1
  In  In63  1  0.50812888  0.32423200  0.63186332  1
  In  In64  1  0.51755104  0.66012173  0.12279493  1
  In  In65  1  0.50836598  0.67690775  0.63198624  1
  In  In66  1  0.84606416  -0.00264568  0.12368369  1
  In  In67  1  0.81993437  -0.00324261  0.62980753  1
  In  In68  1  0.84087332  0.34326006  0.12348710  1
  In  In69  1  0.83365191  0.33860941  0.62315243  1
  In  In70  1  0.81811398  0.65627989  0.10782118  1
  In  In71  1  0.84339916  0.66023668  0.63790668  1
  In  In72  1  0.00148403  0.00280580  0.74644209  1
  In  In73  1  0.16981024  0.16710736  0.00019419  1
  In  In74  1  0.33675515  0.66183575  0.75512817  1
  In  In75  1  0.82831726  0.16935081  -0.00068021  1
  In  In76  1  0.49879271  0.83144077  -0.00129174  1
  In  In77  1  0.32880679  0.00602214  0.24723404  1
  In  In78  1  0.33937751  0.66464568  0.24552961  1
  In  In79  1  0.83579785  0.83285094  0.50311248  1
  In  In80  1  0.67074896  -0.00591702  0.25171060  1
  In  In81  1  0.66994024  0.33825961  0.24450575  1
  In  In82  1  0.49848604  0.84083126  0.50762474  1
  In  In83  1  -0.00490339  0.66414928  0.24445608  1
  In  In84  1  0.16868399  0.16950719  0.50277789  1
  In  In85  1  0.49747317  0.49653628  0.49756437  1
  Cu  Cu86  1  0.17553735  0.49478238  0.25072812  1
  Cu  Cu87  1  0.83324405  0.50084161  0.24461686  1
  Cu  Cu88  1  -0.00198677  0.33946261  0.50371168  1
  Cu  Cu89  1  0.84190949  0.16668266  0.25702383  1
  Cu  Cu90  1  0.49843094  0.17187878  0.24698044  1
  Cu  Cu91  1  0.66845528  0.66486218  0.50297093  1
  Cu  Cu92  1  0.50113812  0.49497364  0.75841338  1
  Cu  Cu93  1  -0.00331180  0.66497651  -0.00230344  1
  Cu  Cu94  1  -0.00049199  -0.01093598  -0.00479919  1
  Cu  Cu95  1  0.32861490  0.33255909  0.50091654  1
  Cu  Cu96  1  0.32374389  0.66612271  0.50168617  1
  Cu  Cu97  1  0.82690142  0.18054916  0.74787959  1
  Cu  Cu98  1  0.50709648  0.83628494  0.75408587  1
  Cu  Cu99  1  0.66215330  -0.00376681  -0.00532836  1
  Cu  Cu100  1  0.15973032  0.84062178  0.24737481  1
  Cu  Cu101  1  0.33024646  0.66724396  -0.00731143  1
  Cu  Cu102  1  0.16150723  0.50507446  0.75471422  1
  Cu  Cu103  1  0.00399413  0.33511564  0.00161332  1
  Cu  Cu104  1  0.83554917  0.50074929  0.75173624  1
  Cu  Cu105  1  -0.00191015  0.00392291  0.50002349  1
  Cu  Cu106  1  0.66715993  0.33379396  0.50757394  1
  Cu  Cu107  1  -0.00347034  0.66265041  0.50665281  1
  Cu  Cu108  1  0.66415722  0.33555944  -0.00744852  1
  Cu  Cu109  1  0.50034989  0.16961001  0.74964801  1
  Cu  Cu110  1  0.32871740  0.00374450  -0.00190513  1
  Cu  Cu111  1  0.50341664  0.49865014  0.24388724  1
  Cu  Cu112  1  0.66320110  0.00259439  0.50931116  1
  Cu  Cu113  1  0.83011378  0.82765650  0.24688020  1
  Cu  Cu114  1  0.17073424  0.16946195  0.74660728  1
  Se  Se115  1  0.07188988  0.07691447  0.05603211  1
  Se  Se116  1  0.07741719  0.08000153  0.56429694  1
  Se  Se117  1  0.08647714  0.41536184  0.05776451  1
  Se  Se118  1  0.08366944  0.42006809  0.55759370  1
  Se  Se119  1  0.08131544  0.75053900  0.05006469  1
  Se  Se120  1  0.07973589  0.74843025  0.55668914  1
  Se  Se121  1  0.41520955  0.08566382  0.04875962  1
  Se  Se122  1  0.41261503  0.07492530  0.55507628  1
  Se  Se123  1  0.43209478  0.43589079  0.04607334  1
  Se  Se124  1  0.40967583  0.41206890  0.56271710  1
  Se  Se125  1  0.40741453  0.74238284  0.06042673  1
  Se  Se126  1  0.40897230  0.74031780  0.56129046  1
  Se  Se127  1  0.74038412  0.07560125  0.06031647  1
  Se  Se128  1  0.75353250  0.08467533  0.55632724  1
  Se  Se129  1  0.75198696  0.40812952  0.05058996  1
  Se  Se130  1  0.75020402  0.42291488  0.55329447  1
  Se  Se131  1  0.75843723  0.76093372  0.04403203  1
  Se  Se132  1  0.74558864  0.74601711  0.56432513  1
  Se  Se133  1  0.25674796  0.25993497  0.05771149  1
  Se  Se134  1  0.25151944  0.25845465  0.56845113  1
  Se  Se135  1  0.24400847  0.58371163  0.04483079  1
  Se  Se136  1  0.24351619  0.57631687  0.55034692  1
  Se  Se137  1  0.24456976  0.91735839  0.04746720  1
  Se  Se138  1  0.25228685  0.91127428  0.55104014  1
  Se  Se139  1  0.58187182  0.24794044  0.04378010  1
  Se  Se140  1  0.58000305  0.24852444  0.55388685  1
  Se  Se141  1  0.59345239  0.59551414  0.04371340  1
  Se  Se142  1  0.58538127  0.58512452  0.56104365  1
  Se  Se143  1  0.58817706  0.91900423  0.06339471  1
  Se  Se144  1  0.59818681  0.91301304  0.57180418  1
  Se  Se145  1  0.92818689  0.24715645  0.06092263  1
  Se  Se146  1  0.91510923  0.25226291  0.55316282  1
  Se  Se147  1  0.91801759  0.57754308  0.05166669  1
  Se  Se148  1  0.91123570  0.58227571  0.55890132  1
  Se  Se149  1  0.91253225  0.91148749  0.04904484  1
  Se  Se150  1  0.92397537  0.92270495  0.56445693  1
  Se  Se151  1  0.07745938  0.25682724  0.44176939  1
  Se  Se152  1  0.07658294  0.25276816  0.93878377  1
  Se  Se153  1  0.07944139  0.58015314  0.45018403  1
  Se  Se154  1  0.08190196  0.58079867  0.94647185  1
  Se  Se155  1  0.08199479  0.91792610  0.44986682  1
  Se  Se156  1  0.08632412  0.91126869  0.94173511  1
  Se  Se157  1  0.41565668  0.24856662  0.45169192  1
  Se  Se158  1  0.41471510  0.25136122  0.94826722  1
  Se  Se159  1  0.40633949  0.59098141  0.43873776  1
  Se  Se160  1  0.41721683  0.58100162  0.94797907  1
  Se  Se161  1  0.40947668  0.92252036  0.44159228  1
  Se  Se162  1  0.40797220  0.92018777  0.93743124  1
  Se  Se163  1  0.74976297  0.24846347  0.45342605  1
  Se  Se164  1  0.74613994  0.25567888  0.93260193  1
  Se  Se165  1  0.75170137  0.58216030  0.44983482  1
  Se  Se166  1  0.76363058  0.57032260  0.94426669  1
  Se  Se167  1  0.74016851  0.92342308  0.44379849  1
  Se  Se168  1  0.75052898  0.91726842  0.94546274  1
  Se  Se169  1  0.25722848  0.07661042  0.44415101  1
  Se  Se170  1  0.25107596  0.07880762  0.93252179  1
  Se  Se171  1  0.24593580  0.41335946  0.44548997  1
  Se  Se172  1  0.24050898  0.41351562  0.95325405  1
  Se  Se173  1  0.24179277  0.75314635  0.45098096  1
  Se  Se174  1  0.24574949  0.75352374  0.94498592  1
  Se  Se175  1  0.57772861  0.08367115  0.45604030  1
  Se  Se176  1  0.57777222  0.08337053  0.94846106  1
  Se  Se177  1  0.58994978  0.40654594  0.43747769  1
  Se  Se178  1  0.58402953  0.41990040  0.93855599  1
  Se  Se179  1  0.58602575  0.74431011  0.44390366  1
  Se  Se180  1  0.59172746  0.74751925  0.93885669  1
  Se  Se181  1  0.91614625  0.08722365  0.44663033  1
  Se  Se182  1  0.91952213  0.07609281  0.94030652  1
  Se  Se183  1  0.91303658  0.42063524  0.44915171  1
  Se  Se184  1  0.91614022  0.41533607  0.94921756  1
  Se  Se185  1  0.92413865  0.74307248  0.43912813  1
  Se  Se186  1  0.91682496  0.74839900  0.94214911  1
  Se  Se187  1  0.25965961  0.25150584  0.29975865  1
  Se  Se188  1  0.25154633  0.25321710  0.80263960  1
  Se  Se189  1  0.24602737  0.58271291  0.31132106  1
  Se  Se190  1  0.24869484  0.57495772  0.81787261  1
  Se  Se191  1  0.24311517  0.91283825  0.31042583  1
  Se  Se192  1  0.25806817  0.91988338  0.79076011  1
  Se  Se193  1  0.58337719  0.24580903  0.30847123  1
  Se  Se194  1  0.58203769  0.25419786  0.80336477  1
  Se  Se195  1  0.58897797  0.58001977  0.29637049  1
  Se  Se196  1  0.58628013  0.58415020  0.80181368  1
  Se  Se197  1  0.57474050  0.90625874  0.30850215  1
  Se  Se198  1  0.58831727  0.92153739  0.80715476  1
  Se  Se199  1  0.92045943  0.25503535  0.30833944  1
  Se  Se200  1  0.91746765  0.25821050  0.79823510  1
  Se  Se201  1  0.91112183  0.57689785  0.31074508  1
  Se  Se202  1  0.92048859  0.58409599  0.80381994  1
  Se  Se203  1  0.91040316  0.91316293  0.30068014  1
  Se  Se204  1  0.91989294  0.91627830  0.81315552  1
  Se  Se205  1  0.08630340  0.08405597  0.30104217  1
  Se  Se206  1  0.09174225  0.09121896  0.81041941  1
  Se  Se207  1  0.08757287  0.41724243  0.30467202  1
  Se  Se208  1  0.07914928  0.41746202  0.80668655  1
  Se  Se209  1  0.08491273  0.75439320  0.30708363  1
  Se  Se210  1  0.09550544  0.75259081  0.79835384  1
  Se  Se211  1  0.42415464  0.08975927  0.31006651  1
  Se  Se212  1  0.41537119  0.08468712  0.80129169  1
  Se  Se213  1  0.42100868  0.41725213  0.29957534  1
  Se  Se214  1  0.41219329  0.41432738  0.80707649  1
  Se  Se215  1  0.42376018  0.75642826  0.30882869  1
  Se  Se216  1  0.42664162  0.75561156  0.81476743  1
  Se  Se217  1  0.75267162  0.09151639  0.31375014  1
  Se  Se218  1  0.74927751  0.09372375  0.80271377  1
  Se  Se219  1  0.75816723  0.42092541  0.31057588  1
  Se  Se220  1  0.74750552  0.41624090  0.79997546  1
  Se  Se221  1  0.74598464  0.74286469  0.29719107  1
  Se  Se222  1  0.75710263  0.74926236  0.80156800  1
  Se  Se223  1  0.23882089  0.09515092  0.18791383  1
  Se  Se224  1  0.25344179  0.08379485  0.69654114  1
  Se  Se225  1  0.25913662  0.41775862  0.19304865  1
  Se  Se226  1  0.24927032  0.42101370  0.70434725  1
  Se  Se227  1  0.24190885  0.75862510  0.19063428  1
  Se  Se228  1  0.25023908  0.74442530  0.68859699  1
  Se  Se229  1  0.57965373  0.08823849  0.19078045  1
  Se  Se230  1  0.58675127  0.08635198  0.69729939  1
  Se  Se231  1  0.58099847  0.42033038  0.17988668  1
  Se  Se232  1  0.58250925  0.41469063  0.69945096  1
  Se  Se233  1  0.57232193  0.75213074  0.19854135  1
  Se  Se234  1  0.58952499  0.74637970  0.70695955  1
  Se  Se235  1  0.91520303  0.07774595  0.20062033  1
  Se  Se236  1  0.90966618  0.09725021  0.68955000  1
  Se  Se237  1  0.92138657  0.41577129  0.19874935  1
  Se  Se238  1  0.91670860  0.41661321  0.69553819  1
  Se  Se239  1  0.90673663  0.75008246  0.18230197  1
  Se  Se240  1  0.89560647  0.76925344  0.70094271  1
  Se  Se241  1  0.07782651  0.25959039  0.20156192  1
  Se  Se242  1  0.08133863  0.25573621  0.70402879  1
  Se  Se243  1  0.09610889  0.57764202  0.19141714  1
  Se  Se244  1  0.07918184  0.58706500  0.69918407  1
  Se  Se245  1  0.07639832  0.92094543  0.19330796  1
  Se  Se246  1  0.09332565  0.91252374  0.68990660  1
  Se  Se247  1  0.42152770  0.25476186  0.18967350  1
  Se  Se248  1  0.41346006  0.25393908  0.69917021  1
  Se  Se249  1  0.41917024  0.57252226  0.18185412  1
  Se  Se250  1  0.42636625  0.57300200  0.69067183  1
  Se  Se251  1  0.42249970  0.90837816  0.19537665  1
  Se  Se252  1  0.42443511  0.91507308  0.69710188  1
  Se  Se253  1  0.76322728  0.24071616  0.19108138  1
  Se  Se254  1  0.74424814  0.25942208  0.69075157  1
  Se  Se255  1  0.74972532  0.57910732  0.18782128  1
  Se  Se256  1  0.74774808  0.58369005  0.70053536  1
  Se  Se257  1  0.75096329  0.90709290  0.18386002  1
  Se  Se258  1  0.75295517  0.92965329  0.71221063  1
