# generated using pymatgen
data_In86Cu29Se144
_symmetry_space_group_name_H-M   'P 1'
_cell_length_a   17.58207043
_cell_length_b   17.57410371
_cell_length_c   23.44593303
_cell_angle_alpha   90.00174759
_cell_angle_beta   90.03136771
_cell_angle_gamma   89.99718769
_symmetry_Int_Tables_number   1
_chemical_formula_structural   In86Cu29Se144
_chemical_formula_sum   'In86 Cu29 Se144'
_cell_volume   7244.53733043
_cell_formula_units_Z   1
loop_
 _symmetry_equiv_pos_site_id
 _symmetry_equiv_pos_as_xyz
  1  'x, y, z'
loop_
 _atom_site_type_symbol
 _atom_site_label
 _atom_site_symmetry_multiplicity
 _atom_site_fract_x
 _atom_site_fract_y
 _atom_site_fract_z
 _atom_site_occupancy
  In  In0  1  0.01482866  0.16857361  0.11682306  1
  In  In1  1  -0.01471499  0.17800146  0.63332560  1
  In  In2  1  -0.00105038  0.49616284  0.12263485  1
  In  In3  1  -0.01016123  0.51027627  0.63298327  1
  In  In4  1  0.00548046  0.81080802  0.13956233  1
  In  In5  1  0.00680466  0.82524543  0.62784025  1
  In  In6  1  0.34984778  0.18322093  0.11473122  1
  In  In7  1  0.33477587  0.15515600  0.62216133  1
  In  In8  1  0.32346998  0.50630417  0.12740321  1
  In  In9  1  0.34754701  0.50386516  0.62973384  1
  In  In10  1  0.33164114  0.80980741  0.13159562  1
  In  In11  1  0.32305774  0.82553591  0.61829017  1
  In  In12  1  0.67173683  0.19260377  0.11546143  1
  In  In13  1  0.66772367  0.16998972  0.62414187  1
  In  In14  1  0.64190401  0.46520760  0.08407927  1
  In  In15  1  0.67389507  0.48807122  0.63628823  1
  In  In16  1  0.66587400  0.82447058  0.12819649  1
  In  In17  1  0.66011464  0.83528641  0.62890154  1
  In  In18  1  0.15585833  -0.00559976  0.38018411  1
  In  In19  1  0.16450524  0.01351678  0.87465808  1
  In  In20  1  0.17028578  0.33570336  0.36238150  1
  In  In21  1  0.15946013  0.34636315  0.88589002  1
  In  In22  1  0.16922745  0.68084747  0.36475730  1
  In  In23  1  0.16430713  0.66160002  0.87245880  1
  In  In24  1  0.50414105  -0.00636646  0.38243660  1
  In  In25  1  0.51217737  0.00247859  0.87109769  1
  In  In26  1  0.49713553  0.33197451  0.36485747  1
  In  In27  1  0.50974795  0.33762959  0.88706710  1
  In  In28  1  0.50312236  0.67114302  0.37686988  1
  In  In29  1  0.50177659  0.65922564  0.87466401  1
  In  In30  1  0.84552745  0.00736289  0.38344187  1
  In  In31  1  0.83154532  -0.00223808  0.86092370  1
  In  In32  1  0.83433080  0.33479989  0.37531866  1
  In  In33  1  0.83130950  0.33989315  0.87471007  1
  In  In34  1  0.82186398  0.65053680  0.37540606  1
  In  In35  1  0.82554391  0.65269531  0.86585389  1
  In  In36  1  -0.00854871  0.16693762  0.37696341  1
  In  In37  1  0.00213009  0.17719200  0.87008659  1
  In  In38  1  -0.00834357  0.49423894  0.36912866  1
  In  In39  1  -0.00043859  0.49899110  0.87373038  1
  In  In40  1  0.00822991  0.83284003  0.37630542  1
  In  In41  1  -0.00621200  0.82592009  0.86347540  1
  In  In42  1  0.33970616  0.17823098  0.36913931  1
  In  In43  1  0.33173879  0.17610810  0.88452089  1
  In  In44  1  0.33917879  0.50181965  0.35668278  1
  In  In45  1  0.33135715  0.51436522  0.89027801  1
  In  In46  1  0.33639871  0.82829365  0.37993967  1
  In  In47  1  0.33821279  0.81946349  0.87447708  1
  In  In48  1  0.66004248  0.17397176  0.38127857  1
  In  In49  1  0.66373975  0.16906729  0.87185307  1
  In  In50  1  0.67949054  0.50734036  0.37508760  1
  In  In51  1  0.66907337  0.50309462  0.88062339  1
  In  In52  1  0.65691844  0.80855339  0.38564082  1
  In  In53  1  0.66777681  0.83633305  0.86313104  1
  In  In54  1  0.15997679  0.00321024  0.12013795  1
  In  In55  1  0.17230733  -0.01441484  0.62576693  1
  In  In56  1  0.16732482  0.33604781  0.12366547  1
  In  In57  1  0.15958983  0.32203194  0.62479617  1
  In  In58  1  0.18378096  0.64750015  0.14260538  1
  In  In59  1  0.15902724  0.67243309  0.63138688  1
  In  In60  1  0.49032841  0.00491371  0.12303609  1
  In  In61  1  0.51079839  0.00829724  0.61950602  1
  In  In62  1  0.49852601  0.34159311  0.12931762  1
  In  In63  1  0.51781401  0.33979483  0.62459427  1
  In  In64  1  0.48988993  0.61753945  0.11172823  1
  In  In65  1  0.49257452  0.67128520  0.63383138  1
  In  In66  1  0.83073088  -0.00637511  0.12540781  1
  In  In67  1  0.81876039  0.01149229  0.63289325  1
  In  In68  1  0.81560710  0.35376677  0.13412578  1
  In  In69  1  0.83170349  0.33532467  0.62485844  1
  In  In70  1  0.83972465  0.65729885  0.12626211  1
  In  In71  1  0.83649632  0.65698091  0.62750164  1
  In  In72  1  0.16958627  0.83047657  0.00444199  1
  In  In73  1  -0.00294820  0.00102360  0.25300846  1
  In  In74  1  0.66265934  0.65483747  0.24657480  1
  In  In75  1  0.16627783  0.16183653  0.49379907  1
  In  In76  1  0.83176407  0.83590208  0.50482924  1
  In  In77  1  0.66741870  0.00195121  0.25270889  1
  In  In78  1  0.83751735  0.17773589  -0.00967573  1
  In  In79  1  0.51001967  0.50474664  0.49825283  1
  In  In80  1  0.33380590  0.33946700  0.75539553  1
  In  In81  1  0.16509411  0.50097621  0.49187622  1
  In  In82  1  0.33095975  0.00189346  0.25514081  1
  In  In83  1  0.50233447  0.83319436  -0.00025145  1
  In  In84  1  0.83811832  0.83056027  0.00447625  1
  In  In85  1  0.33422428  -0.00309598  0.75029623  1
  Cu  Cu86  1  0.67461349  0.33021256  0.50154511  1
  Cu  Cu87  1  0.34411174  0.32781140  0.48989752  1
  Cu  Cu88  1  0.17238033  0.17164878  0.24167159  1
  Cu  Cu89  1  0.83394817  0.49768750  0.24806485  1
  Cu  Cu90  1  0.16657512  0.49720929  0.75752712  1
  Cu  Cu91  1  0.16662370  0.82743853  0.74807453  1
  Cu  Cu92  1  0.49835305  0.81969763  0.25274915  1
  Cu  Cu93  1  0.33346777  0.33885296  0.00534377  1
  Cu  Cu94  1  0.66814401  0.00060732  0.50539244  1
  Cu  Cu95  1  -0.00748408  0.34130925  0.50025316  1
  Cu  Cu96  1  0.83490609  0.49682562  0.75324495  1
  Cu  Cu97  1  0.50067166  0.83299513  0.74946296  1
  Cu  Cu98  1  0.51177158  0.17507358  0.24599307  1
  Cu  Cu99  1  0.32711038  0.66786235  0.50028447  1
  Cu  Cu100  1  0.00155550  0.00314985  0.50633414  1
  Cu  Cu101  1  0.66751433  0.00773070  -0.00592826  1
  Cu  Cu102  1  0.83726741  0.83125115  0.74134894  1
  Cu  Cu103  1  0.00195878  0.33500490  -0.00006381  1
  Cu  Cu104  1  0.33199179  0.00485671  -0.00062755  1
  Cu  Cu105  1  0.50586523  0.50473015  0.75507606  1
  Cu  Cu106  1  0.00154527  -0.00282142  -0.00268541  1
  Cu  Cu107  1  0.50293859  0.17524163  0.74910707  1
  Cu  Cu108  1  0.15128588  0.17010608  0.75411897  1
  Cu  Cu109  1  0.83715234  0.17647384  0.24986778  1
  Cu  Cu110  1  0.34268708  -0.00540282  0.50099526  1
  Cu  Cu111  1  0.15541289  0.49945099  0.24574108  1
  Cu  Cu112  1  -0.00067726  0.66733519  0.50469693  1
  Cu  Cu113  1  0.82720708  0.17056717  0.75002403  1
  Cu  Cu114  1  0.00179054  0.65538834  -0.00133798  1
  Se  Se115  1  0.08795560  0.08310685  0.04455547  1
  Se  Se116  1  0.08274959  0.08377599  0.56638321  1
  Se  Se117  1  0.08604132  0.41865564  0.05304789  1
  Se  Se118  1  0.07901581  0.41530101  0.55918428  1
  Se  Se119  1  0.07849655  0.73770555  0.05917999  1
  Se  Se120  1  0.08732027  0.74988222  0.55298415  1
  Se  Se121  1  0.42132896  0.08678718  0.04817031  1
  Se  Se122  1  0.42074899  0.08546172  0.55073875  1
  Se  Se123  1  0.41166236  0.42318966  0.06139257  1
  Se  Se124  1  0.41446458  0.41013153  0.55530567  1
  Se  Se125  1  0.41666667  0.73863265  0.05778892  1
  Se  Se126  1  0.41501404  0.74423051  0.55568541  1
  Se  Se127  1  0.75110097  0.08289684  0.05580500  1
  Se  Se128  1  0.75153802  0.08802383  0.55327457  1
  Se  Se129  1  0.76646133  0.41283719  0.04165596  1
  Se  Se130  1  0.74989819  0.41998253  0.55554072  1
  Se  Se131  1  0.74357256  0.74047981  0.05699076  1
  Se  Se132  1  0.74502124  0.74409854  0.56256765  1
  Se  Se133  1  0.24742527  0.25029785  0.05300411  1
  Se  Se134  1  0.25904518  0.25548485  0.55291190  1
  Se  Se135  1  0.24390583  0.58792406  0.05518915  1
  Se  Se136  1  0.25348186  0.58284355  0.56116887  1
  Se  Se137  1  0.26493077  0.92014183  0.06345799  1
  Se  Se138  1  0.24983301  0.91577815  0.54840996  1
  Se  Se139  1  0.56786926  0.25185706  0.05543029  1
  Se  Se140  1  0.58415132  0.25094274  0.55241202  1
  Se  Se141  1  0.60315269  0.59770341  0.04566228  1
  Se  Se142  1  0.58723041  0.58326399  0.57203408  1
  Se  Se143  1  0.59454041  0.92710264  0.06004221  1
  Se  Se144  1  0.58348808  0.91378502  0.55340967  1
  Se  Se145  1  0.91909405  0.25868278  0.06186137  1
  Se  Se146  1  0.91542328  0.25276186  0.55392670  1
  Se  Se147  1  0.91473371  0.57723551  0.05201561  1
  Se  Se148  1  0.91615426  0.57998900  0.55233287  1
  Se  Se149  1  0.93391628  0.91738026  0.06444200  1
  Se  Se150  1  0.91956825  0.92524418  0.56726991  1
  Se  Se151  1  0.07936719  0.26362357  0.44108979  1
  Se  Se152  1  0.08245643  0.24741908  0.94690513  1
  Se  Se153  1  0.07466340  0.59267017  0.43588534  1
  Se  Se154  1  0.08726780  0.57770084  0.94331431  1
  Se  Se155  1  0.07900373  0.91541431  0.45301716  1
  Se  Se156  1  0.07900718  0.91336794  0.93745861  1
  Se  Se157  1  0.42971126  0.24488561  0.44131044  1
  Se  Se158  1  0.41719528  0.25671904  0.95025733  1
  Se  Se159  1  0.40400654  0.58294505  0.44128267  1
  Se  Se160  1  0.42669996  0.58894073  0.95276417  1
  Se  Se161  1  0.42282626  0.90767575  0.44814214  1
  Se  Se162  1  0.41050086  0.92483821  0.93755636  1
  Se  Se163  1  0.75625824  0.24735788  0.44550524  1
  Se  Se164  1  0.73437007  0.26416355  0.94381430  1
  Se  Se165  1  0.73744790  0.59189728  0.45282985  1
  Se  Se166  1  0.76089958  0.58118795  0.94672820  1
  Se  Se167  1  0.74133908  0.92139000  0.43851901  1
  Se  Se168  1  0.74898315  0.92247005  0.94042921  1
  Se  Se169  1  0.26415259  0.07426955  0.43622960  1
  Se  Se170  1  0.24733750  0.08667453  0.94705174  1
  Se  Se171  1  0.26167745  0.41108606  0.43587226  1
  Se  Se172  1  0.24979354  0.42166891  0.95189436  1
  Se  Se173  1  0.24422955  0.74977391  0.44567501  1
  Se  Se174  1  0.25783197  0.73858356  0.94630597  1
  Se  Se175  1  0.58537045  0.08124151  0.44725801  1
  Se  Se176  1  0.58077023  0.08888860  0.94418399  1
  Se  Se177  1  0.59260759  0.40796414  0.43878067  1
  Se  Se178  1  0.57550944  0.43634900  0.95241059  1
  Se  Se179  1  0.57585402  0.73703986  0.45779537  1
  Se  Se180  1  0.59528789  0.75159817  0.93815121  1
  Se  Se181  1  0.92034582  0.09017829  0.45543418  1
  Se  Se182  1  0.91970360  0.07348562  0.93693787  1
  Se  Se183  1  0.91079624  0.42410190  0.44585576  1
  Se  Se184  1  0.91886801  0.41548291  0.94427048  1
  Se  Se185  1  0.91691569  0.74487995  0.44162813  1
  Se  Se186  1  0.92357818  0.74130236  0.94049445  1
  Se  Se187  1  0.25645229  0.25195206  0.29727338  1
  Se  Se188  1  0.23964960  0.24761812  0.81063257  1
  Se  Se189  1  0.23922110  0.58094890  0.30150324  1
  Se  Se190  1  0.25410478  0.57881337  0.80767961  1
  Se  Se191  1  0.24029996  0.91100620  0.31128132  1
  Se  Se192  1  0.24286572  0.90794668  0.81225232  1
  Se  Se193  1  0.59458310  0.25441777  0.30247992  1
  Se  Se194  1  0.57881290  0.25763518  0.80825758  1
  Se  Se195  1  0.57094773  0.56988660  0.31005968  1
  Se  Se196  1  0.59297801  0.58742207  0.80581844  1
  Se  Se197  1  0.58019119  0.90171736  0.30931863  1
  Se  Se198  1  0.58436306  0.92221396  0.79685139  1
  Se  Se199  1  0.92222222  0.25448288  0.30540735  1
  Se  Se200  1  0.90983578  0.25284460  0.80555456  1
  Se  Se201  1  0.91183729  0.58442880  0.30299795  1
  Se  Se202  1  0.92295533  0.58270841  0.80083213  1
  Se  Se203  1  0.90593022  0.91102492  0.31110086  1
  Se  Se204  1  0.91906866  0.91625541  0.79598234  1
  Se  Se205  1  0.09450570  0.09507916  0.30748029  1
  Se  Se206  1  0.07317736  0.07914425  0.80367028  1
  Se  Se207  1  0.07659650  0.41338423  0.30078099  1
  Se  Se208  1  0.08188606  0.41108860  0.80524301  1
  Se  Se209  1  0.07179473  0.75032280  0.30017324  1
  Se  Se210  1  0.08376283  0.74322027  0.80144178  1
  Se  Se211  1  0.43541674  0.08855304  0.30601529  1
  Se  Se212  1  0.41861540  0.09596673  0.80814420  1
  Se  Se213  1  0.41566691  0.41016387  0.29492725  1
  Se  Se214  1  0.42200898  0.42688768  0.81667722  1
  Se  Se215  1  0.41168829  0.74315985  0.30783740  1
  Se  Se216  1  0.42215998  0.74681464  0.80385973  1
  Se  Se217  1  0.76150444  0.09119182  0.31043944  1
  Se  Se218  1  0.74320809  0.08541643  0.80173437  1
  Se  Se219  1  0.75126500  0.41759516  0.30558733  1
  Se  Se220  1  0.74568800  0.41923647  0.80628847  1
  Se  Se221  1  0.74782885  0.75125713  0.30855174  1
  Se  Se222  1  0.75658427  0.75242155  0.80124865  1
  Se  Se223  1  0.25227033  0.08925886  0.18421540  1
  Se  Se224  1  0.23788805  0.09220884  0.69597027  1
  Se  Se225  1  0.24477087  0.41767985  0.19642236  1
  Se  Se226  1  0.24220179  0.42231456  0.68830863  1
  Se  Se227  1  0.23544342  0.75948002  0.20303781  1
  Se  Se228  1  0.25481215  0.74677506  0.69686063  1
  Se  Se229  1  0.58509389  0.08983440  0.18550732  1
  Se  Se230  1  0.58228868  0.08883567  0.69487889  1
  Se  Se231  1  0.59563031  0.42712192  0.18346007  1
  Se  Se232  1  0.58400946  0.41288669  0.70556940  1
  Se  Se233  1  0.56832139  0.74198220  0.18543620  1
  Se  Se234  1  0.58572930  0.74732755  0.69954189  1
  Se  Se235  1  0.91089370  0.09230043  0.18778063  1
  Se  Se236  1  0.91265695  0.08466915  0.69974053  1
  Se  Se237  1  0.92095417  0.41355550  0.19671088  1
  Se  Se238  1  0.91645417  0.41414466  0.69651076  1
  Se  Se239  1  0.89708729  0.75474135  0.19753702  1
  Se  Se240  1  0.92071055  0.74323712  0.69339392  1
  Se  Se241  1  0.08201009  0.25099882  0.19268245  1
  Se  Se242  1  0.07462326  0.25783295  0.70017738  1
  Se  Se243  1  0.07044646  0.58514375  0.19597403  1
  Se  Se244  1  0.08672424  0.57988838  0.69849639  1
  Se  Se245  1  0.09204343  0.91401140  0.19453068  1
  Se  Se246  1  0.08523890  0.91458807  0.69674467  1
  Se  Se247  1  0.41800191  0.25177303  0.19755313  1
  Se  Se248  1  0.41730755  0.24877663  0.68836502  1
  Se  Se249  1  0.40343257  0.59429117  0.19631048  1
  Se  Se250  1  0.41563044  0.58475430  0.70533288  1
  Se  Se251  1  0.42253028  0.90829987  0.19441491  1
  Se  Se252  1  0.42115158  0.91190481  0.68585257  1
  Se  Se253  1  0.74668858  0.25387877  0.19849653  1
  Se  Se254  1  0.74642761  0.25458310  0.69431343  1
  Se  Se255  1  0.74839668  0.56656452  0.18440119  1
  Se  Se256  1  0.75201375  0.58188765  0.69993437  1
  Se  Se257  1  0.75682739  0.90493130  0.19707512  1
  Se  Se258  1  0.74640405  0.91570977  0.69686798  1
