# generated using pymatgen
data_In86Cu29Se144
_symmetry_space_group_name_H-M   'P 1'
_cell_length_a   17.57571692
_cell_length_b   17.57656045
_cell_length_c   23.42593535
_cell_angle_alpha   89.97804707
_cell_angle_beta   89.98950099
_cell_angle_gamma   90.00251891
_symmetry_Int_Tables_number   1
_chemical_formula_structural   In86Cu29Se144
_chemical_formula_sum   'In86 Cu29 Se144'
_cell_volume   7236.75453967
_cell_formula_units_Z   1
loop_
 _symmetry_equiv_pos_site_id
 _symmetry_equiv_pos_as_xyz
  1  'x, y, z'
loop_
 _atom_site_type_symbol
 _atom_site_label
 _atom_site_symmetry_multiplicity
 _atom_site_fract_x
 _atom_site_fract_y
 _atom_site_fract_z
 _atom_site_occupancy
  In  In0  1  -0.00061338  0.17538939  0.13614412  1
  In  In1  1  0.02522032  0.18286480  0.59821824  1
  In  In2  1  -0.00228827  0.50529914  0.13252237  1
  In  In3  1  -0.00857374  0.47905650  0.62448839  1
  In  In4  1  0.01770207  0.81884737  0.15175982  1
  In  In5  1  0.00405441  0.85429785  0.61691951  1
  In  In6  1  0.33765078  0.16374073  0.13677913  1
  In  In7  1  0.33902936  0.18277383  0.59883592  1
  In  In8  1  0.33220764  0.49849748  0.12168076  1
  In  In9  1  0.33464017  0.49989027  0.61917626  1
  In  In10  1  0.33878279  0.84372861  0.11484439  1
  In  In11  1  0.33261864  0.82224900  0.62608441  1
  In  In12  1  0.67598086  0.15510380  0.13409404  1
  In  In13  1  0.66721966  0.17939091  0.60593232  1
  In  In14  1  0.65746694  0.48956117  0.12532436  1
  In  In15  1  0.66032712  0.50422966  0.62065650  1
  In  In16  1  0.65975297  0.85058635  0.13291710  1
  In  In17  1  0.66819022  0.83365772  0.61209716  1
  In  In18  1  0.17441217  0.00090351  0.36340890  1
  In  In19  1  0.15966943  -0.00143155  0.88369771  1
  In  In20  1  0.17139084  0.33548052  0.38065475  1
  In  In21  1  0.16746754  0.33183322  0.86444988  1
  In  In22  1  0.15606263  0.66817219  0.36771933  1
  In  In23  1  0.19263100  0.66258132  0.88202455  1
  In  In24  1  0.50244326  -0.00240473  0.36797276  1
  In  In25  1  0.48870333  -0.00693163  0.87555219  1
  In  In26  1  0.49651950  0.32564122  0.38590980  1
  In  In27  1  0.49818253  0.34407493  0.87447252  1
  In  In28  1  0.49771856  0.67034652  0.37825105  1
  In  In29  1  0.49088742  0.66448340  0.88680615  1
  In  In30  1  0.83304177  0.00562503  0.37676314  1
  In  In31  1  0.84915613  0.00536296  0.88547401  1
  In  In32  1  0.81865856  0.31596263  0.36942645  1
  In  In33  1  0.84241660  0.32524486  0.88432487  1
  In  In34  1  0.84879295  0.66672430  0.36925650  1
  In  In35  1  0.81579470  0.66592976  0.87778421  1
  In  In36  1  -0.00702202  0.16322451  0.37679146  1
  In  In37  1  -0.00450013  0.16237783  0.87922394  1
  In  In38  1  0.01269783  0.50675221  0.37295663  1
  In  In39  1  0.00949367  0.48270339  0.87721299  1
  In  In40  1  0.00333972  0.82359169  0.36342748  1
  In  In41  1  0.00505829  0.84564172  0.88046086  1
  In  In42  1  0.33545647  0.17044169  0.37896118  1
  In  In43  1  0.32527398  0.16973532  0.87155286  1
  In  In44  1  0.34444392  0.48144946  0.39450481  1
  In  In45  1  0.33360863  0.50046100  0.86593461  1
  In  In46  1  0.33570357  0.84953967  0.36144974  1
  In  In47  1  0.35168239  0.81154361  0.90525286  1
  In  In48  1  0.66844254  0.16615449  0.37961367  1
  In  In49  1  0.67097043  0.18173554  0.87782547  1
  In  In50  1  0.66240367  0.47778198  0.37803118  1
  In  In51  1  0.65927848  0.50529581  0.88764797  1
  In  In52  1  0.65000079  0.85304061  0.37329308  1
  In  In53  1  0.65830390  0.81737137  0.87678924  1
  In  In54  1  0.18766067  -0.02423273  0.15816289  1
  In  In55  1  0.16318744  0.01783187  0.61534937  1
  In  In56  1  0.17559479  0.32984797  0.13766098  1
  In  In57  1  0.16483568  0.33339770  0.61356190  1
  In  In58  1  0.16035573  0.65864389  0.11949973  1
  In  In59  1  0.18662330  0.67280199  0.62867656  1
  In  In60  1  0.49565536  -0.00412172  0.13521347  1
  In  In61  1  0.49908601  0.00240528  0.61196019  1
  In  In62  1  0.49614325  0.33929707  0.13589218  1
  In  In63  1  0.48088296  0.32013523  0.59559275  1
  In  In64  1  0.49030419  0.66986772  0.11683538  1
  In  In65  1  0.48671315  0.65822007  0.61399627  1
  In  In66  1  0.83040035  0.00639846  0.13242688  1
  In  In67  1  0.86446810  0.01798500  0.59498588  1
  In  In68  1  0.83407901  0.33186085  0.12945476  1
  In  In69  1  0.84299788  0.33500916  0.62450931  1
  In  In70  1  0.84668863  0.66464226  0.12513416  1
  In  In71  1  0.82179584  0.66864795  0.62013224  1
  In  In72  1  0.33004464  0.66623593  0.25102972  1
  In  In73  1  0.50652428  0.16173476  0.01228959  1
  In  In74  1  0.16803745  0.49923779  0.00183984  1
  In  In75  1  0.00307417  0.66211861  0.75125276  1
  In  In76  1  0.82875998  0.83844997  0.00706692  1
  In  In77  1  0.67041211  0.66676108  0.24344017  1
  In  In78  1  0.00691628  0.00762490  0.74621017  1
  In  In79  1  0.32637993  -0.00205914  0.75220811  1
  In  In80  1  0.66413311  0.34149943  0.74270340  1
  In  In81  1  0.83157393  0.49922256  0.49864569  1
  In  In82  1  0.16379460  0.15715052  0.00440161  1
  In  In83  1  0.67245624  0.00255269  0.74228972  1
  In  In84  1  0.17251986  0.83633917  0.49378910  1
  In  In85  1  0.65696920  0.66139105  0.74361610  1
  Cu  Cu86  1  0.66339405  -0.00466368  0.49303017  1
  Cu  Cu87  1  -0.00337289  0.33389158  0.49195038  1
  Cu  Cu88  1  -0.00476742  0.66721085  0.00465538  1
  Cu  Cu89  1  0.48774044  0.49801439  0.74449947  1
  Cu  Cu90  1  0.66327179  0.00238137  0.00711644  1
  Cu  Cu91  1  -0.00191446  0.33180405  0.00605661  1
  Cu  Cu92  1  0.67384133  0.67603090  0.48996708  1
  Cu  Cu93  1  -0.00331470  0.00393421  0.01587201  1
  Cu  Cu94  1  0.83481645  0.83824007  0.73538383  1
  Cu  Cu95  1  0.84062799  0.49191098  0.25495200  1
  Cu  Cu96  1  0.17545554  0.82925105  0.75554434  1
  Cu  Cu97  1  0.17629606  0.49385479  0.25401687  1
  Cu  Cu98  1  0.00422911  0.67002587  0.49684296  1
  Cu  Cu99  1  0.67640398  0.33310504  0.00369038  1
  Cu  Cu100  1  0.33379489  0.66879358  0.49844356  1
  Cu  Cu101  1  0.84176066  0.16865519  0.75311362  1
  Cu  Cu102  1  0.49879125  0.17098814  0.25782759  1
  Cu  Cu103  1  0.49269445  0.17581562  0.73399010  1
  Cu  Cu104  1  0.17156525  0.17945038  0.73920799  1
  Cu  Cu105  1  0.33909950  0.33282931  0.00262990  1
  Cu  Cu106  1  0.50142641  0.49373629  0.25921994  1
  Cu  Cu107  1  0.33661660  0.00094926  0.48805404  1
  Cu  Cu108  1  0.16720305  0.49111184  0.74106428  1
  Cu  Cu109  1  0.82875949  0.83866153  0.25352857  1
  Cu  Cu110  1  0.49231237  0.82536031  0.75454855  1
  Cu  Cu111  1  0.83737539  0.48870254  0.75851413  1
  Cu  Cu112  1  0.83025316  0.16965109  0.25591160  1
  Cu  Cu113  1  0.66631329  0.66122159  0.00579383  1
  Cu  Cu114  1  0.16394598  0.17265915  0.26050895  1
  Se  Se115  1  0.08295367  0.07754895  0.07461712  1
  Se  Se116  1  0.05107496  0.05208341  0.55065460  1
  Se  Se117  1  0.08385133  0.40710447  0.06481586  1
  Se  Se118  1  0.07669028  0.41870329  0.54746870  1
  Se  Se119  1  0.07247115  0.75080491  0.06117103  1
  Se  Se120  1  0.08455703  0.74723619  0.56109854  1
  Se  Se121  1  0.40530160  0.07587869  0.06072310  1
  Se  Se122  1  0.42010683  0.08536756  0.54201211  1
  Se  Se123  1  0.42055950  0.41466336  0.05748815  1
  Se  Se124  1  0.43420108  0.44325203  0.54821451  1
  Se  Se125  1  0.41112667  0.75088190  0.04782830  1
  Se  Se126  1  0.41583812  0.75696857  0.54908190  1
  Se  Se127  1  0.75217209  0.08305723  0.05525355  1
  Se  Se128  1  0.74363204  0.07739232  0.55024500  1
  Se  Se129  1  0.75397399  0.41827967  0.05943458  1
  Se  Se130  1  0.74216717  0.40893933  0.55925528  1
  Se  Se131  1  0.74043576  0.74582941  0.06792872  1
  Se  Se132  1  0.75830172  0.75481106  0.54527301  1
  Se  Se133  1  0.25820431  0.25232020  0.06027711  1
  Se  Se134  1  0.21278302  0.21942537  0.55099326  1
  Se  Se135  1  0.26286574  0.59430836  0.05032643  1
  Se  Se136  1  0.24904281  0.58804797  0.55261483  1
  Se  Se137  1  0.23554646  0.92440843  0.06285817  1
  Se  Se138  1  0.26108493  0.92680752  0.55889073  1
  Se  Se139  1  0.59378974  0.25735493  0.06730883  1
  Se  Se140  1  0.58208836  0.25082476  0.53592117  1
  Se  Se141  1  0.58048359  0.58049123  0.05886364  1
  Se  Se142  1  0.59468252  0.59800022  0.55244530  1
  Se  Se143  1  0.57775771  0.92191345  0.05818362  1
  Se  Se144  1  0.57835707  0.91252136  0.54728967  1
  Se  Se145  1  0.91761752  0.24750992  0.05975634  1
  Se  Se146  1  0.91238680  0.25348349  0.54842351  1
  Se  Se147  1  0.91792473  0.57617176  0.05423871  1
  Se  Se148  1  0.92478986  0.59030358  0.55955330  1
  Se  Se149  1  0.92167428  0.91354859  0.07236807  1
  Se  Se150  1  0.90798667  0.89741499  0.54218800  1
  Se  Se151  1  0.08053337  0.24821583  0.44266618  1
  Se  Se152  1  0.08203380  0.25774400  0.94328055  1
  Se  Se153  1  0.08976870  0.58743969  0.44693243  1
  Se  Se154  1  0.07699782  0.59144447  0.94011156  1
  Se  Se155  1  0.08134878  0.91840299  0.43246213  1
  Se  Se156  1  0.07708544  0.92354747  0.95689572  1
  Se  Se157  1  0.39934987  0.25894335  0.45406218  1
  Se  Se158  1  0.41681676  0.24797650  0.94344690  1
  Se  Se159  1  0.42137048  0.58607774  0.44876989  1
  Se  Se160  1  0.41883886  0.56123058  0.94246995  1
  Se  Se161  1  0.41833111  0.91340043  0.43928857  1
  Se  Se162  1  0.42634409  0.91762315  0.95489447  1
  Se  Se163  1  0.74669485  0.25066530  0.45045627  1
  Se  Se164  1  0.75676885  0.24487312  0.95321874  1
  Se  Se165  1  0.74685548  0.58798398  0.43245307  1
  Se  Se166  1  0.75260664  0.57998998  0.95369199  1
  Se  Se167  1  0.75003394  0.91389086  0.44114143  1
  Se  Se168  1  0.74035288  0.92289995  0.93850505  1
  Se  Se169  1  0.24597662  0.08032725  0.44042250  1
  Se  Se170  1  0.26282581  0.07475689  0.94454341  1
  Se  Se171  1  0.23589436  0.42508809  0.45507767  1
  Se  Se172  1  0.25295860  0.40423037  0.94130666  1
  Se  Se173  1  0.25920842  0.74668569  0.43205503  1
  Se  Se174  1  0.22322881  0.77221027  0.94908434  1
  Se  Se175  1  0.57945718  0.07897184  0.44147130  1
  Se  Se176  1  0.58989715  0.07879934  0.93691897  1
  Se  Se177  1  0.57378584  0.42011252  0.45241592  1
  Se  Se178  1  0.58533321  0.40794399  0.94986959  1
  Se  Se179  1  0.58335872  0.75604632  0.44190162  1
  Se  Se180  1  0.58221505  0.74484236  0.95248577  1
  Se  Se181  1  0.89833335  0.09918426  0.44747645  1
  Se  Se182  1  0.92054344  0.08901765  0.95835330  1
  Se  Se183  1  0.91615653  0.41546563  0.43221899  1
  Se  Se184  1  0.91958300  0.41809730  0.95014534  1
  Se  Se185  1  0.92275138  0.75054131  0.44149637  1
  Se  Se186  1  0.91667770  0.74715351  0.94069362  1
  Se  Se187  1  0.25291257  0.25484065  0.30875007  1
  Se  Se188  1  0.25733962  0.25452484  0.79763470  1
  Se  Se189  1  0.25403809  0.57197444  0.31733807  1
  Se  Se190  1  0.24154902  0.57720000  0.80017327  1
  Se  Se191  1  0.23375865  0.90178350  0.29394351  1
  Se  Se192  1  0.24727571  0.91083861  0.81991381  1
  Se  Se193  1  0.58257985  0.25197882  0.31264966  1
  Se  Se194  1  0.57578454  0.24447094  0.80220605  1
  Se  Se195  1  0.58425354  0.58002953  0.31113448  1
  Se  Se196  1  0.57187549  0.57302176  0.80766309  1
  Se  Se197  1  0.58122007  0.92168429  0.29207656  1
  Se  Se198  1  0.58043248  0.90958725  0.80518306  1
  Se  Se199  1  0.91970234  0.25277806  0.30408994  1
  Se  Se200  1  0.92313257  0.25083438  0.80850390  1
  Se  Se201  1  0.92499505  0.58101638  0.30036783  1
  Se  Se202  1  0.90988691  0.57806967  0.81591040  1
  Se  Se203  1  0.91358898  0.91751158  0.30797156  1
  Se  Se204  1  0.91057280  0.91349119  0.80388065  1
  Se  Se205  1  0.07829866  0.08476703  0.30556370  1
  Se  Se206  1  0.09943999  0.09817853  0.80710323  1
  Se  Se207  1  0.08863386  0.41505425  0.30674024  1
  Se  Se208  1  0.08190129  0.41282277  0.79692739  1
  Se  Se209  1  0.08780575  0.74837509  0.29179668  1
  Se  Se210  1  0.08784433  0.75400453  0.81413071  1
  Se  Se211  1  0.41289412  0.08588980  0.30720812  1
  Se  Se212  1  0.42598403  0.09365525  0.80313246  1
  Se  Se213  1  0.41807024  0.41319627  0.31349031  1
  Se  Se214  1  0.41165070  0.40898923  0.79945865  1
  Se  Se215  1  0.42800489  0.75729329  0.30213444  1
  Se  Se216  1  0.41300219  0.74809263  0.81527137  1
  Se  Se217  1  0.74581830  0.08356881  0.30587923  1
  Se  Se218  1  0.76069751  0.08827880  0.81222456  1
  Se  Se219  1  0.74851818  0.41309669  0.30234731  1
  Se  Se220  1  0.74809823  0.41803513  0.81753119  1
  Se  Se221  1  0.74970053  0.75433967  0.31232340  1
  Se  Se222  1  0.75482426  0.75837803  0.79757652  1
  Se  Se223  1  0.25122597  0.09063032  0.20804423  1
  Se  Se224  1  0.25252328  0.09331361  0.68542165  1
  Se  Se225  1  0.26291865  0.41750813  0.19821981  1
  Se  Se226  1  0.24941376  0.41279362  0.68383365  1
  Se  Se227  1  0.24848705  0.74831606  0.18166702  1
  Se  Se228  1  0.26201923  0.74689774  0.70572600  1
  Se  Se229  1  0.57578277  0.08799771  0.19825969  1
  Se  Se230  1  0.57955375  0.09331705  0.68296067  1
  Se  Se231  1  0.58745508  0.41360370  0.20472825  1
  Se  Se232  1  0.56651398  0.41989768  0.68221356  1
  Se  Se233  1  0.57207161  0.75409087  0.19068885  1
  Se  Se234  1  0.57284669  0.75715203  0.68561587  1
  Se  Se235  1  0.91360861  0.08902922  0.20065327  1
  Se  Se236  1  0.91730912  0.09434546  0.68537130  1
  Se  Se237  1  0.92294716  0.41173216  0.19752101  1
  Se  Se238  1  0.91818934  0.40571237  0.70374362  1
  Se  Se239  1  0.90841060  0.74675309  0.20385732  1
  Se  Se240  1  0.91881026  0.75294643  0.68437337  1
  Se  Se241  1  0.08452870  0.25688770  0.20426859  1
  Se  Se242  1  0.07900911  0.25309159  0.68669078  1
  Se  Se243  1  0.09430680  0.57659129  0.19752063  1
  Se  Se244  1  0.08630236  0.57570096  0.68361082  1
  Se  Se245  1  0.05732005  0.94223534  0.20234856  1
  Se  Se246  1  0.10275210  0.91216580  0.69211389  1
  Se  Se247  1  0.41484773  0.25365234  0.20287178  1
  Se  Se248  1  0.40916259  0.25646354  0.68040412  1
  Se  Se249  1  0.42670279  0.57443911  0.19488034  1
  Se  Se250  1  0.40975869  0.58833340  0.69296530  1
  Se  Se251  1  0.39982998  0.92073424  0.19698254  1
  Se  Se252  1  0.42403652  0.91418748  0.69136257  1
  Se  Se253  1  0.74825897  0.25130083  0.19892083  1
  Se  Se254  1  0.75449247  0.24045606  0.69110053  1
  Se  Se255  1  0.76150517  0.57032220  0.19032671  1
  Se  Se256  1  0.76077605  0.56897185  0.69520077  1
  Se  Se257  1  0.74654311  0.92417288  0.20195351  1
  Se  Se258  1  0.75992243  0.92104251  0.67648387  1
