# generated using pymatgen
data_In86Cu29Se144
_symmetry_space_group_name_H-M   'P 1'
_cell_length_a   17.58190140
_cell_length_b   17.58162086
_cell_length_c   23.44160760
_cell_angle_alpha   89.97979183
_cell_angle_beta   89.99895148
_cell_angle_gamma   90.00724210
_symmetry_Int_Tables_number   1
_chemical_formula_structural   In86Cu29Se144
_chemical_formula_sum   'In86 Cu29 Se144'
_cell_volume   7246.22995282
_cell_formula_units_Z   1
loop_
 _symmetry_equiv_pos_site_id
 _symmetry_equiv_pos_as_xyz
  1  'x, y, z'
loop_
 _atom_site_type_symbol
 _atom_site_label
 _atom_site_symmetry_multiplicity
 _atom_site_fract_x
 _atom_site_fract_y
 _atom_site_fract_z
 _atom_site_occupancy
  In  In0  1  0.01068331  0.16736078  0.13067782  1
  In  In1  1  0.00304430  0.17087353  0.61695510  1
  In  In2  1  -0.00891362  0.49592717  0.12527791  1
  In  In3  1  0.00166561  0.50200069  0.62200337  1
  In  In4  1  0.00172848  0.83188379  0.11333976  1
  In  In5  1  0.00432758  0.82511920  0.62803802  1
  In  In6  1  0.33791928  0.16686938  0.13232409  1
  In  In7  1  0.35815715  0.17788642  0.59565252  1
  In  In8  1  0.34834484  0.48769628  0.13819533  1
  In  In9  1  0.32600484  0.48420047  0.61087474  1
  In  In10  1  0.33003429  0.83202613  0.12352182  1
  In  In11  1  0.33191909  0.84448881  0.61863455  1
  In  In12  1  0.65390033  0.18350280  0.13127291  1
  In  In13  1  0.66546674  0.16443562  0.62279695  1
  In  In14  1  0.66090836  0.49122876  0.11784954  1
  In  In15  1  0.67172015  0.50462288  0.62246262  1
  In  In16  1  0.65879571  0.82909847  0.11144600  1
  In  In17  1  0.67338215  0.82510364  0.64187736  1
  In  In18  1  0.18314344  0.00287198  0.38755700  1
  In  In19  1  0.15918172  -0.00376944  0.87549937  1
  In  In20  1  0.17244493  0.33788582  0.37413925  1
  In  In21  1  0.17620278  0.32513568  0.87364455  1
  In  In22  1  0.17477029  0.65205465  0.38366082  1
  In  In23  1  0.16869365  0.67413409  0.86920721  1
  In  In24  1  0.48434341  0.02332479  0.38169263  1
  In  In25  1  0.50360172  -0.00697923  0.88788611  1
  In  In26  1  0.50027497  0.33275633  0.37366102  1
  In  In27  1  0.48644488  0.34044342  0.88900934  1
  In  In28  1  0.48406143  0.66752724  0.37159560  1
  In  In29  1  0.50802690  0.66282035  0.88263879  1
  In  In30  1  0.84481150  0.00410098  0.37438540  1
  In  In31  1  0.81525632  0.00445913  0.87153355  1
  In  In32  1  0.83011847  0.33285754  0.37853520  1
  In  In33  1  0.83916879  0.34030549  0.87668514  1
  In  In34  1  0.82175654  0.66045034  0.37492444  1
  In  In35  1  0.83363033  0.66184229  0.87086644  1
  In  In36  1  -0.00665155  0.17426622  0.38208336  1
  In  In37  1  0.00343229  0.17520399  0.87184811  1
  In  In38  1  0.01126529  0.48481456  0.38700320  1
  In  In39  1  -0.01485688  0.50156258  0.87206310  1
  In  In40  1  0.00970320  0.84831892  0.37208292  1
  In  In41  1  0.00895256  0.81753095  0.87719151  1
  In  In42  1  0.33263819  0.17930017  0.37250024  1
  In  In43  1  0.33717965  0.17758587  0.87551390  1
  In  In44  1  0.33365049  0.49600323  0.37694006  1
  In  In45  1  0.34447966  0.49749312  0.87711429  1
  In  In46  1  0.32000976  0.82713935  0.36674034  1
  In  In47  1  0.33117602  0.83894955  0.89218884  1
  In  In48  1  0.64550884  0.18205374  0.38800041  1
  In  In49  1  0.66162432  0.15457641  0.86500772  1
  In  In50  1  0.67899587  0.49044388  0.38633618  1
  In  In51  1  0.65989749  0.50457753  0.87613890  1
  In  In52  1  0.66115846  0.82894738  0.37048492  1
  In  In53  1  0.66730163  0.83671576  0.87915423  1
  In  In54  1  0.19967191  -0.00331751  0.12889503  1
  In  In55  1  0.18824388  0.01065914  0.60404055  1
  In  In56  1  0.17619176  0.31270448  0.15305329  1
  In  In57  1  0.18436638  0.33490420  0.60428878  1
  In  In58  1  0.16927723  0.67866415  0.12509587  1
  In  In59  1  0.15802884  0.66127361  0.61905076  1
  In  In60  1  0.47404306  -0.00821160  0.10734252  1
  In  In61  1  0.50851209  0.00767510  0.62494463  1
  In  In62  1  0.49758504  0.33978439  0.12463181  1
  In  In63  1  0.49202736  0.33107718  0.61390517  1
  In  In64  1  0.49142251  0.65765248  0.11990836  1
  In  In65  1  0.51412972  0.65948616  0.63229661  1
  In  In66  1  0.83936530  -0.00393651  0.11769335  1
  In  In67  1  0.82311901  0.00239620  0.63137976  1
  In  In68  1  0.82604765  0.33669325  0.13347633  1
  In  In69  1  0.83598404  0.33717527  0.61798294  1
  In  In70  1  0.82609470  0.65806689  0.11135374  1
  In  In71  1  0.84067760  0.65610385  0.64434179  1
  In  In72  1  0.65863734  0.00733202  0.25235599  1
  In  In73  1  0.16807187  0.49631852  0.00666635  1
  In  In74  1  0.49793026  0.83149232  0.49973431  1
  In  In75  1  -0.00318494  0.33869836  0.74360413  1
  In  In76  1  0.66805748  0.33472113  0.74984418  1
  In  In77  1  0.00211565  -0.00510355  0.74327323  1
  In  In78  1  0.65501404  0.65945860  0.23670307  1
  In  In79  1  0.00828114  0.00743847  0.25041460  1
  In  In80  1  0.83046331  0.16619655  -0.00656252  1
  In  In81  1  0.17767669  0.15924006  0.01474325  1
  In  In82  1  0.33661622  0.00385897  0.74455755  1
  In  In83  1  0.83833317  0.83125751  0.50537504  1
  In  In84  1  0.00363184  0.66085493  0.25091230  1
  In  In85  1  0.33815888  0.66381296  0.75368836  1
  Cu  Cu86  1  0.66396056  0.33002864  0.50087717  1
  Cu  Cu87  1  0.49581876  0.49216132  0.75463557  1
  Cu  Cu88  1  -0.00291298  0.66111077  -0.00297640  1
  Cu  Cu89  1  0.67118605  0.67290540  -0.00629023  1
  Cu  Cu90  1  0.67306539  -0.00227560  0.50294783  1
  Cu  Cu91  1  0.48489514  0.84643136  0.24762444  1
  Cu  Cu92  1  0.66819811  0.65613089  0.50656050  1
  Cu  Cu93  1  0.50742176  0.83508108  0.76158554  1
  Cu  Cu94  1  0.00283561  0.33344482  0.00507060  1
  Cu  Cu95  1  0.16690569  0.49108028  0.73770950  1
  Cu  Cu96  1  0.16796327  0.83225243  0.74728199  1
  Cu  Cu97  1  -0.00281682  0.33877255  0.49899442  1
  Cu  Cu98  1  0.00383673  0.00366748  0.49720320  1
  Cu  Cu99  1  0.82810962  0.17225673  0.25642966  1
  Cu  Cu100  1  0.17338787  0.83642457  0.25010648  1
  Cu  Cu101  1  0.17217579  0.49970152  0.25931914  1
  Cu  Cu102  1  0.00066164  -0.01172330  -0.00269280  1
  Cu  Cu103  1  0.33500110  0.66674847  0.00144717  1
  Cu  Cu104  1  0.83591940  0.48835034  0.25434496  1
  Cu  Cu105  1  0.49702729  0.17084596  0.74290152  1
  Cu  Cu106  1  0.33422158  0.66143290  0.49849136  1
  Cu  Cu107  1  0.17642777  0.17299401  0.74357119  1
  Cu  Cu108  1  0.82967268  0.82966612  0.23583250  1
  Cu  Cu109  1  0.66372702  0.33782568  0.00232147  1
  Cu  Cu110  1  0.50521430  0.49731864  0.25167063  1
  Cu  Cu111  1  0.83134469  0.83448966  0.75789818  1
  Cu  Cu112  1  0.66414220  0.00509913  -0.00173138  1
  Cu  Cu113  1  0.49579420  0.17050011  0.25274394  1
  Cu  Cu114  1  -0.00607034  0.67094750  0.50378746  1
  Se  Se115  1  0.07642490  0.06649775  0.06273888  1
  Se  Se116  1  0.08624505  0.08873187  0.54922955  1
  Se  Se117  1  0.08592795  0.40260360  0.06942445  1
  Se  Se118  1  0.08312608  0.41946462  0.55291430  1
  Se  Se119  1  0.08294028  0.74295196  0.04922904  1
  Se  Se120  1  0.08269006  0.75375194  0.55152607  1
  Se  Se121  1  0.41106410  0.10004377  0.05040346  1
  Se  Se122  1  0.40205860  0.04764564  0.55728340  1
  Se  Se123  1  0.42666312  0.43281105  0.05587173  1
  Se  Se124  1  0.41081756  0.40832064  0.54213233  1
  Se  Se125  1  0.41776059  0.75173934  0.05467687  1
  Se  Se126  1  0.41414933  0.73729429  0.56359959  1
  Se  Se127  1  0.74053092  0.08529737  0.06249105  1
  Se  Se128  1  0.75432793  0.08335090  0.55500333  1
  Se  Se129  1  0.75588674  0.41347964  0.05417753  1
  Se  Se130  1  0.74656620  0.41649298  0.55299775  1
  Se  Se131  1  0.75512629  0.75580320  0.04801498  1
  Se  Se132  1  0.74716275  0.74241821  0.56390692  1
  Se  Se133  1  0.25628518  0.26634903  0.06421947  1
  Se  Se134  1  0.24363026  0.23094847  0.53840770  1
  Se  Se135  1  0.25942755  0.58604271  0.06526597  1
  Se  Se136  1  0.24681553  0.58290252  0.55304609  1
  Se  Se137  1  0.24099819  0.90469849  0.05223193  1
  Se  Se138  1  0.24723374  0.90464389  0.54262821  1
  Se  Se139  1  0.57922150  0.25445891  0.05345420  1
  Se  Se140  1  0.58235127  0.24445267  0.55375727  1
  Se  Se141  1  0.59307357  0.59276497  0.05558269  1
  Se  Se142  1  0.57674470  0.57642623  0.55400924  1
  Se  Se143  1  0.57865647  0.92087556  0.04910647  1
  Se  Se144  1  0.59789376  0.91094071  0.56198907  1
  Se  Se145  1  0.92014203  0.24851823  0.06033116  1
  Se  Se146  1  0.91574713  0.25137458  0.55072564  1
  Se  Se147  1  0.91719957  0.57499625  0.04993440  1
  Se  Se148  1  0.91264616  0.59078640  0.56060177  1
  Se  Se149  1  0.91030551  0.90902732  0.04714083  1
  Se  Se150  1  0.92591735  0.92668322  0.56312371  1
  Se  Se151  1  0.08127659  0.26002121  0.44331185  1
  Se  Se152  1  0.08443899  0.25080726  0.94850580  1
  Se  Se153  1  0.07670300  0.58674136  0.45021543  1
  Se  Se154  1  0.08315007  0.58251789  0.93849205  1
  Se  Se155  1  0.08804202  0.91818685  0.44771448  1
  Se  Se156  1  0.08692253  0.90814461  0.94440466  1
  Se  Se157  1  0.44182785  0.22784962  0.43839072  1
  Se  Se158  1  0.41866862  0.24112262  0.95299839  1
  Se  Se159  1  0.41975092  0.58106102  0.44574439  1
  Se  Se160  1  0.41750673  0.58301552  0.94788175  1
  Se  Se161  1  0.40895350  0.91469057  0.43666002  1
  Se  Se162  1  0.40746535  0.92887787  0.95511688  1
  Se  Se163  1  0.75039926  0.24704762  0.44884997  1
  Se  Se164  1  0.73830845  0.25806310  0.93627326  1
  Se  Se165  1  0.75793365  0.58029178  0.45338145  1
  Se  Se166  1  0.74994104  0.58266238  0.94286827  1
  Se  Se167  1  0.74617236  0.91670031  0.43883640  1
  Se  Se168  1  0.75077343  0.92195290  0.94845364  1
  Se  Se169  1  0.24713434  0.10782060  0.44888134  1
  Se  Se170  1  0.25245868  0.07891149  0.93770639  1
  Se  Se171  1  0.23608656  0.43255192  0.44486938  1
  Se  Se172  1  0.25793412  0.40808440  0.94499226  1
  Se  Se173  1  0.25254660  0.74739117  0.44578437  1
  Se  Se174  1  0.24610068  0.74302837  0.94739795  1
  Se  Se175  1  0.58369597  0.07772471  0.45249426  1
  Se  Se176  1  0.58425066  0.09191706  0.94605121  1
  Se  Se177  1  0.58183451  0.41442482  0.44663129  1
  Se  Se178  1  0.58147741  0.42206721  0.94766347  1
  Se  Se179  1  0.59221014  0.73688212  0.44276722  1
  Se  Se180  1  0.58069959  0.75696277  0.94823796  1
  Se  Se181  1  0.91305548  0.08448907  0.44996692  1
  Se  Se182  1  0.92799943  0.07576162  0.93729903  1
  Se  Se183  1  0.90719495  0.42072907  0.44928268  1
  Se  Se184  1  0.92157644  0.41487826  0.94918124  1
  Se  Se185  1  0.92280106  0.74791095  0.43379794  1
  Se  Se186  1  0.91509479  0.74502020  0.94280790  1
  Se  Se187  1  0.25527980  0.26270387  0.30162737  1
  Se  Se188  1  0.25850662  0.25315190  0.79973807  1
  Se  Se189  1  0.25644992  0.58695854  0.30610550  1
  Se  Se190  1  0.24266860  0.56833165  0.80632759  1
  Se  Se191  1  0.24808215  0.92718018  0.30428776  1
  Se  Se192  1  0.24894124  0.91069908  0.80718705  1
  Se  Se193  1  0.58544494  0.25091273  0.30214978  1
  Se  Se194  1  0.57086191  0.25125475  0.80873470  1
  Se  Se195  1  0.58316740  0.57852999  0.31390292  1
  Se  Se196  1  0.57512629  0.58147211  0.80463998  1
  Se  Se197  1  0.56685658  0.91658351  0.31270129  1
  Se  Se198  1  0.58605760  0.92532256  0.81085092  1
  Se  Se199  1  0.91470480  0.25252586  0.30809758  1
  Se  Se200  1  0.90758321  0.24449511  0.80396093  1
  Se  Se201  1  0.91306936  0.57369567  0.31270207  1
  Se  Se202  1  0.92068484  0.58815580  0.79964968  1
  Se  Se203  1  0.90803044  0.90809343  0.29860607  1
  Se  Se204  1  0.91737636  0.91448134  0.81424438  1
  Se  Se205  1  0.08915216  0.08775204  0.31992103  1
  Se  Se206  1  0.09393595  0.09408145  0.80135660  1
  Se  Se207  1  0.08073951  0.41764705  0.30478753  1
  Se  Se208  1  0.09054550  0.41980738  0.80981747  1
  Se  Se209  1  0.09250187  0.75457921  0.30935412  1
  Se  Se210  1  0.08378974  0.74699847  0.79660305  1
  Se  Se211  1  0.40810341  0.08687160  0.30111043  1
  Se  Se212  1  0.42525457  0.08788445  0.80882820  1
  Se  Se213  1  0.41862149  0.41787588  0.30576309  1
  Se  Se214  1  0.41304443  0.40753077  0.80556842  1
  Se  Se215  1  0.41235424  0.75235807  0.29951694  1
  Se  Se216  1  0.41804999  0.76012193  0.81673726  1
  Se  Se217  1  0.74926641  0.09084017  0.31636191  1
  Se  Se218  1  0.75703864  0.09233974  0.79675914  1
  Se  Se219  1  0.74509288  0.41255318  0.30667473  1
  Se  Se220  1  0.75741708  0.42706550  0.80787008  1
  Se  Se221  1  0.75100611  0.75177639  0.29802806  1
  Se  Se222  1  0.74594019  0.75178393  0.80928512  1
  Se  Se223  1  0.22419908  0.11154503  0.19132330  1
  Se  Se224  1  0.25630331  0.09694934  0.68162586  1
  Se  Se225  1  0.25523344  0.41593891  0.20566138  1
  Se  Se226  1  0.25103002  0.40739370  0.68793513  1
  Se  Se227  1  0.25370045  0.74889318  0.19839010  1
  Se  Se228  1  0.25172629  0.75267710  0.68878318  1
  Se  Se229  1  0.56611365  0.08542220  0.18749402  1
  Se  Se230  1  0.58646899  0.08601657  0.69788962  1
  Se  Se231  1  0.58767796  0.41630537  0.19539574  1
  Se  Se232  1  0.57381834  0.41792095  0.68825418  1
  Se  Se233  1  0.56841794  0.76509730  0.18963078  1
  Se  Se234  1  0.58232530  0.74596778  0.70613564  1
  Se  Se235  1  0.90266970  0.08934095  0.19381927  1
  Se  Se236  1  0.91587936  0.09396603  0.69125112  1
  Se  Se237  1  0.92152695  0.41042114  0.19907215  1
  Se  Se238  1  0.90233206  0.43114659  0.69251658  1
  Se  Se239  1  0.91343747  0.74605571  0.18435754  1
  Se  Se240  1  0.91726842  0.75810522  0.70105494  1
  Se  Se241  1  0.06674525  0.25044142  0.20910921  1
  Se  Se242  1  0.09339227  0.25285446  0.68589188  1
  Se  Se243  1  0.09504727  0.57324108  0.19025086  1
  Se  Se244  1  0.08329890  0.58194553  0.69442532  1
  Se  Se245  1  0.08837173  0.91002863  0.18824469  1
  Se  Se246  1  0.10274347  0.91944117  0.68262597  1
  Se  Se247  1  0.41827772  0.25715286  0.19657082  1
  Se  Se248  1  0.41323637  0.24630336  0.68472986  1
  Se  Se249  1  0.42233652  0.58613018  0.20176485  1
  Se  Se250  1  0.41635058  0.56927486  0.68971472  1
  Se  Se251  1  0.40390495  0.92748243  0.19186486  1
  Se  Se252  1  0.43026111  0.90587943  0.69286284  1
  Se  Se253  1  0.74427300  0.25233324  0.20136585  1
  Se  Se254  1  0.75804301  0.24778098  0.68917586  1
  Se  Se255  1  0.76016999  0.57100353  0.19120146  1
  Se  Se256  1  0.72940359  0.59449441  0.69799264  1
  Se  Se257  1  0.74499914  0.91532084  0.18659539  1
  Se  Se258  1  0.74993536  0.91995419  0.70470504  1
