# generated using pymatgen
data_In86Cu29Se144
_symmetry_space_group_name_H-M   'P 1'
_cell_length_a   17.58564495
_cell_length_b   17.57937164
_cell_length_c   23.44117284
_cell_angle_alpha   89.99417196
_cell_angle_beta   90.00877065
_cell_angle_gamma   89.98696168
_symmetry_Int_Tables_number   1
_chemical_formula_structural   In86Cu29Se144
_chemical_formula_sum   'In86 Cu29 Se144'
_cell_volume   7246.71141022
_cell_formula_units_Z   1
loop_
 _symmetry_equiv_pos_site_id
 _symmetry_equiv_pos_as_xyz
  1  'x, y, z'
loop_
 _atom_site_type_symbol
 _atom_site_label
 _atom_site_symmetry_multiplicity
 _atom_site_fract_x
 _atom_site_fract_y
 _atom_site_fract_z
 _atom_site_occupancy
  In  In0  1  0.00345632  0.16477571  0.12438940  1
  In  In1  1  -0.01126970  0.16969289  0.62311382  1
  In  In2  1  0.01007128  0.49233135  0.13052089  1
  In  In3  1  0.02015891  0.50132233  0.61675024  1
  In  In4  1  0.00112253  0.82938433  0.13042036  1
  In  In5  1  -0.00211693  0.82647069  0.61411683  1
  In  In6  1  0.32015054  0.17697281  0.12985722  1
  In  In7  1  0.34763979  0.16688184  0.62683197  1
  In  In8  1  0.33003021  0.50871856  0.12719350  1
  In  In9  1  0.33034265  0.51097005  0.62813930  1
  In  In10  1  0.32354944  0.84736429  0.14492634  1
  In  In11  1  0.32310576  0.81816882  0.61603932  1
  In  In12  1  0.68077642  0.17153472  0.11891167  1
  In  In13  1  0.66450898  0.16716561  0.63646132  1
  In  In14  1  0.64968094  0.50170576  0.12154633  1
  In  In15  1  0.65893872  0.50584649  0.63328160  1
  In  In16  1  0.67537064  0.82348871  0.12256311  1
  In  In17  1  0.67096066  0.83405469  0.62320415  1
  In  In18  1  0.15422581  -0.01263054  0.36365655  1
  In  In19  1  0.16149802  -0.00044331  0.88613126  1
  In  In20  1  0.16649482  0.33780593  0.36853653  1
  In  In21  1  0.17125295  0.33217981  0.88392765  1
  In  In22  1  0.16430236  0.66298413  0.37149732  1
  In  In23  1  0.17183907  0.65994817  0.88777430  1
  In  In24  1  0.48397471  -0.01721677  0.36531700  1
  In  In25  1  0.50203365  -0.01528986  0.87322000  1
  In  In26  1  0.50215086  0.33968852  0.35947390  1
  In  In27  1  0.50516761  0.34566859  0.87549146  1
  In  In28  1  0.49932190  0.68253641  0.36935798  1
  In  In29  1  0.49195974  0.66041425  0.86931591  1
  In  In30  1  0.83596493  -0.01938943  0.37105492  1
  In  In31  1  0.83125024  0.00045616  0.88059159  1
  In  In32  1  0.83533264  0.33750255  0.36393487  1
  In  In33  1  0.81866741  0.33395503  0.87980773  1
  In  In34  1  0.83914394  0.66851965  0.37186957  1
  In  In35  1  0.82808867  0.68607902  0.87564614  1
  In  In36  1  0.00529437  0.16949145  0.36278978  1
  In  In37  1  -0.00005711  0.16366738  0.88738249  1
  In  In38  1  0.00329269  0.50912273  0.36472890  1
  In  In39  1  0.01499457  0.51308394  0.88376495  1
  In  In40  1  -0.00043023  0.83195815  0.37025469  1
  In  In41  1  -0.00626445  0.83038582  0.89001230  1
  In  In42  1  0.33385788  0.16777307  0.36445858  1
  In  In43  1  0.31647505  0.17379470  0.88196991  1
  In  In44  1  0.32426333  0.48752815  0.36360866  1
  In  In45  1  0.33459391  0.50422818  0.87982589  1
  In  In46  1  0.32933971  0.82066728  0.37000586  1
  In  In47  1  0.33893500  0.82153446  0.87589874  1
  In  In48  1  0.65720928  0.16935882  0.37404036  1
  In  In49  1  0.67219272  0.17243673  0.87605154  1
  In  In50  1  0.67484732  0.50303205  0.37233374  1
  In  In51  1  0.65667088  0.49155969  0.87020941  1
  In  In52  1  0.66869897  0.82180005  0.38952075  1
  In  In53  1  0.67850365  0.83967136  0.85856707  1
  In  In54  1  0.16420554  -0.00320580  0.12884688  1
  In  In55  1  0.17492503  -0.00564587  0.62095512  1
  In  In56  1  0.16633309  0.33496361  0.12298267  1
  In  In57  1  0.17251661  0.35331753  0.62093785  1
  In  In58  1  0.16294002  0.66928574  0.12667572  1
  In  In59  1  0.17466825  0.67088635  0.61908267  1
  In  In60  1  0.48769571  -0.01170481  0.13171446  1
  In  In61  1  0.51364505  -0.00006094  0.62613893  1
  In  In62  1  0.47787127  0.36144824  0.14325855  1
  In  In63  1  0.49840049  0.33447565  0.63412789  1
  In  In64  1  0.49537014  0.65496891  0.12943743  1
  In  In65  1  0.49771362  0.67089462  0.62433829  1
  In  In66  1  0.83960825  0.00503122  0.12064581  1
  In  In67  1  0.83102222  -0.01385233  0.62460516  1
  In  In68  1  0.84510337  0.32676809  0.13062611  1
  In  In69  1  0.83047035  0.32806679  0.62716960  1
  In  In70  1  0.84004094  0.68407695  0.12176172  1
  In  In71  1  0.82171839  0.67695339  0.62804569  1
  In  In72  1  0.50102639  0.82258561  0.00261309  1
  In  In73  1  0.83885566  0.50161177  0.00016845  1
  In  In74  1  0.49536915  0.50653258  0.50204732  1
  In  In75  1  0.16942930  0.16282592  0.48734053  1
  In  In76  1  -0.00571276  0.66983681  0.75568421  1
  In  In77  1  0.50531925  0.17259764  0.00417224  1
  In  In78  1  0.34093765  -0.00244464  0.75252669  1
  In  In79  1  0.00059361  -0.00409694  0.76116832  1
  In  In80  1  0.49928362  0.15850185  0.49780169  1
  In  In81  1  0.83760619  0.16622196  0.50368925  1
  In  In82  1  -0.00201839  0.33610423  0.74663679  1
  In  In83  1  0.66468444  0.66421708  0.25197657  1
  In  In84  1  0.83615708  0.51061543  0.49299008  1
  In  In85  1  0.66995725  0.00197894  0.24932188  1
  Cu  Cu86  1  0.66665610  0.66748005  -0.00130500  1
  Cu  Cu87  1  0.33030030  -0.01991278  0.49344983  1
  Cu  Cu88  1  0.17718743  0.50438854  0.75394566  1
  Cu  Cu89  1  0.16900192  0.16768176  0.24289198  1
  Cu  Cu90  1  0.00430764  -0.00233282  0.49277124  1
  Cu  Cu91  1  0.66484108  0.33443719  0.00083803  1
  Cu  Cu92  1  0.00337498  0.66659520  0.49185843  1
  Cu  Cu93  1  0.32436418  0.00053333  0.00845477  1
  Cu  Cu94  1  0.17355740  0.18006313  0.75242926  1
  Cu  Cu95  1  0.66778691  0.33762774  0.50164655  1
  Cu  Cu96  1  0.32844342  0.33342915  0.49314033  1
  Cu  Cu97  1  0.50469801  0.17016671  0.24725775  1
  Cu  Cu98  1  0.82787168  0.16629621  0.75525342  1
  Cu  Cu99  1  0.16692789  0.82853753  0.74896326  1
  Cu  Cu100  1  0.83774604  0.16695280  0.24431781  1
  Cu  Cu101  1  0.49847950  0.49977117  0.75095354  1
  Cu  Cu102  1  0.82919710  0.49937165  0.75237589  1
  Cu  Cu103  1  0.67316397  -0.00556198  -0.00195205  1
  Cu  Cu104  1  0.50410193  0.82795052  0.74590971  1
  Cu  Cu105  1  0.16655755  0.50080429  0.24609645  1
  Cu  Cu106  1  0.16431720  0.82735930  0.24937771  1
  Cu  Cu107  1  0.00216496  0.32971464  0.00700311  1
  Cu  Cu108  1  0.83075147  0.50143443  0.24594589  1
  Cu  Cu109  1  0.66601636  -0.01104357  0.50024929  1
  Cu  Cu110  1  0.00207811  -0.00517931  0.00835571  1
  Cu  Cu111  1  0.49826228  0.17512417  0.75710517  1
  Cu  Cu112  1  0.33123740  0.34258487  0.00770146  1
  Cu  Cu113  1  0.32795636  0.66929098  0.00423915  1
  Cu  Cu114  1  0.32560252  0.65939223  0.49438125  1
  Se  Se115  1  0.08732371  0.08141973  0.05640934  1
  Se  Se116  1  0.07691710  0.07931574  0.55797720  1
  Se  Se117  1  0.08543401  0.41890208  0.05237387  1
  Se  Se118  1  0.08414812  0.41099437  0.54628769  1
  Se  Se119  1  0.09436309  0.76422668  0.05924814  1
  Se  Se120  1  0.08675227  0.74737726  0.54992711  1
  Se  Se121  1  0.41244202  0.08028095  0.06169747  1
  Se  Se122  1  0.40595737  0.06473648  0.55488022  1
  Se  Se123  1  0.41687616  0.42691877  0.05630174  1
  Se  Se124  1  0.40966826  0.40728593  0.55849981  1
  Se  Se125  1  0.40560962  0.74890937  0.06735707  1
  Se  Se126  1  0.41129241  0.73939097  0.54946758  1
  Se  Se127  1  0.75265194  0.08234063  0.04985621  1
  Se  Se128  1  0.73752376  0.08075084  0.55844330  1
  Se  Se129  1  0.74912973  0.41299843  0.06153703  1
  Se  Se130  1  0.74720489  0.41880124  0.55925558  1
  Se  Se131  1  0.75332097  0.75159795  0.04613941  1
  Se  Se132  1  0.75902280  0.75985611  0.55244683  1
  Se  Se133  1  0.24795896  0.25108333  0.05168377  1
  Se  Se134  1  0.25752653  0.24719001  0.55630317  1
  Se  Se135  1  0.24475086  0.58453020  0.05596477  1
  Se  Se136  1  0.24580618  0.57580993  0.55135129  1
  Se  Se137  1  0.24951106  0.91089179  0.06164729  1
  Se  Se138  1  0.24200919  0.90644615  0.54939176  1
  Se  Se139  1  0.58270897  0.26604529  0.06824299  1
  Se  Se140  1  0.58693841  0.25418122  0.55894496  1
  Se  Se141  1  0.57813975  0.58961204  0.05028502  1
  Se  Se142  1  0.59406638  0.59213753  0.55538591  1
  Se  Se143  1  0.58875395  0.92247502  0.05993559  1
  Se  Se144  1  0.57873270  0.91136484  0.55375119  1
  Se  Se145  1  0.91552686  0.24545635  0.05469526  1
  Se  Se146  1  0.92793787  0.26903171  0.55216131  1
  Se  Se147  1  0.92547049  0.58602233  0.06367133  1
  Se  Se148  1  0.92523457  0.59407613  0.56130093  1
  Se  Se149  1  0.91639896  0.91028938  0.05774643  1
  Se  Se150  1  0.91965528  0.92095419  0.55149774  1
  Se  Se151  1  0.07442669  0.25668372  0.43937908  1
  Se  Se152  1  0.08614413  0.24869659  0.95010569  1
  Se  Se153  1  0.08359373  0.57788667  0.44256899  1
  Se  Se154  1  0.08372835  0.59020717  0.95921848  1
  Se  Se155  1  0.08550952  0.91092974  0.44281174  1
  Se  Se156  1  0.08412823  0.91197600  0.95269218  1
  Se  Se157  1  0.41550936  0.25580774  0.43769980  1
  Se  Se158  1  0.41044506  0.26037756  0.94548941  1
  Se  Se159  1  0.40746307  0.58346132  0.43265575  1
  Se  Se160  1  0.41575221  0.59089551  0.94880427  1
  Se  Se161  1  0.41698739  0.90080467  0.44147314  1
  Se  Se162  1  0.40793505  0.92247709  0.94836047  1
  Se  Se163  1  0.74590173  0.25603783  0.44178859  1
  Se  Se164  1  0.74953048  0.24753383  0.95317179  1
  Se  Se165  1  0.73786780  0.60093968  0.44272162  1
  Se  Se166  1  0.74412783  0.58398001  0.93781194  1
  Se  Se167  1  0.75653917  0.91258933  0.44878724  1
  Se  Se168  1  0.74868536  0.90724966  0.94238252  1
  Se  Se169  1  0.25982099  0.06876625  0.43310197  1
  Se  Se170  1  0.24588800  0.08449352  0.95180637  1
  Se  Se171  1  0.24593845  0.41710642  0.44228963  1
  Se  Se172  1  0.24904016  0.42319038  0.94893787  1
  Se  Se173  1  0.24404448  0.74677462  0.44282105  1
  Se  Se174  1  0.25118444  0.75697678  0.94900334  1
  Se  Se175  1  0.58639098  0.06592491  0.43696401  1
  Se  Se176  1  0.58599752  0.07298540  0.94197349  1
  Se  Se177  1  0.58577059  0.41271686  0.44070483  1
  Se  Se178  1  0.58248473  0.42166614  0.95119889  1
  Se  Se179  1  0.57415607  0.74571877  0.45036357  1
  Se  Se180  1  0.59009499  0.74703781  0.93330571  1
  Se  Se181  1  0.92340494  0.08121592  0.43670138  1
  Se  Se182  1  0.91817442  0.07595761  0.95065646  1
  Se  Se183  1  0.92095266  0.41518276  0.43592766  1
  Se  Se184  1  0.92746589  0.40715015  0.93889256  1
  Se  Se185  1  0.91774238  0.75052129  0.44292554  1
  Se  Se186  1  0.92658928  0.72670133  0.94924885  1
  Se  Se187  1  0.24794638  0.25164649  0.30092454  1
  Se  Se188  1  0.25381948  0.26238134  0.80647503  1
  Se  Se189  1  0.24874736  0.58372799  0.30097459  1
  Se  Se190  1  0.25266059  0.59076639  0.81054445  1
  Se  Se191  1  0.24988347  0.91148885  0.30193005  1
  Se  Se192  1  0.24240391  0.91354752  0.81073709  1
  Se  Se193  1  0.59059930  0.25205045  0.29857853  1
  Se  Se194  1  0.58484952  0.25443034  0.81075330  1
  Se  Se195  1  0.57255276  0.57370492  0.30936572  1
  Se  Se196  1  0.58317994  0.58370274  0.80282303  1
  Se  Se197  1  0.59023881  0.90612137  0.31079450  1
  Se  Se198  1  0.58243650  0.91836657  0.79654341  1
  Se  Se199  1  0.91901868  0.25321805  0.29819629  1
  Se  Se200  1  0.91389816  0.24489096  0.81230122  1
  Se  Se201  1  0.91280320  0.58697268  0.29833648  1
  Se  Se202  1  0.90944831  0.57282963  0.81530621  1
  Se  Se203  1  0.92899873  0.92370950  0.29988867  1
  Se  Se204  1  0.90829577  0.90233473  0.81203849  1
  Se  Se205  1  0.08578661  0.08382992  0.29695956  1
  Se  Se206  1  0.09398889  0.09620493  0.80997323  1
  Se  Se207  1  0.08145580  0.41737428  0.29931867  1
  Se  Se208  1  0.08886729  0.42469515  0.80805252  1
  Se  Se209  1  0.07975032  0.74436683  0.30261052  1
  Se  Se210  1  0.08853025  0.75573535  0.81511730  1
  Se  Se211  1  0.42273486  0.08565049  0.30064797  1
  Se  Se212  1  0.42030860  0.09300692  0.81831841  1
  Se  Se213  1  0.41049395  0.41121801  0.29481509  1
  Se  Se214  1  0.41469163  0.42058417  0.80803318  1
  Se  Se215  1  0.41525990  0.74990083  0.29614200  1
  Se  Se216  1  0.41584478  0.75015472  0.79945968  1
  Se  Se217  1  0.76033154  0.09228773  0.31189369  1
  Se  Se218  1  0.74871597  0.08083146  0.80970591  1
  Se  Se219  1  0.74683635  0.41908821  0.29953864  1
  Se  Se220  1  0.74805561  0.41261921  0.80358529  1
  Se  Se221  1  0.75368524  0.76013970  0.30672777  1
  Se  Se222  1  0.74352242  0.73778537  0.79595812  1
  Se  Se223  1  0.25379045  0.07861471  0.19596295  1
  Se  Se224  1  0.24567413  0.08980030  0.69362550  1
  Se  Se225  1  0.24909871  0.41652810  0.19247363  1
  Se  Se226  1  0.25481989  0.41959279  0.69706424  1
  Se  Se227  1  0.25072669  0.74229785  0.20020793  1
  Se  Se228  1  0.25060851  0.74596211  0.69634701  1
  Se  Se229  1  0.58083160  0.08938202  0.18473222  1
  Se  Se230  1  0.57592083  0.08781872  0.70198006  1
  Se  Se231  1  0.59380249  0.41386365  0.19811797  1
  Se  Se232  1  0.58477475  0.41455893  0.70021047  1
  Se  Se233  1  0.57731335  0.75658744  0.19003389  1
  Se  Se234  1  0.58785268  0.74712092  0.69133215  1
  Se  Se235  1  0.92021488  0.08142336  0.19419619  1
  Se  Se236  1  0.91109831  0.08709807  0.69666753  1
  Se  Se237  1  0.91918741  0.41677215  0.19828279  1
  Se  Se238  1  0.91340650  0.43211511  0.68587909  1
  Se  Se239  1  0.91398423  0.75167621  0.20047144  1
  Se  Se240  1  0.91168794  0.76406855  0.69466400  1
  Se  Se241  1  0.08333168  0.25203489  0.19242124  1
  Se  Se242  1  0.09070379  0.24653788  0.68632152  1
  Se  Se243  1  0.08072301  0.58676108  0.19777263  1
  Se  Se244  1  0.09070690  0.58276995  0.69604382  1
  Se  Se245  1  0.08246130  0.91624744  0.19959434  1
  Se  Se246  1  0.08704471  0.91102342  0.69125883  1
  Se  Se247  1  0.41412716  0.24897223  0.19682451  1
  Se  Se248  1  0.41262152  0.25266057  0.70140822  1
  Se  Se249  1  0.42059111  0.57434286  0.20071029  1
  Se  Se250  1  0.41962488  0.58578465  0.69525855  1
  Se  Se251  1  0.42471642  0.91105580  0.21029052  1
  Se  Se252  1  0.41902903  0.90684718  0.68552306  1
  Se  Se253  1  0.75057667  0.25062511  0.19621650  1
  Se  Se254  1  0.74971552  0.25360043  0.70030948  1
  Se  Se255  1  0.75361451  0.58168542  0.18310302  1
  Se  Se256  1  0.75150172  0.58437381  0.69643960  1
  Se  Se257  1  0.75807588  0.91170183  0.18977624  1
  Se  Se258  1  0.73896602  0.92658398  0.69485834  1
