# generated using pymatgen
data_In86Cu29Se144
_symmetry_space_group_name_H-M   'P 1'
_cell_length_a   17.59311267
_cell_length_b   17.58988303
_cell_length_c   23.44691860
_cell_angle_alpha   89.98724766
_cell_angle_beta   89.98217600
_cell_angle_gamma   89.99490323
_symmetry_Int_Tables_number   1
_chemical_formula_structural   In86Cu29Se144
_chemical_formula_sum   'In86 Cu29 Se144'
_cell_volume   7255.90148344
_cell_formula_units_Z   1
loop_
 _symmetry_equiv_pos_site_id
 _symmetry_equiv_pos_as_xyz
  1  'x, y, z'
loop_
 _atom_site_type_symbol
 _atom_site_label
 _atom_site_symmetry_multiplicity
 _atom_site_fract_x
 _atom_site_fract_y
 _atom_site_fract_z
 _atom_site_occupancy
  In  In0  1  -0.01654906  0.16640192  0.12368373  1
  In  In1  1  0.00510186  0.18313798  0.62556432  1
  In  In2  1  0.00934363  0.51366748  0.11079359  1
  In  In3  1  0.00056229  0.49973009  0.62290435  1
  In  In4  1  0.00173898  0.83560790  0.12530617  1
  In  In5  1  0.00017064  0.81685089  0.63154201  1
  In  In6  1  0.34755778  0.17027176  0.13140945  1
  In  In7  1  0.33704889  0.15658525  0.62052537  1
  In  In8  1  0.33108454  0.49419949  0.11812599  1
  In  In9  1  0.33113614  0.51998094  0.60776296  1
  In  In10  1  0.32504054  0.82553394  0.11522713  1
  In  In11  1  0.33702101  0.83621047  0.61224439  1
  In  In12  1  0.66804900  0.15609768  0.13007362  1
  In  In13  1  0.67129828  0.17869231  0.60617444  1
  In  In14  1  0.67155952  0.50315923  0.11951408  1
  In  In15  1  0.67856920  0.50744557  0.61996706  1
  In  In16  1  0.67082042  0.83849746  0.12303424  1
  In  In17  1  0.65905904  0.82581070  0.62714450  1
  In  In18  1  0.15970491  0.00002551  0.37571456  1
  In  In19  1  0.16925225  -0.02500748  0.86882288  1
  In  In20  1  0.17933490  0.33304444  0.37055778  1
  In  In21  1  0.16207224  0.36775485  0.88111478  1
  In  In22  1  0.15520922  0.67294019  0.38270235  1
  In  In23  1  0.15738279  0.67028795  0.88092831  1
  In  In24  1  0.50249923  -0.01387203  0.38001026  1
  In  In25  1  0.48450430  -0.00420208  0.86755318  1
  In  In26  1  0.49108617  0.34696638  0.38816555  1
  In  In27  1  0.50545060  0.33311104  0.87469835  1
  In  In28  1  0.49311621  0.67101816  0.39385355  1
  In  In29  1  0.50829944  0.65847575  0.87768660  1
  In  In30  1  0.84346118  0.00542370  0.36877273  1
  In  In31  1  0.82994295  -0.00258196  0.88296895  1
  In  In32  1  0.82288745  0.33866653  0.38569741  1
  In  In33  1  0.83697970  0.33162120  0.87651000  1
  In  In34  1  0.83656977  0.65501173  0.37438699  1
  In  In35  1  0.83717044  0.66388144  0.87603535  1
  In  In36  1  -0.00076304  0.15205484  0.37296958  1
  In  In37  1  -0.01310784  0.16315922  0.87536520  1
  In  In38  1  -0.01166485  0.50519081  0.37658090  1
  In  In39  1  -0.00122659  0.50709765  0.87216228  1
  In  In40  1  0.00501703  0.83879903  0.36976652  1
  In  In41  1  0.01413414  0.80558818  0.89661253  1
  In  In42  1  0.32296403  0.17891017  0.37406479  1
  In  In43  1  0.34327621  0.16195179  0.86661696  1
  In  In44  1  0.33861446  0.49749354  0.38486609  1
  In  In45  1  0.31744779  0.50671568  0.88988224  1
  In  In46  1  0.32693312  0.83395477  0.40181139  1
  In  In47  1  0.32243648  0.83957626  0.87570144  1
  In  In48  1  0.67865925  0.15927526  0.38287448  1
  In  In49  1  0.67089816  0.17479676  0.87521602  1
  In  In50  1  0.66372717  0.49985806  0.38639803  1
  In  In51  1  0.66550778  0.50264925  0.87391423  1
  In  In52  1  0.65505058  0.83638491  0.37331511  1
  In  In53  1  0.67830099  0.81941051  0.88569578  1
  In  In54  1  0.16530665  -0.02069353  0.12412244  1
  In  In55  1  0.18386253  -0.00391256  0.62709990  1
  In  In56  1  0.17433678  0.34575633  0.12375341  1
  In  In57  1  0.14872682  0.34407042  0.63100082  1
  In  In58  1  0.15525092  0.66450799  0.11506959  1
  In  In59  1  0.16282584  0.66308426  0.61528800  1
  In  In60  1  0.51097826  0.00308076  0.12918211  1
  In  In61  1  0.48845717  -0.01123404  0.60687192  1
  In  In62  1  0.49135595  0.34142820  0.12979185  1
  In  In63  1  0.51102741  0.33896251  0.60626244  1
  In  In64  1  0.49797595  0.66396827  0.11816640  1
  In  In65  1  0.50482331  0.67640785  0.62061524  1
  In  In66  1  0.83100195  0.00130345  0.12745676  1
  In  In67  1  0.82241106  0.00115237  0.62526506  1
  In  In68  1  0.83587750  0.33642396  0.11478832  1
  In  In69  1  0.85041287  0.35128686  0.60947773  1
  In  In70  1  0.85743889  0.68854069  0.10237067  1
  In  In71  1  0.85289736  0.63727166  0.65115051  1
  In  In72  1  0.16581284  0.16450640  0.49774144  1
  In  In73  1  0.16862191  0.16848157  0.00270149  1
  In  In74  1  0.82944024  0.82984668  0.50946723  1
  In  In75  1  0.66954527  0.33606964  0.74909212  1
  In  In76  1  0.00078823  -0.00462583  0.75459433  1
  In  In77  1  0.32895347  -0.00179228  0.25469141  1
  In  In78  1  0.33220274  0.67601647  0.74472438  1
  In  In79  1  0.33501570  0.66650600  0.26085914  1
  In  In80  1  0.67037412  0.66724483  0.25254740  1
  In  In81  1  0.32762864  0.33376758  0.74831913  1
  In  In82  1  0.66696034  0.33412899  0.26335297  1
  In  In83  1  -0.00000568  0.33188522  0.24794315  1
  In  In84  1  0.65804792  -0.00083946  0.74316197  1
  In  In85  1  0.50791333  0.16720025  0.00164075  1
  Cu  Cu86  1  0.83442260  0.17219008  0.74886696  1
  Cu  Cu87  1  0.49587081  0.49694480  0.75288944  1
  Cu  Cu88  1  0.16863801  0.50374961  0.24245917  1
  Cu  Cu89  1  0.16336323  0.16405417  0.25153617  1
  Cu  Cu90  1  0.67046391  0.33584777  -0.00311068  1
  Cu  Cu91  1  0.16187689  0.82572000  0.25168173  1
  Cu  Cu92  1  0.66188839  0.66310678  -0.00326713  1
  Cu  Cu93  1  0.00063741  -0.00238050  0.49643890  1
  Cu  Cu94  1  0.67016562  0.00032471  0.49872910  1
  Cu  Cu95  1  0.84174744  0.51183311  0.24393862  1
  Cu  Cu96  1  0.83497959  0.82335541  0.76235616  1
  Cu  Cu97  1  0.33948577  0.66887201  -0.00238478  1
  Cu  Cu98  1  0.67217347  0.66618317  0.50515924  1
  Cu  Cu99  1  -0.00614396  0.66338185  0.50480610  1
  Cu  Cu100  1  0.49652126  0.49824923  0.25893877  1
  Cu  Cu101  1  0.50235310  0.17001572  0.25435133  1
  Cu  Cu102  1  0.32403122  0.33386963  0.50173184  1
  Cu  Cu103  1  0.33095868  -0.00503855  -0.00465288  1
  Cu  Cu104  1  0.49934383  0.83301652  0.74503717  1
  Cu  Cu105  1  0.83571466  0.83624611  0.24197768  1
  Cu  Cu106  1  0.83066444  0.16504376  0.25185962  1
  Cu  Cu107  1  0.66595371  0.00016133  0.00560206  1
  Cu  Cu108  1  0.16689866  0.17186729  0.74868408  1
  Cu  Cu109  1  0.49551704  0.15889683  0.73587253  1
  Cu  Cu110  1  0.49648456  0.83691141  0.25246539  1
  Cu  Cu111  1  0.00017495  0.33619659  -0.00253175  1
  Cu  Cu112  1  -0.00705781  -0.00349090  0.00009636  1
  Cu  Cu113  1  0.16017343  0.50730699  0.74668020  1
  Cu  Cu114  1  -0.00059404  0.33819705  0.49957062  1
  Se  Se115  1  0.07669722  0.07557965  0.06056812  1
  Se  Se116  1  0.07739486  0.07715425  0.56228212  1
  Se  Se117  1  0.08679231  0.41392865  0.05208848  1
  Se  Se118  1  0.08522046  0.42130236  0.55027686  1
  Se  Se119  1  0.08183117  0.75818991  0.05200718  1
  Se  Se120  1  0.07734800  0.75282653  0.55117349  1
  Se  Se121  1  0.41060849  0.07366832  0.05709770  1
  Se  Se122  1  0.42085940  0.09112980  0.54620060  1
  Se  Se123  1  0.42965093  0.42484877  0.05417014  1
  Se  Se124  1  0.40892903  0.41829941  0.55247283  1
  Se  Se125  1  0.42103312  0.75350121  0.05143428  1
  Se  Se126  1  0.41968364  0.74785257  0.54951956  1
  Se  Se127  1  0.74994110  0.08581903  0.05574493  1
  Se  Se128  1  0.75649263  0.08281383  0.54898857  1
  Se  Se129  1  0.75254172  0.42114409  0.04964644  1
  Se  Se130  1  0.72806051  0.39474486  0.55976193  1
  Se  Se131  1  0.74014758  0.74825544  0.05277819  1
  Se  Se132  1  0.75472104  0.73292335  0.57260961  1
  Se  Se133  1  0.26462327  0.25368775  0.06081930  1
  Se  Se134  1  0.24496227  0.25769263  0.56538520  1
  Se  Se135  1  0.25532925  0.58920376  0.05534792  1
  Se  Se136  1  0.24857439  0.59782187  0.53859590  1
  Se  Se137  1  0.24543581  0.91196390  0.04707310  1
  Se  Se138  1  0.24973289  0.92110894  0.54828081  1
  Se  Se139  1  0.59387471  0.25923298  0.06410806  1
  Se  Se140  1  0.56319145  0.23119196  0.54390031  1
  Se  Se141  1  0.58125153  0.57910213  0.05279977  1
  Se  Se142  1  0.58478697  0.58411256  0.55620224  1
  Se  Se143  1  0.57969383  0.91759245  0.05628454  1
  Se  Se144  1  0.59343175  0.91210761  0.55270523  1
  Se  Se145  1  0.91648040  0.24954041  0.04796721  1
  Se  Se146  1  0.92026271  0.24688969  0.54929929  1
  Se  Se147  1  0.90586836  0.57239752  0.04737061  1
  Se  Se148  1  0.90894458  0.58157681  0.55764497  1
  Se  Se149  1  0.91195050  0.91707386  0.05883370  1
  Se  Se150  1  0.92507578  0.92248776  0.56448918  1
  Se  Se151  1  0.07589240  0.25623584  0.43578912  1
  Se  Se152  1  0.08041371  0.25444801  0.93750472  1
  Se  Se153  1  0.07431822  0.58166164  0.44662741  1
  Se  Se154  1  0.10368523  0.55963901  0.94028995  1
  Se  Se155  1  0.08414040  0.91325582  0.44589803  1
  Se  Se156  1  0.08215608  0.91935132  0.94733579  1
  Se  Se157  1  0.40595357  0.25211302  0.44659831  1
  Se  Se158  1  0.41296184  0.25106945  0.94183994  1
  Se  Se159  1  0.42681008  0.57005868  0.45376361  1
  Se  Se160  1  0.41978121  0.58126938  0.94626661  1
  Se  Se161  1  0.42208170  0.91619457  0.45524320  1
  Se  Se162  1  0.41707815  0.91353166  0.94349735  1
  Se  Se163  1  0.74613252  0.25200845  0.45105640  1
  Se  Se164  1  0.75297669  0.24873706  0.94659813  1
  Se  Se165  1  0.75367063  0.58417330  0.44834540  1
  Se  Se166  1  0.74778232  0.58259005  0.94359300  1
  Se  Se167  1  0.75162114  0.91842831  0.43916642  1
  Se  Se168  1  0.74792495  0.91596858  0.95139141  1
  Se  Se169  1  0.25844928  0.07442333  0.44086126  1
  Se  Se170  1  0.25353616  0.07911557  0.93644903  1
  Se  Se171  1  0.24264004  0.41710365  0.44700091  1
  Se  Se172  1  0.26355940  0.40092278  0.95416907  1
  Se  Se173  1  0.25740777  0.72524810  0.45260564  1
  Se  Se174  1  0.25154758  0.74831837  0.94465621  1
  Se  Se175  1  0.58452295  0.07729282  0.44304869  1
  Se  Se176  1  0.58898319  0.07372118  0.93609943  1
  Se  Se177  1  0.58736025  0.41409105  0.45320792  1
  Se  Se178  1  0.58497057  0.41523037  0.94285768  1
  Se  Se179  1  0.59252182  0.75145278  0.45018212  1
  Se  Se180  1  0.57696318  0.75087908  0.94801340  1
  Se  Se181  1  0.91559332  0.08251414  0.44760669  1
  Se  Se182  1  0.91189745  0.08409690  0.94940643  1
  Se  Se183  1  0.91247217  0.42112836  0.44820342  1
  Se  Se184  1  0.91873245  0.41862726  0.94167868  1
  Se  Se185  1  0.91867625  0.74790684  0.44242012  1
  Se  Se186  1  0.89601515  0.75933999  0.94932557  1
  Se  Se187  1  0.25026341  0.25169961  0.29474587  1
  Se  Se188  1  0.24007837  0.25107403  0.81554648  1
  Se  Se189  1  0.24098051  0.57519674  0.31423810  1
  Se  Se190  1  0.24808547  0.58096572  0.80597186  1
  Se  Se191  1  0.24638765  0.89984409  0.31414631  1
  Se  Se192  1  0.26278606  0.92156328  0.79578889  1
  Se  Se193  1  0.57553419  0.24613322  0.32102862  1
  Se  Se194  1  0.57295927  0.23653708  0.80055110  1
  Se  Se195  1  0.57572391  0.58343203  0.31515257  1
  Se  Se196  1  0.58227644  0.58036901  0.80177296  1
  Se  Se197  1  0.58349062  0.92113333  0.30002568  1
  Se  Se198  1  0.58144985  0.90710756  0.81007653  1
  Se  Se199  1  0.90790549  0.24880214  0.31222938  1
  Se  Se200  1  0.91803625  0.25153200  0.80355441  1
  Se  Se201  1  0.92493005  0.59135246  0.29914836  1
  Se  Se202  1  0.92308976  0.59357864  0.80296501  1
  Se  Se203  1  0.91877800  0.91644184  0.30080050  1
  Se  Se204  1  0.91403313  0.90862770  0.81780685  1
  Se  Se205  1  0.08198229  0.07696790  0.30055231  1
  Se  Se206  1  0.09249267  0.08845734  0.81287696  1
  Se  Se207  1  0.08863174  0.42384055  0.30669027  1
  Se  Se208  1  0.08048738  0.42093375  0.80010577  1
  Se  Se209  1  0.07781020  0.74283777  0.30414602  1
  Se  Se210  1  0.08913391  0.75861006  0.80938559  1
  Se  Se211  1  0.41961682  0.08868863  0.31302263  1
  Se  Se212  1  0.41396272  0.07855372  0.79213365  1
  Se  Se213  1  0.41180455  0.41502062  0.30906375  1
  Se  Se214  1  0.41364264  0.42261479  0.81323755  1
  Se  Se215  1  0.42068835  0.76302613  0.31860608  1
  Se  Se216  1  0.42396561  0.75514111  0.81108168  1
  Se  Se217  1  0.74795697  0.08092070  0.30417903  1
  Se  Se218  1  0.75335632  0.08709636  0.80438547  1
  Se  Se219  1  0.76153340  0.43536512  0.30788864  1
  Se  Se220  1  0.76072260  0.42447436  0.80617853  1
  Se  Se221  1  0.76082505  0.76070259  0.31099858  1
  Se  Se222  1  0.74350937  0.74116300  0.80687372  1
  Se  Se223  1  0.24296359  0.08568256  0.18759982  1
  Se  Se224  1  0.25069340  0.09080865  0.69627560  1
  Se  Se225  1  0.25707464  0.41926523  0.19721323  1
  Se  Se226  1  0.24871834  0.43409601  0.68678574  1
  Se  Se227  1  0.24560657  0.74867134  0.19326035  1
  Se  Se228  1  0.24261873  0.75887573  0.68252284  1
  Se  Se229  1  0.58392488  0.08432284  0.20341142  1
  Se  Se230  1  0.58023392  0.08699246  0.67538878  1
  Se  Se231  1  0.58455365  0.42648933  0.19839314  1
  Se  Se232  1  0.57415105  0.42000179  0.68973730  1
  Se  Se233  1  0.57433003  0.75330645  0.19320829  1
  Se  Se234  1  0.58388010  0.74407741  0.70016088  1
  Se  Se235  1  0.91534179  0.08315893  0.19856345  1
  Se  Se236  1  0.91338509  0.08731676  0.69080463  1
  Se  Se237  1  0.91559536  0.42395672  0.18621720  1
  Se  Se238  1  0.91837084  0.41612475  0.69132945  1
  Se  Se239  1  0.91744618  0.74860113  0.19238978  1
  Se  Se240  1  0.92154330  0.74505350  0.70750019  1
  Se  Se241  1  0.08965509  0.24322351  0.18539537  1
  Se  Se242  1  0.07895561  0.25650226  0.70369851  1
  Se  Se243  1  0.08268620  0.58437115  0.19138922  1
  Se  Se244  1  0.08147162  0.58977044  0.68978313  1
  Se  Se245  1  0.08229774  0.91491561  0.20055765  1
  Se  Se246  1  0.08959755  0.91124171  0.69123903  1
  Se  Se247  1  0.42041479  0.25519518  0.20298295  1
  Se  Se248  1  0.42215205  0.25419675  0.68398761  1
  Se  Se249  1  0.42178325  0.57980104  0.19554289  1
  Se  Se250  1  0.42059942  0.57799871  0.68953198  1
  Se  Se251  1  0.41392284  0.90965960  0.18879246  1
  Se  Se252  1  0.41975149  0.91304022  0.68716953  1
  Se  Se253  1  0.75590978  0.25259960  0.19357737  1
  Se  Se254  1  0.75434814  0.24608893  0.68609815  1
  Se  Se255  1  0.75957019  0.58984668  0.18467397  1
  Se  Se256  1  0.73745770  0.58135877  0.70360186  1
  Se  Se257  1  0.74551362  0.91943852  0.19688431  1
  Se  Se258  1  0.75920254  0.90281812  0.69750813  1
