# generated using pymatgen
data_In86Cu29Se144
_symmetry_space_group_name_H-M   'P 1'
_cell_length_a   17.57960056
_cell_length_b   17.58270880
_cell_length_c   23.43513552
_cell_angle_alpha   89.99833822
_cell_angle_beta   90.01693789
_cell_angle_gamma   89.99239492
_symmetry_Int_Tables_number   1
_chemical_formula_structural   In86Cu29Se144
_chemical_formula_sum   'In86 Cu29 Se144'
_cell_volume   7243.72963948
_cell_formula_units_Z   1
loop_
 _symmetry_equiv_pos_site_id
 _symmetry_equiv_pos_as_xyz
  1  'x, y, z'
loop_
 _atom_site_type_symbol
 _atom_site_label
 _atom_site_symmetry_multiplicity
 _atom_site_fract_x
 _atom_site_fract_y
 _atom_site_fract_z
 _atom_site_occupancy
  In  In0  1  -0.01258539  0.17652588  0.13420458  1
  In  In1  1  0.00705776  0.18073090  0.60893750  1
  In  In2  1  0.00498748  0.50256144  0.12565159  1
  In  In3  1  -0.00831034  0.50250660  0.62444280  1
  In  In4  1  0.00149167  0.82963429  0.13279525  1
  In  In5  1  -0.00978877  0.83194851  0.61995318  1
  In  In6  1  0.32019007  0.16131555  0.12758847  1
  In  In7  1  0.32683624  0.15798333  0.61619261  1
  In  In8  1  0.32907599  0.51504156  0.12850261  1
  In  In9  1  0.33887484  0.50277562  0.62275370  1
  In  In10  1  0.31708929  0.83725908  0.13961125  1
  In  In11  1  0.33014307  0.83293261  0.62959499  1
  In  In12  1  0.67820482  0.15067300  0.13068168  1
  In  In13  1  0.68001139  0.18252863  0.61570079  1
  In  In14  1  0.67590448  0.48608899  0.12349024  1
  In  In15  1  0.66026447  0.49517842  0.62450800  1
  In  In16  1  0.68300055  0.84143572  0.12082539  1
  In  In17  1  0.67760629  0.82464687  0.62335875  1
  In  In18  1  0.17352429  0.00269242  0.36533272  1
  In  In19  1  0.16039137  -0.01350394  0.87897158  1
  In  In20  1  0.13841635  0.33515584  0.37531397  1
  In  In21  1  0.16725954  0.35847100  0.87769292  1
  In  In22  1  0.16552758  0.66527034  0.35211339  1
  In  In23  1  0.15875388  0.66817434  0.87505074  1
  In  In24  1  0.50579626  0.00355432  0.36980290  1
  In  In25  1  0.49610646  0.01345813  0.87279307  1
  In  In26  1  0.50026678  0.33261235  0.38873170  1
  In  In27  1  0.50330916  0.32264802  0.86940190  1
  In  In28  1  0.48961155  0.66223196  0.38335024  1
  In  In29  1  0.48815662  0.67808533  0.87380238  1
  In  In30  1  0.83359470  0.00147498  0.37263197  1
  In  In31  1  0.83429724  -0.00394166  0.89155749  1
  In  In32  1  0.85979987  0.33033222  0.39260951  1
  In  In33  1  0.83598525  0.33298761  0.86803190  1
  In  In34  1  0.85428840  0.65122226  0.38920152  1
  In  In35  1  0.84692110  0.65953074  0.88317374  1
  In  In36  1  0.00268372  0.16718476  0.37643749  1
  In  In37  1  -0.01270419  0.16636938  0.87402288  1
  In  In38  1  0.00369114  0.49922000  0.36683274  1
  In  In39  1  -0.00197475  0.50137826  0.87194153  1
  In  In40  1  -0.00822774  0.82307699  0.36206468  1
  In  In41  1  0.01108549  0.82983619  0.88773480  1
  In  In42  1  0.33712887  0.16062099  0.38140880  1
  In  In43  1  0.34389620  0.16717307  0.87232916  1
  In  In44  1  0.32834530  0.51874684  0.38132876  1
  In  In45  1  0.30648061  0.50048200  0.87740974  1
  In  In46  1  0.32380493  0.82481217  0.36200753  1
  In  In47  1  0.32189007  0.82562350  0.87066202  1
  In  In48  1  0.67677367  0.16071902  0.38172828  1
  In  In49  1  0.66620377  0.17409320  0.87007296  1
  In  In50  1  0.67317830  0.49452564  0.38285129  1
  In  In51  1  0.68396784  0.50144901  0.87267114  1
  In  In52  1  0.67228252  0.84700750  0.36983969  1
  In  In53  1  0.68131278  0.83966448  0.87907022  1
  In  In54  1  0.16976109  -0.01347289  0.14036356  1
  In  In55  1  0.16653571  0.00971379  0.62177467  1
  In  In56  1  0.15132664  0.32690103  0.12273118  1
  In  In57  1  0.16677033  0.32409412  0.62314288  1
  In  In58  1  0.16177891  0.66511096  0.12901386  1
  In  In59  1  0.16063266  0.66756216  0.62662324  1
  In  In60  1  0.50030562  -0.00464119  0.13345908  1
  In  In61  1  0.48618461  -0.00281952  0.62329207  1
  In  In62  1  0.50424678  0.33521157  0.12626084  1
  In  In63  1  0.50870926  0.34370190  0.61968733  1
  In  In64  1  0.48163143  0.66587554  0.12866360  1
  In  In65  1  0.49178450  0.65845884  0.62226854  1
  In  In66  1  0.83558692  0.00331351  0.13051164  1
  In  In67  1  0.83194618  0.00437568  0.61565391  1
  In  In68  1  0.84820280  0.34309087  0.11477124  1
  In  In69  1  0.83606143  0.33274045  0.62598279  1
  In  In70  1  0.84839823  0.67267600  0.11985449  1
  In  In71  1  0.85142074  0.66870620  0.61152107  1
  In  In72  1  0.66983609  0.67429976  0.24466004  1
  In  In73  1  0.66202326  0.66066972  0.74395174  1
  In  In74  1  0.50628335  0.16883693  -0.00631947  1
  In  In75  1  0.16149079  0.82773689  0.48475418  1
  In  In76  1  0.00010354  -0.00212773  0.75186677  1
  In  In77  1  0.16120609  0.16344145  0.00578802  1
  In  In78  1  0.32551722  0.33515134  0.25138377  1
  In  In79  1  0.50121745  0.83392255  0.50137708  1
  In  In80  1  0.67717505  0.32860775  0.26322201  1
  In  In81  1  0.50107017  0.50020385  0.00242484  1
  In  In82  1  0.50438722  0.83551168  0.00094213  1
  In  In83  1  0.16171682  0.49944119  0.49391765  1
  In  In84  1  0.33048961  0.33510222  0.74939666  1
  In  In85  1  0.66305418  0.00308839  0.75213286  1
  Cu  Cu86  1  -0.00062937  -0.00449449  0.01120193  1
  Cu  Cu87  1  0.83650731  0.49687189  0.74855989  1
  Cu  Cu88  1  0.84719930  0.50182240  0.24916273  1
  Cu  Cu89  1  0.67321868  0.66853720  0.50232306  1
  Cu  Cu90  1  0.67813500  0.32838267  -0.00437123  1
  Cu  Cu91  1  0.32960556  -0.00432487  0.00641548  1
  Cu  Cu92  1  0.48826127  0.83685831  0.75040101  1
  Cu  Cu93  1  0.49593631  0.15976484  0.25344447  1
  Cu  Cu94  1  0.16623527  0.82976524  0.75416474  1
  Cu  Cu95  1  0.16965884  0.16675100  0.74305587  1
  Cu  Cu96  1  0.67369596  0.66112741  0.00352563  1
  Cu  Cu97  1  0.83637938  0.16902714  0.74482265  1
  Cu  Cu98  1  0.49681484  0.83297549  0.25358178  1
  Cu  Cu99  1  0.66712218  0.00445136  0.49304027  1
  Cu  Cu100  1  0.32813384  0.32813439  0.50157532  1
  Cu  Cu101  1  0.33001325  -0.00226524  0.49369895  1
  Cu  Cu102  1  0.31803185  0.66947692  -0.00000506  1
  Cu  Cu103  1  0.16087366  0.16521372  0.25138169  1
  Cu  Cu104  1  0.83137891  0.83545648  0.24919959  1
  Cu  Cu105  1  0.50137867  0.50075643  0.25898962  1
  Cu  Cu106  1  0.15555050  0.50911050  0.75026121  1
  Cu  Cu107  1  0.49800295  0.16578415  0.74426895  1
  Cu  Cu108  1  -0.00282819  0.33630248  -0.00269608  1
  Cu  Cu109  1  0.66617799  0.33606343  0.50362531  1
  Cu  Cu110  1  0.83939216  0.82630032  0.75073503  1
  Cu  Cu111  1  0.49493636  0.50192018  0.74601757  1
  Cu  Cu112  1  0.83593451  0.16783972  0.25621718  1
  Cu  Cu113  1  -0.00583158  0.00456668  0.49474655  1
  Cu  Cu114  1  0.00308185  0.66423349  0.00340174  1
  Se  Se115  1  0.07926853  0.07611590  0.07255623  1
  Se  Se116  1  0.08276437  0.08087177  0.54935811  1
  Se  Se117  1  0.08105539  0.41617569  0.05232029  1
  Se  Se118  1  0.07838059  0.41028022  0.55827220  1
  Se  Se119  1  0.08170897  0.75032590  0.05849042  1
  Se  Se120  1  0.07455929  0.74380294  0.55192171  1
  Se  Se121  1  0.41442675  0.08001282  0.05876402  1
  Se  Se122  1  0.41536223  0.07865638  0.54806972  1
  Se  Se123  1  0.41042777  0.41338838  0.06293031  1
  Se  Se124  1  0.41103873  0.41369220  0.55407604  1
  Se  Se125  1  0.40534952  0.75009874  0.05541502  1
  Se  Se126  1  0.40427323  0.74504233  0.55456130  1
  Se  Se127  1  0.76139549  0.08675628  0.05630677  1
  Se  Se128  1  0.74955556  0.08752217  0.54870174  1
  Se  Se129  1  0.75610016  0.41842479  0.04704207  1
  Se  Se130  1  0.74945355  0.41733630  0.55870718  1
  Se  Se131  1  0.75430572  0.74847510  0.05458935  1
  Se  Se132  1  0.75921747  0.75377212  0.55025311  1
  Se  Se133  1  0.25726647  0.25770166  0.05689881  1
  Se  Se134  1  0.24312842  0.24329869  0.55041961  1
  Se  Se135  1  0.24238492  0.58205558  0.05456548  1
  Se  Se136  1  0.25090431  0.58875475  0.55613273  1
  Se  Se137  1  0.24678052  0.91493287  0.06089152  1
  Se  Se138  1  0.24966879  0.91604014  0.55298581  1
  Se  Se139  1  0.59636437  0.25514440  0.05976925  1
  Se  Se140  1  0.57888608  0.24958288  0.55193608  1
  Se  Se141  1  0.58939846  0.59076889  0.06592566  1
  Se  Se142  1  0.58710001  0.58929898  0.55693573  1
  Se  Se143  1  0.59186564  0.93056712  0.05679848  1
  Se  Se144  1  0.59463597  0.92458044  0.56058978  1
  Se  Se145  1  0.91962382  0.24551087  0.04994787  1
  Se  Se146  1  0.89738821  0.23977262  0.55258062  1
  Se  Se147  1  0.91769180  0.57771355  0.05291986  1
  Se  Se148  1  0.91772133  0.57259497  0.54406943  1
  Se  Se149  1  0.91659063  0.91270830  0.06480475  1
  Se  Se150  1  0.91604199  0.91925088  0.55070445  1
  Se  Se151  1  0.07569560  0.25131989  0.45059136  1
  Se  Se152  1  0.07986210  0.25414251  0.93855710  1
  Se  Se153  1  0.08321019  0.59795840  0.43304953  1
  Se  Se154  1  0.08074687  0.58113296  0.94377808  1
  Se  Se155  1  0.07316340  0.92538254  0.43249443  1
  Se  Se156  1  0.08721048  0.91648000  0.95812904  1
  Se  Se157  1  0.41577057  0.24526002  0.45138452  1
  Se  Se158  1  0.40779016  0.26369073  0.94519831  1
  Se  Se159  1  0.42610206  0.57037515  0.45346057  1
  Se  Se160  1  0.40718771  0.59123817  0.94346418  1
  Se  Se161  1  0.41016013  0.91489284  0.43523388  1
  Se  Se162  1  0.41064460  0.92327421  0.94009912  1
  Se  Se163  1  0.74826365  0.25988707  0.44370103  1
  Se  Se164  1  0.75640015  0.24557804  0.93865882  1
  Se  Se165  1  0.75269253  0.58108511  0.44999573  1
  Se  Se166  1  0.75562110  0.57943077  0.94838491  1
  Se  Se167  1  0.75211643  0.91856621  0.44515327  1
  Se  Se168  1  0.75294227  0.91077050  0.95644389  1
  Se  Se169  1  0.24297814  0.08144215  0.44470068  1
  Se  Se170  1  0.25733158  0.07960527  0.94211232  1
  Se  Se171  1  0.25313929  0.40584521  0.43553063  1
  Se  Se172  1  0.25080037  0.41646327  0.95597552  1
  Se  Se173  1  0.25572126  0.73310705  0.43503932  1
  Se  Se174  1  0.23957665  0.75501615  0.94503957  1
  Se  Se175  1  0.57838133  0.08573978  0.44461331  1
  Se  Se176  1  0.59875934  0.07330316  0.94105052  1
  Se  Se177  1  0.58279697  0.42148249  0.45166847  1
  Se  Se178  1  0.59043479  0.40855375  0.93929017  1
  Se  Se179  1  0.59428594  0.74733660  0.43909711  1
  Se  Se180  1  0.59368433  0.73904624  0.94149088  1
  Se  Se181  1  0.91029821  0.08822797  0.44275481  1
  Se  Se182  1  0.92590696  0.08040362  0.95108612  1
  Se  Se183  1  0.91905608  0.44231978  0.44814990  1
  Se  Se184  1  0.91468275  0.41614757  0.93949546  1
  Se  Se185  1  0.91533952  0.76224419  0.44430671  1
  Se  Se186  1  0.91851532  0.75103303  0.95141265  1
  Se  Se187  1  0.24129376  0.24426990  0.31402036  1
  Se  Se188  1  0.24065040  0.24692943  0.81187855  1
  Se  Se189  1  0.24741828  0.56657630  0.29856931  1
  Se  Se190  1  0.24356427  0.58801677  0.80325107  1
  Se  Se191  1  0.25899590  0.92274096  0.29828048  1
  Se  Se192  1  0.24635788  0.91935770  0.80465317  1
  Se  Se193  1  0.57416675  0.24229409  0.31313078  1
  Se  Se194  1  0.58378481  0.24802882  0.79596339  1
  Se  Se195  1  0.58808310  0.58200540  0.31168699  1
  Se  Se196  1  0.57333792  0.57752604  0.81294820  1
  Se  Se197  1  0.58430217  0.91838341  0.29958385  1
  Se  Se198  1  0.57481084  0.90673324  0.81201024  1
  Se  Se199  1  0.91801081  0.25402573  0.30818258  1
  Se  Se200  1  0.92119479  0.25075414  0.79845482  1
  Se  Se201  1  0.92281109  0.59248005  0.30172089  1
  Se  Se202  1  0.91464519  0.58533485  0.80230941  1
  Se  Se203  1  0.91455225  0.92083898  0.30112195  1
  Se  Se204  1  0.91127525  0.90989073  0.81418595  1
  Se  Se205  1  0.07741169  0.08154507  0.30396863  1
  Se  Se206  1  0.09227250  0.09026783  0.81011660  1
  Se  Se207  1  0.09106845  0.42476564  0.29745097  1
  Se  Se208  1  0.07993376  0.41671945  0.80122285  1
  Se  Se209  1  0.10499795  0.77966802  0.29787754  1
  Se  Se210  1  0.07556657  0.75339109  0.80627145  1
  Se  Se211  1  0.41000129  0.07964802  0.30582897  1
  Se  Se212  1  0.41406091  0.08372692  0.79738754  1
  Se  Se213  1  0.42082907  0.41687850  0.31442607  1
  Se  Se214  1  0.41751132  0.42569754  0.81314808  1
  Se  Se215  1  0.42230796  0.74238131  0.30560518  1
  Se  Se216  1  0.40663043  0.74798041  0.79928604  1
  Se  Se217  1  0.74693133  0.08419647  0.30330166  1
  Se  Se218  1  0.76431243  0.08433081  0.80885908  1
  Se  Se219  1  0.77028325  0.42366433  0.31316666  1
  Se  Se220  1  0.74886116  0.41476637  0.79881160  1
  Se  Se221  1  0.76029155  0.74959873  0.31275170  1
  Se  Se222  1  0.75325838  0.74773715  0.80758716  1
  Se  Se223  1  0.24943771  0.08242376  0.20236188  1
  Se  Se224  1  0.25296897  0.08079923  0.69451185  1
  Se  Se225  1  0.23980495  0.41946986  0.18660317  1
  Se  Se226  1  0.23846974  0.42721533  0.69076681  1
  Se  Se227  1  0.27284344  0.71860736  0.19221451  1
  Se  Se228  1  0.24566979  0.74852073  0.69489313  1
  Se  Se229  1  0.58298030  0.08329356  0.19816840  1
  Se  Se230  1  0.58100027  0.08829272  0.68349368  1
  Se  Se231  1  0.58236751  0.42062693  0.20054086  1
  Se  Se232  1  0.58155320  0.41703609  0.69934699  1
  Se  Se233  1  0.57495373  0.76143996  0.18446973  1
  Se  Se234  1  0.57137226  0.76041064  0.68947200  1
  Se  Se235  1  0.91859745  0.08262328  0.20260369  1
  Se  Se236  1  0.91687552  0.08716873  0.68666723  1
  Se  Se237  1  0.92248964  0.41345534  0.19378226  1
  Se  Se238  1  0.92039693  0.41346436  0.69592394  1
  Se  Se239  1  0.91453191  0.74682187  0.20085753  1
  Se  Se240  1  0.91868631  0.74618474  0.69296260  1
  Se  Se241  1  0.07927069  0.25262718  0.20105426  1
  Se  Se242  1  0.08139586  0.24612580  0.69275418  1
  Se  Se243  1  0.06768735  0.59594433  0.19723237  1
  Se  Se244  1  0.07320024  0.58816413  0.69314999  1
  Se  Se245  1  0.09157757  0.89717482  0.20691882  1
  Se  Se246  1  0.08948802  0.90928951  0.68900085  1
  Se  Se247  1  0.42207421  0.24302147  0.19204792  1
  Se  Se248  1  0.41683611  0.24772018  0.68488100  1
  Se  Se249  1  0.41750678  0.57980749  0.20383295  1
  Se  Se250  1  0.40994840  0.58680812  0.69784217  1
  Se  Se251  1  0.41315289  0.91713246  0.19990245  1
  Se  Se252  1  0.40749049  0.92183609  0.69752108  1
  Se  Se253  1  0.76156683  0.25098371  0.19108275  1
  Se  Se254  1  0.74843564  0.25317733  0.69743861  1
  Se  Se255  1  0.75846317  0.57521745  0.19007934  1
  Se  Se256  1  0.76076632  0.58067192  0.68581115  1
  Se  Se257  1  0.74739766  0.92093113  0.19955109  1
  Se  Se258  1  0.75916862  0.91178488  0.69484474  1
