# generated using pymatgen
data_In86Cu29Se144
_symmetry_space_group_name_H-M   'P 1'
_cell_length_a   17.57046732
_cell_length_b   17.57001880
_cell_length_c   23.41938315
_cell_angle_alpha   90.00167085
_cell_angle_beta   89.99256091
_cell_angle_gamma   90.00447412
_symmetry_Int_Tables_number   1
_chemical_formula_structural   In86Cu29Se144
_chemical_formula_sum   'In86 Cu29 Se144'
_cell_volume   7229.87827981
_cell_formula_units_Z   1
loop_
 _symmetry_equiv_pos_site_id
 _symmetry_equiv_pos_as_xyz
  1  'x, y, z'
loop_
 _atom_site_type_symbol
 _atom_site_label
 _atom_site_symmetry_multiplicity
 _atom_site_fract_x
 _atom_site_fract_y
 _atom_site_fract_z
 _atom_site_occupancy
  In  In0  1  0.00813849  0.15883131  0.13924015  1
  In  In1  1  0.02325822  0.16707108  0.60898664  1
  In  In2  1  -0.00600117  0.50190801  0.13774860  1
  In  In3  1  -0.00172226  0.50186214  0.59779531  1
  In  In4  1  -0.00588973  0.85386765  0.12821471  1
  In  In5  1  -0.01847418  0.83606219  0.61265486  1
  In  In6  1  0.32925702  0.17607310  0.13207372  1
  In  In7  1  0.33876094  0.16243365  0.61429160  1
  In  In8  1  0.33225414  0.48618780  0.12750020  1
  In  In9  1  0.34157581  0.49167285  0.61207432  1
  In  In10  1  0.34793700  0.83660732  0.12795193  1
  In  In11  1  0.34253889  0.83428844  0.64089261  1
  In  In12  1  0.66919306  0.16355649  0.13725053  1
  In  In13  1  0.65668708  0.18312887  0.62848904  1
  In  In14  1  0.66440481  0.50712039  0.13252703  1
  In  In15  1  0.66197979  0.50137261  0.61744747  1
  In  In16  1  0.66791979  0.82658828  0.12937650  1
  In  In17  1  0.67769311  0.82138691  0.64616591  1
  In  In18  1  0.18105919  0.01956250  0.37381039  1
  In  In19  1  0.17443709  0.00762836  0.87187656  1
  In  In20  1  0.16871374  0.32357217  0.38786008  1
  In  In21  1  0.16873706  0.31873707  0.87724505  1
  In  In22  1  0.15587848  0.65135656  0.38085565  1
  In  In23  1  0.17500897  0.65563887  0.86547223  1
  In  In24  1  0.50426476  0.00200275  0.38036060  1
  In  In25  1  0.50044316  -0.00035187  0.86138948  1
  In  In26  1  0.50069327  0.33032322  0.37941569  1
  In  In27  1  0.50602139  0.34465166  0.86754989  1
  In  In28  1  0.50328961  0.64951422  0.37891863  1
  In  In29  1  0.49885864  0.65937353  0.86247967  1
  In  In30  1  0.82513479  -0.00752485  0.37190815  1
  In  In31  1  0.81999677  -0.00814943  0.87019329  1
  In  In32  1  0.84084879  0.34322337  0.37450359  1
  In  In33  1  0.83259668  0.34312877  0.87033748  1
  In  In34  1  0.83297018  0.67413678  0.38703522  1
  In  In35  1  0.83040477  0.68336976  0.87377903  1
  In  In36  1  0.01200070  0.17754941  0.37272348  1
  In  In37  1  0.01341079  0.17720874  0.87823896  1
  In  In38  1  0.01938665  0.47330005  0.40921780  1
  In  In39  1  0.00164077  0.49942412  0.87201089  1
  In  In40  1  -0.01548900  0.83216525  0.38181888  1
  In  In41  1  -0.01129377  0.83127789  0.87606954  1
  In  In42  1  0.33852545  0.17387603  0.38802646  1
  In  In43  1  0.32566515  0.16074228  0.87120069  1
  In  In44  1  0.35229493  0.46868938  0.40303107  1
  In  In45  1  0.34833183  0.50917740  0.86077785  1
  In  In46  1  0.32654826  0.84414362  0.37827689  1
  In  In47  1  0.34643496  0.84105524  0.85263550  1
  In  In48  1  0.65364595  0.15732172  0.37322231  1
  In  In49  1  0.65913222  0.16270983  0.86243898  1
  In  In50  1  0.66748819  0.50315825  0.37382543  1
  In  In51  1  0.65631391  0.48757754  0.86354837  1
  In  In52  1  0.67937245  0.83830351  0.37323136  1
  In  In53  1  0.67513662  0.84322786  0.85535165  1
  In  In54  1  0.15965263  0.01404518  0.13462948  1
  In  In55  1  0.17428123  0.01278971  0.61266538  1
  In  In56  1  0.18087638  0.32319350  0.13857685  1
  In  In57  1  0.19253782  0.34562257  0.58845323  1
  In  In58  1  0.16734153  0.65595546  0.12933419  1
  In  In59  1  0.17936258  0.66434315  0.62704701  1
  In  In60  1  0.49706261  0.00095954  0.13723949  1
  In  In61  1  0.49664411  0.00717727  0.63056897  1
  In  In62  1  0.49336192  0.33801474  0.12887021  1
  In  In63  1  0.49595606  0.33312409  0.61336491  1
  In  In64  1  0.51509309  0.66650801  0.12498239  1
  In  In65  1  0.50908957  0.66177644  0.63211818  1
  In  In66  1  0.83622557  -0.00314306  0.13156698  1
  In  In67  1  0.83241927  -0.01572593  0.61584087  1
  In  In68  1  0.83377732  0.33500028  0.14282445  1
  In  In69  1  0.81962425  0.33847362  0.62068323  1
  In  In70  1  0.81424132  0.66527135  0.12562340  1
  In  In71  1  0.82714819  0.66084132  0.61605171  1
  In  In72  1  0.50220061  0.83313635  -0.01441760  1
  In  In73  1  -0.00036751  0.32960366  0.74058746  1
  In  In74  1  0.00048046  0.00298310  0.73515556  1
  In  In75  1  0.33060719  0.66669182  0.25788518  1
  In  In76  1  0.16520638  0.83276497  0.50513530  1
  In  In77  1  0.83196216  0.49859446  -0.00169536  1
  In  In78  1  0.16902504  0.83552404  -0.00509445  1
  In  In79  1  -0.00976588  0.66420769  0.26386183  1
  In  In80  1  0.49797914  0.16873481  -0.00092227  1
  In  In81  1  0.50297128  0.83908211  0.51045589  1
  In  In82  1  0.16525248  0.49665902  -0.00385253  1
  In  In83  1  0.83433737  0.16290105  0.00124993  1
  In  In84  1  0.00224187  0.66549278  0.73911717  1
  In  In85  1  0.83722504  0.17012334  0.49525033  1
  Cu  Cu86  1  0.50269646  0.83738813  0.25648776  1
  Cu  Cu87  1  0.66555180  0.33378651  -0.00242149  1
  Cu  Cu88  1  0.66548387  -0.01275709  -0.00342122  1
  Cu  Cu89  1  0.32343153  0.00769267  -0.00039516  1
  Cu  Cu90  1  0.82447596  0.50221637  0.74142054  1
  Cu  Cu91  1  0.66182226  0.67362752  0.50509548  1
  Cu  Cu92  1  0.00931360  0.32439594  0.01181282  1
  Cu  Cu93  1  0.17817668  0.48522539  0.73600955  1
  Cu  Cu94  1  0.33172923  0.66163116  0.50312878  1
  Cu  Cu95  1  0.16506192  0.83921300  0.74582740  1
  Cu  Cu96  1  0.49791428  0.49558072  0.25660084  1
  Cu  Cu97  1  0.33607091  0.33588567  0.00383712  1
  Cu  Cu98  1  0.82930796  0.82999058  0.25293298  1
  Cu  Cu99  1  0.66406303  0.34009416  0.49672506  1
  Cu  Cu100  1  0.49387825  0.16988068  0.25752707  1
  Cu  Cu101  1  0.83244756  0.16327089  0.74036360  1
  Cu  Cu102  1  0.83896018  0.49782405  0.26147815  1
  Cu  Cu103  1  0.16994514  0.48754418  0.26933881  1
  Cu  Cu104  1  0.17706763  0.17306243  0.73965231  1
  Cu  Cu105  1  0.34098925  0.66402695  -0.01372225  1
  Cu  Cu106  1  0.66978424  -0.00030330  0.50109104  1
  Cu  Cu107  1  -0.00664730  0.68247208  0.00204708  1
  Cu  Cu108  1  0.49499263  0.17663121  0.74339741  1
  Cu  Cu109  1  0.49712481  0.48967747  0.73959871  1
  Cu  Cu110  1  0.17365442  0.17187967  0.25878680  1
  Cu  Cu111  1  0.16586060  0.84509873  0.25387273  1
  Cu  Cu112  1  -0.00622334  0.00448574  0.00781622  1
  Cu  Cu113  1  0.66446164  0.66423313  -0.00037808  1
  Cu  Cu114  1  0.83033013  0.16721197  0.26112160  1
  Se  Se115  1  0.07992815  0.08623839  0.05797616  1
  Se  Se116  1  0.06190462  0.05230025  0.54746886  1
  Se  Se117  1  0.08244340  0.41529981  0.06906876  1
  Se  Se118  1  0.06965663  0.39789306  0.54270834  1
  Se  Se119  1  0.08257571  0.74945627  0.06369095  1
  Se  Se120  1  0.07725239  0.73886296  0.56354967  1
  Se  Se121  1  0.41091928  0.07726517  0.06072368  1
  Se  Se122  1  0.43272331  0.08410220  0.55054419  1
  Se  Se123  1  0.42056754  0.42072206  0.05335822  1
  Se  Se124  1  0.40098413  0.39371293  0.53999741  1
  Se  Se125  1  0.41491335  0.74402053  0.05220964  1
  Se  Se126  1  0.40872705  0.74369638  0.56265623  1
  Se  Se127  1  0.73805820  0.07472672  0.05789343  1
  Se  Se128  1  0.74482389  0.08726611  0.56115201  1
  Se  Se129  1  0.74844150  0.40721794  0.06213686  1
  Se  Se130  1  0.74962346  0.42377459  0.54690856  1
  Se  Se131  1  0.74471473  0.75080433  0.05209594  1
  Se  Se132  1  0.74354594  0.75881046  0.55814423  1
  Se  Se133  1  0.25234351  0.25337522  0.05645594  1
  Se  Se134  1  0.23095575  0.21427197  0.54542500  1
  Se  Se135  1  0.25974540  0.59066411  0.05364628  1
  Se  Se136  1  0.24649674  0.57783267  0.55348048  1
  Se  Se137  1  0.25389187  0.92144939  0.06289699  1
  Se  Se138  1  0.26654254  0.91455169  0.56077841  1
  Se  Se139  1  0.59230119  0.25145896  0.06081566  1
  Se  Se140  1  0.58443601  0.25052625  0.54699422  1
  Se  Se141  1  0.58556384  0.57852544  0.05376104  1
  Se  Se142  1  0.57613533  0.58656208  0.55102973  1
  Se  Se143  1  0.57946953  0.91913745  0.06002505  1
  Se  Se144  1  0.59820477  0.92133216  0.56927760  1
  Se  Se145  1  0.91764887  0.25270719  0.06747924  1
  Se  Se146  1  0.92087893  0.25915217  0.56071913  1
  Se  Se147  1  0.92251740  0.59014206  0.06057345  1
  Se  Se148  1  0.91417701  0.59489906  0.54246067  1
  Se  Se149  1  0.90728269  0.91798118  0.05276580  1
  Se  Se150  1  0.92910994  0.93407083  0.54140834  1
  Se  Se151  1  0.08063844  0.24418987  0.45581999  1
  Se  Se152  1  0.09290862  0.24529067  0.95575685  1
  Se  Se153  1  0.07136960  0.59445781  0.45838497  1
  Se  Se154  1  0.07288875  0.59871662  0.94233748  1
  Se  Se155  1  0.09170465  0.91636432  0.43146673  1
  Se  Se156  1  0.07338952  0.92863495  0.93951894  1
  Se  Se157  1  0.40701181  0.27183736  0.45488417  1
  Se  Se158  1  0.41185917  0.25849978  0.93729054  1
  Se  Se159  1  0.42133678  0.58075996  0.45427147  1
  Se  Se160  1  0.42597896  0.57799903  0.93976630  1
  Se  Se161  1  0.40918485  0.92440702  0.45000674  1
  Se  Se162  1  0.40346715  0.92943497  0.93733605  1
  Se  Se163  1  0.74041393  0.25447826  0.43636476  1
  Se  Se164  1  0.74535553  0.25311831  0.93717058  1
  Se  Se165  1  0.74006137  0.59013874  0.44690648  1
  Se  Se166  1  0.74447702  0.58454330  0.93486883  1
  Se  Se167  1  0.75291407  0.91508227  0.45074638  1
  Se  Se168  1  0.74729382  0.90598636  0.94157535  1
  Se  Se169  1  0.25029391  0.09198629  0.45529118  1
  Se  Se170  1  0.24124833  0.09226589  0.94806215  1
  Se  Se171  1  0.23178146  0.42542658  0.45541279  1
  Se  Se172  1  0.26001764  0.41433855  0.93572255  1
  Se  Se173  1  0.25476547  0.74002158  0.44146773  1
  Se  Se174  1  0.26004722  0.74866336  0.93092278  1
  Se  Se175  1  0.58247377  0.08301410  0.45343622  1
  Se  Se176  1  0.58739026  0.07300534  0.94010701  1
  Se  Se177  1  0.58130110  0.42389562  0.44319085  1
  Se  Se178  1  0.58357816  0.41805136  0.94530224  1
  Se  Se179  1  0.58425697  0.75195654  0.44035750  1
  Se  Se180  1  0.59340106  0.74196204  0.93077588  1
  Se  Se181  1  0.91960477  0.08088056  0.43115608  1
  Se  Se182  1  0.92261991  0.07829275  0.93488918  1
  Se  Se183  1  0.89902003  0.41928759  0.45770302  1
  Se  Se184  1  0.93265207  0.40278846  0.94591682  1
  Se  Se185  1  0.91576845  0.75303186  0.45735435  1
  Se  Se186  1  0.90638286  0.76020971  0.95037234  1
  Se  Se187  1  0.25535777  0.25283136  0.31427362  1
  Se  Se188  1  0.25283273  0.25301900  0.80172292  1
  Se  Se189  1  0.25526519  0.57107264  0.32227830  1
  Se  Se190  1  0.25128604  0.57668074  0.79228116  1
  Se  Se191  1  0.25362470  0.92585056  0.30465461  1
  Se  Se192  1  0.24650711  0.92486905  0.79888240  1
  Se  Se193  1  0.58191956  0.25223520  0.30645920  1
  Se  Se194  1  0.58249164  0.25468079  0.79953442  1
  Se  Se195  1  0.58414783  0.58446782  0.30086695  1
  Se  Se196  1  0.58111509  0.57420926  0.79393826  1
  Se  Se197  1  0.58624593  0.91944332  0.31063279  1
  Se  Se198  1  0.57349982  0.90977064  0.79537072  1
  Se  Se199  1  0.91728911  0.25232099  0.30751726  1
  Se  Se200  1  0.91156544  0.23901037  0.80650917  1
  Se  Se201  1  0.91715341  0.56992235  0.32859949  1
  Se  Se202  1  0.91099061  0.57657185  0.80395849  1
  Se  Se203  1  0.91529385  0.91218273  0.30417904  1
  Se  Se204  1  0.91335075  0.91279632  0.80071123  1
  Se  Se205  1  0.08499825  0.08530690  0.30444602  1
  Se  Se206  1  0.08950503  0.09577182  0.79894710  1
  Se  Se207  1  0.08063840  0.40988734  0.32041672  1
  Se  Se208  1  0.09297932  0.41877942  0.80413007  1
  Se  Se209  1  0.09080354  0.75702908  0.31219288  1
  Se  Se210  1  0.08778994  0.75755202  0.80801271  1
  Se  Se211  1  0.41708933  0.08804249  0.31707164  1
  Se  Se212  1  0.41691615  0.09124595  0.80164912  1
  Se  Se213  1  0.41464933  0.41555785  0.31112117  1
  Se  Se214  1  0.41276404  0.40864664  0.79517835  1
  Se  Se215  1  0.42399728  0.75616378  0.31726193  1
  Se  Se216  1  0.40864882  0.73478750  0.79572947  1
  Se  Se217  1  0.74385960  0.07971220  0.30624112  1
  Se  Se218  1  0.75231956  0.08357795  0.79996562  1
  Se  Se219  1  0.74694834  0.41450124  0.30600808  1
  Se  Se220  1  0.74957909  0.41215727  0.79639321  1
  Se  Se221  1  0.75244138  0.74244585  0.30740647  1
  Se  Se222  1  0.74850259  0.74193212  0.79580702  1
  Se  Se223  1  0.25325043  0.08726314  0.20031948  1
  Se  Se224  1  0.25489941  0.08240143  0.68892876  1
  Se  Se225  1  0.25442736  0.41692539  0.20541180  1
  Se  Se226  1  0.25539032  0.40384735  0.67871333  1
  Se  Se227  1  0.24262649  0.75958291  0.19319988  1
  Se  Se228  1  0.24959729  0.74856436  0.70051447  1
  Se  Se229  1  0.57844722  0.08623303  0.20277326  1
  Se  Se230  1  0.58439615  0.09123729  0.69670592  1
  Se  Se231  1  0.58054516  0.41855963  0.19559999  1
  Se  Se232  1  0.58206749  0.41129824  0.68342900  1
  Se  Se233  1  0.58085106  0.75118940  0.20023483  1
  Se  Se234  1  0.56568231  0.76206967  0.69960878  1
  Se  Se235  1  0.91074705  0.08462865  0.20107643  1
  Se  Se236  1  0.91413017  0.09621964  0.67528639  1
  Se  Se237  1  0.92410962  0.41459589  0.20827906  1
  Se  Se238  1  0.91477851  0.42875975  0.68375100  1
  Se  Se239  1  0.91176100  0.75117699  0.19000321  1
  Se  Se240  1  0.90547581  0.75580571  0.68933117  1
  Se  Se241  1  0.08500556  0.25184924  0.20366642  1
  Se  Se242  1  0.09984615  0.25561193  0.67969742  1
  Se  Se243  1  0.09419515  0.57385168  0.20815016  1
  Se  Se244  1  0.08667039  0.56407224  0.68352471  1
  Se  Se245  1  0.07928163  0.92448486  0.20024795  1
  Se  Se246  1  0.08872991  0.90856827  0.67816123  1
  Se  Se247  1  0.41572356  0.25446912  0.19955270  1
  Se  Se248  1  0.41238035  0.25222392  0.68455122  1
  Se  Se249  1  0.42082240  0.58039269  0.19251247  1
  Se  Se250  1  0.41422777  0.57398647  0.68676316  1
  Se  Se251  1  0.41387499  0.91758369  0.20523679  1
  Se  Se252  1  0.42057260  0.92476025  0.70297509  1
  Se  Se253  1  0.74668869  0.25019894  0.20547310  1
  Se  Se254  1  0.75047640  0.25633998  0.69661043  1
  Se  Se255  1  0.75604374  0.57867486  0.20268963  1
  Se  Se256  1  0.74296608  0.58593153  0.68841890  1
  Se  Se257  1  0.74853118  0.91326592  0.19595077  1
  Se  Se258  1  0.75819466  0.92436867  0.69800607  1
