# generated using pymatgen
data_In86Cu29Se144
_symmetry_space_group_name_H-M   'P 1'
_cell_length_a   17.58309910
_cell_length_b   17.58179834
_cell_length_c   23.44730002
_cell_angle_alpha   89.99297077
_cell_angle_beta   90.00676024
_cell_angle_gamma   90.00037331
_symmetry_Int_Tables_number   1
_chemical_formula_structural   In86Cu29Se144
_chemical_formula_sum   'In86 Cu29 Se144'
_cell_volume   7248.55690213
_cell_formula_units_Z   1
loop_
 _symmetry_equiv_pos_site_id
 _symmetry_equiv_pos_as_xyz
  1  'x, y, z'
loop_
 _atom_site_type_symbol
 _atom_site_label
 _atom_site_symmetry_multiplicity
 _atom_site_fract_x
 _atom_site_fract_y
 _atom_site_fract_z
 _atom_site_occupancy
  In  In0  1  0.00171376  0.18159584  0.11630849  1
  In  In1  1  -0.00205307  0.16755006  0.62569426  1
  In  In2  1  0.00318648  0.50347926  0.11914721  1
  In  In3  1  0.00062753  0.49413272  0.62809922  1
  In  In4  1  -0.01825288  0.83171553  0.12806629  1
  In  In5  1  0.01156817  0.81864468  0.63546966  1
  In  In6  1  0.32453473  0.17877351  0.12301601  1
  In  In7  1  0.32365133  0.18564595  0.63100866  1
  In  In8  1  0.33230571  0.51057165  0.11272132  1
  In  In9  1  0.31391835  0.51663498  0.63858425  1
  In  In10  1  0.32551131  0.81475684  0.12454796  1
  In  In11  1  0.30574666  0.79956239  0.59558037  1
  In  In12  1  0.69373084  0.15413931  0.14203086  1
  In  In13  1  0.66862910  0.15517324  0.62216010  1
  In  In14  1  0.66076286  0.49190404  0.12434202  1
  In  In15  1  0.67836400  0.49335799  0.62369666  1
  In  In16  1  0.68842722  0.83272520  0.13435607  1
  In  In17  1  0.66160253  0.84552643  0.61325545  1
  In  In18  1  0.16171617  -0.00006191  0.38670032  1
  In  In19  1  0.15420902  0.01937789  0.87567763  1
  In  In20  1  0.15562652  0.34406729  0.38153249  1
  In  In21  1  0.15727626  0.33800150  0.87454929  1
  In  In22  1  0.16902272  0.66443831  0.37462071  1
  In  In23  1  0.16578613  0.65999092  0.86929662  1
  In  In24  1  0.50612444  -0.00913574  0.37329285  1
  In  In25  1  0.50388591  -0.00583153  0.87329734  1
  In  In26  1  0.50339994  0.32238153  0.37292400  1
  In  In27  1  0.49972371  0.35311400  0.87960757  1
  In  In28  1  0.50189552  0.67671050  0.37512759  1
  In  In29  1  0.48749620  0.65422638  0.87392640  1
  In  In30  1  0.84027191  0.01364516  0.36858110  1
  In  In31  1  0.84204776  -0.00635128  0.88091288  1
  In  In32  1  0.84474381  0.33150314  0.36888163  1
  In  In33  1  0.84829625  0.33446023  0.89016228  1
  In  In34  1  0.83103698  0.64960292  0.37392981  1
  In  In35  1  0.85334478  0.65158523  0.89536149  1
  In  In36  1  -0.01104066  0.17499866  0.38031357  1
  In  In37  1  -0.00344245  0.17282274  0.87455966  1
  In  In38  1  0.00200651  0.49748173  0.37189743  1
  In  In39  1  -0.00334924  0.50523915  0.87987177  1
  In  In40  1  0.01473278  0.83138410  0.37688165  1
  In  In41  1  -0.00606652  0.82289678  0.86851085  1
  In  In42  1  0.32928161  0.16453623  0.37795933  1
  In  In43  1  0.29780756  0.17561572  0.87863290  1
  In  In44  1  0.32123222  0.50003861  0.37691076  1
  In  In45  1  0.33239085  0.50129588  0.87391484  1
  In  In46  1  0.33748758  0.82551278  0.38522533  1
  In  In47  1  0.33588692  0.81953032  0.86801255  1
  In  In48  1  0.69789298  0.18784378  0.34945344  1
  In  In49  1  0.67590768  0.18089134  0.87913464  1
  In  In50  1  0.68384329  0.50344746  0.37218561  1
  In  In51  1  0.67179792  0.49234888  0.89132679  1
  In  In52  1  0.65587377  0.83086509  0.36989755  1
  In  In53  1  0.67124980  0.84347947  0.87721543  1
  In  In54  1  0.15628825  0.00647518  0.12513870  1
  In  In55  1  0.15801432  -0.00756745  0.62317072  1
  In  In56  1  0.15010191  0.33386197  0.10905757  1
  In  In57  1  0.15904733  0.33548450  0.62577573  1
  In  In58  1  0.17837884  0.65137351  0.13337269  1
  In  In59  1  0.16416197  0.65768969  0.62349898  1
  In  In60  1  0.50794974  0.01183759  0.12641243  1
  In  In61  1  0.50260094  -0.01145760  0.62048191  1
  In  In62  1  0.50954369  0.35598463  0.12565883  1
  In  In63  1  0.49326333  0.32568572  0.62763048  1
  In  In64  1  0.49083203  0.64704328  0.12788458  1
  In  In65  1  0.47581270  0.66213169  0.61650601  1
  In  In66  1  0.83065572  -0.00004601  0.12406700  1
  In  In67  1  0.82982411  0.01117466  0.62148365  1
  In  In68  1  0.83921764  0.33531428  0.12047188  1
  In  In69  1  0.85713192  0.35052412  0.61164148  1
  In  In70  1  0.84391600  0.67954745  0.12286804  1
  In  In71  1  0.84786800  0.65772830  0.63025886  1
  In  In72  1  0.67734094  0.33368754  0.75650710  1
  In  In73  1  0.49709824  0.50075544  0.49321507  1
  In  In74  1  0.66640976  0.66242048  0.24838192  1
  In  In75  1  0.50290041  0.15988159  0.49809254  1
  In  In76  1  0.50154330  0.17483921  0.00218111  1
  In  In77  1  0.67147426  0.66939502  0.74759189  1
  In  In78  1  0.33819377  -0.00675327  0.25877431  1
  In  In79  1  0.66671443  0.00033052  0.74721646  1
  In  In80  1  0.33034441  -0.00540090  0.74860224  1
  In  In81  1  0.50804944  0.82317216  0.00802803  1
  In  In82  1  -0.00201458  0.00021511  0.24665263  1
  In  In83  1  0.33327646  0.34433225  0.24548698  1
  In  In84  1  0.83623582  0.83257364  0.49935186  1
  In  In85  1  0.16279821  0.82748105  -0.00698441  1
  Cu  Cu86  1  0.16818338  0.81924158  0.25313342  1
  Cu  Cu87  1  0.83967105  0.83114172  0.75498781  1
  Cu  Cu88  1  0.84127178  0.49475734  0.24653227  1
  Cu  Cu89  1  -0.00147676  0.00047905  0.50411999  1
  Cu  Cu90  1  0.16105893  0.49759813  0.75293374  1
  Cu  Cu91  1  0.33082449  -0.00818258  -0.00439945  1
  Cu  Cu92  1  0.00346070  0.67337358  0.00279016  1
  Cu  Cu93  1  0.67139358  0.32945816  0.00788062  1
  Cu  Cu94  1  0.16431641  0.17126233  0.24955680  1
  Cu  Cu95  1  0.66747446  0.66716984  0.00927108  1
  Cu  Cu96  1  0.15526068  0.17713131  0.75112061  1
  Cu  Cu97  1  0.00408437  0.65499250  0.50242299  1
  Cu  Cu98  1  0.00069412  0.33267224  0.49883809  1
  Cu  Cu99  1  0.48946774  0.81945527  0.73910279  1
  Cu  Cu100  1  0.51353933  0.17158085  0.24683163  1
  Cu  Cu101  1  0.83825026  0.17052241  0.74784995  1
  Cu  Cu102  1  0.32290014  0.34184941  0.50664411  1
  Cu  Cu103  1  0.32199200  0.33650669  -0.00190496  1
  Cu  Cu104  1  0.66785515  0.66393738  0.49727585  1
  Cu  Cu105  1  -0.00404548  0.00950422  0.00339642  1
  Cu  Cu106  1  0.16935647  0.82982099  0.74399220  1
  Cu  Cu107  1  0.50027049  0.49896270  0.75245992  1
  Cu  Cu108  1  0.48335196  0.16910292  0.75478038  1
  Cu  Cu109  1  0.32917317  0.00664143  0.49964266  1
  Cu  Cu110  1  0.67070290  0.00868472  0.49060332  1
  Cu  Cu111  1  0.68029159  0.32798232  0.49416108  1
  Cu  Cu112  1  0.67943205  0.00467730  0.00358731  1
  Cu  Cu113  1  0.15737466  0.49653235  0.24870029  1
  Cu  Cu114  1  0.49492621  0.83219494  0.24857844  1
  Se  Se115  1  0.08505366  0.08893135  0.05303411  1
  Se  Se116  1  0.08234345  0.08434500  0.55701388  1
  Se  Se117  1  0.07202518  0.42156870  0.04100085  1
  Se  Se118  1  0.08169638  0.41748393  0.55319832  1
  Se  Se119  1  0.08243424  0.74948033  0.06752385  1
  Se  Se120  1  0.08043184  0.74462326  0.55543024  1
  Se  Se121  1  0.40730196  0.07712938  0.05654331  1
  Se  Se122  1  0.40706831  0.08339330  0.56504482  1
  Se  Se123  1  0.40997866  0.41021000  0.05474199  1
  Se  Se124  1  0.41234904  0.41703685  0.56215388  1
  Se  Se125  1  0.40671759  0.73243639  0.05298428  1
  Se  Se126  1  0.43554457  0.76979091  0.54976233  1
  Se  Se127  1  0.75882907  0.09281621  0.05449859  1
  Se  Se128  1  0.75274746  0.08843569  0.54647984  1
  Se  Se129  1  0.75143840  0.42150780  0.05462403  1
  Se  Se130  1  0.75466641  0.41776294  0.54857432  1
  Se  Se131  1  0.75233688  0.75562276  0.05391000  1
  Se  Se132  1  0.74768408  0.74125223  0.56221355  1
  Se  Se133  1  0.24280726  0.24705107  0.04868694  1
  Se  Se134  1  0.24176136  0.25106431  0.55472854  1
  Se  Se135  1  0.23804693  0.58279489  0.04803770  1
  Se  Se136  1  0.26186970  0.59262881  0.55464271  1
  Se  Se137  1  0.25152915  0.91766541  0.06076059  1
  Se  Se138  1  0.24699408  0.92161102  0.55178614  1
  Se  Se139  1  0.59164276  0.24999901  0.07016983  1
  Se  Se140  1  0.59287168  0.25757835  0.55636521  1
  Se  Se141  1  0.58191802  0.58204257  0.05643707  1
  Se  Se142  1  0.58832894  0.58538254  0.56080570  1
  Se  Se143  1  0.59477428  0.92400430  0.06132195  1
  Se  Se144  1  0.58414002  0.92558511  0.54085926  1
  Se  Se145  1  0.92072541  0.26092663  0.04591233  1
  Se  Se146  1  0.91708759  0.24502271  0.54985790  1
  Se  Se147  1  0.91667187  0.59033549  0.05354744  1
  Se  Se148  1  0.91683054  0.57609122  0.55528639  1
  Se  Se149  1  0.91654843  0.92075200  0.05473644  1
  Se  Se150  1  0.92326681  0.91556036  0.56563235  1
  Se  Se151  1  0.08388482  0.24695346  0.44624563  1
  Se  Se152  1  0.10150824  0.23115544  0.93874910  1
  Se  Se153  1  0.08570897  0.57801872  0.44225614  1
  Se  Se154  1  0.08318054  0.59223449  0.94545719  1
  Se  Se155  1  0.08147927  0.91328120  0.45398267  1
  Se  Se156  1  0.07237197  0.92522018  0.94116608  1
  Se  Se157  1  0.40698616  0.26015408  0.44847940  1
  Se  Se158  1  0.40613825  0.25527161  0.93817848  1
  Se  Se159  1  0.40636244  0.59546849  0.44073864  1
  Se  Se160  1  0.42452699  0.56748363  0.94650114  1
  Se  Se161  1  0.41317335  0.92708457  0.44385609  1
  Se  Se162  1  0.41502228  0.91205261  0.94171520  1
  Se  Se163  1  0.76001364  0.24597394  0.43879567  1
  Se  Se164  1  0.75660431  0.25034582  0.95333309  1
  Se  Se165  1  0.75379402  0.57804569  0.45185927  1
  Se  Se166  1  0.75142207  0.58245115  0.95636610  1
  Se  Se167  1  0.74884486  0.92001286  0.43497433  1
  Se  Se168  1  0.75504649  0.91501834  0.94995867  1
  Se  Se169  1  0.24523632  0.09100257  0.44894713  1
  Se  Se170  1  0.24386307  0.07931114  0.95167525  1
  Se  Se171  1  0.24221472  0.42284958  0.45022873  1
  Se  Se172  1  0.24472978  0.42037811  0.94147276  1
  Se  Se173  1  0.23652158  0.75850061  0.44470017  1
  Se  Se174  1  0.26050046  0.73753666  0.94236486  1
  Se  Se175  1  0.59423149  0.09013585  0.42812906  1
  Se  Se176  1  0.59176681  0.07747550  0.94256400  1
  Se  Se177  1  0.59309137  0.40803818  0.43916622  1
  Se  Se178  1  0.58320955  0.41354845  0.95823583  1
  Se  Se179  1  0.58713762  0.75111325  0.44733792  1
  Se  Se180  1  0.59184416  0.73983116  0.93743566  1
  Se  Se181  1  0.91657393  0.08059109  0.44832527  1
  Se  Se182  1  0.91362880  0.08919849  0.94549117  1
  Se  Se183  1  0.91874785  0.41528715  0.44248681  1
  Se  Se184  1  0.93520112  0.41526820  0.95761448  1
  Se  Se185  1  0.92311261  0.73770683  0.44144137  1
  Se  Se186  1  0.91964501  0.76068461  0.95238424  1
  Se  Se187  1  0.24709418  0.25059126  0.30900557  1
  Se  Se188  1  0.24336336  0.26019379  0.79946338  1
  Se  Se189  1  0.24424979  0.57654491  0.30198300  1
  Se  Se190  1  0.25114015  0.58068236  0.80060024  1
  Se  Se191  1  0.23895660  0.90958672  0.31288505  1
  Se  Se192  1  0.23799568  0.91093634  0.81382443  1
  Se  Se193  1  0.59072693  0.26255675  0.29652046  1
  Se  Se194  1  0.57395294  0.24577929  0.81090847  1
  Se  Se195  1  0.57731148  0.57637429  0.31254049  1
  Se  Se196  1  0.58832230  0.57320837  0.81091441  1
  Se  Se197  1  0.58242157  0.91544175  0.29700982  1
  Se  Se198  1  0.57110449  0.90014152  0.79895685  1
  Se  Se199  1  0.91549476  0.23856369  0.29993146  1
  Se  Se200  1  0.91061416  0.25620861  0.80723986  1
  Se  Se201  1  0.91872682  0.58135310  0.30193680  1
  Se  Se202  1  0.91957201  0.59290170  0.81021881  1
  Se  Se203  1  0.91701946  0.90770804  0.31136355  1
  Se  Se204  1  0.91996191  0.92083297  0.80418522  1
  Se  Se205  1  0.08949512  0.08653880  0.31018765  1
  Se  Se206  1  0.07363620  0.08774431  0.79970924  1
  Se  Se207  1  0.07872470  0.40879408  0.30085044  1
  Se  Se208  1  0.07393311  0.42056225  0.80669880  1
  Se  Se209  1  0.07901574  0.74090957  0.30420109  1
  Se  Se210  1  0.08744251  0.74994995  0.80281626  1
  Se  Se211  1  0.42889775  0.09636012  0.30815461  1
  Se  Se212  1  0.41073972  0.08699871  0.81749359  1
  Se  Se213  1  0.42256973  0.42243375  0.31403332  1
  Se  Se214  1  0.41481684  0.41558991  0.80315666  1
  Se  Se215  1  0.41454191  0.75380189  0.30617194  1
  Se  Se216  1  0.41467841  0.73678661  0.79847441  1
  Se  Se217  1  0.74773227  0.07101900  0.29556637  1
  Se  Se218  1  0.75405573  0.09062575  0.80839982  1
  Se  Se219  1  0.75597313  0.41639576  0.30230281  1
  Se  Se220  1  0.76225856  0.42430999  0.81821761  1
  Se  Se221  1  0.75565866  0.75149109  0.31012565  1
  Se  Se222  1  0.75724151  0.75351345  0.81449889  1
  Se  Se223  1  0.24850059  0.08679594  0.19662350  1
  Se  Se224  1  0.23938211  0.09149202  0.69418845  1
  Se  Se225  1  0.23644715  0.42061799  0.18245931  1
  Se  Se226  1  0.24393759  0.41497762  0.69744203  1
  Se  Se227  1  0.25668742  0.73946301  0.20284438  1
  Se  Se228  1  0.25098551  0.74667317  0.68972837  1
  Se  Se229  1  0.59194254  0.07828828  0.20076166  1
  Se  Se230  1  0.56586401  0.09160388  0.69376081  1
  Se  Se231  1  0.57756211  0.43146853  0.20369638  1
  Se  Se232  1  0.58074596  0.41903250  0.69268192  1
  Se  Se233  1  0.57523004  0.75414735  0.18599000  1
  Se  Se234  1  0.58092753  0.75176888  0.68054141  1
  Se  Se235  1  0.91616079  0.09558457  0.18711869  1
  Se  Se236  1  0.91470237  0.08099467  0.69471092  1
  Se  Se237  1  0.92478242  0.41683372  0.18964249  1
  Se  Se238  1  0.91661972  0.41316675  0.69791308  1
  Se  Se239  1  0.91160059  0.75340918  0.20361853  1
  Se  Se240  1  0.91897686  0.74407328  0.70187100  1
  Se  Se241  1  0.08794488  0.25272158  0.19037653  1
  Se  Se242  1  0.07237286  0.25692117  0.69515100  1
  Se  Se243  1  0.07673212  0.58513163  0.19633202  1
  Se  Se244  1  0.08164030  0.58174679  0.69599835  1
  Se  Se245  1  0.09370581  0.90393497  0.19236686  1
  Se  Se246  1  0.08254870  0.91737692  0.69992978  1
  Se  Se247  1  0.42506559  0.24650189  0.18881558  1
  Se  Se248  1  0.40788902  0.25970014  0.70340159  1
  Se  Se249  1  0.40550442  0.57289812  0.19657145  1
  Se  Se250  1  0.41912751  0.58390718  0.69939767  1
  Se  Se251  1  0.41869189  0.91141039  0.18391061  1
  Se  Se252  1  0.41085873  0.90548516  0.68311885  1
  Se  Se253  1  0.74145251  0.27352205  0.19148786  1
  Se  Se254  1  0.75308780  0.24437316  0.68676749  1
  Se  Se255  1  0.75978615  0.57800912  0.18729237  1
  Se  Se256  1  0.76110876  0.56902978  0.69833889  1
  Se  Se257  1  0.75834885  0.92295890  0.20178055  1
  Se  Se258  1  0.75845128  0.90600000  0.69016442  1
