# generated using pymatgen
data_In86Cu29Se144
_symmetry_space_group_name_H-M   'P 1'
_cell_length_a   17.61367542
_cell_length_b   17.60999305
_cell_length_c   23.46299358
_cell_angle_alpha   89.97437283
_cell_angle_beta   89.98094707
_cell_angle_gamma   90.00046476
_symmetry_Int_Tables_number   1
_chemical_formula_structural   In86Cu29Se144
_chemical_formula_sum   'In86 Cu29 Se144'
_cell_volume   7277.67283230
_cell_formula_units_Z   1
loop_
 _symmetry_equiv_pos_site_id
 _symmetry_equiv_pos_as_xyz
  1  'x, y, z'
loop_
 _atom_site_type_symbol
 _atom_site_label
 _atom_site_symmetry_multiplicity
 _atom_site_fract_x
 _atom_site_fract_y
 _atom_site_fract_z
 _atom_site_occupancy
  In  In0  1  0.00761042  0.16391376  0.12152762  1
  In  In1  1  0.00937712  0.16996186  0.63027639  1
  In  In2  1  0.00286297  0.50457402  0.11663928  1
  In  In3  1  -0.00341620  0.49575595  0.63435823  1
  In  In4  1  -0.00011766  0.83538382  0.10887191  1
  In  In5  1  -0.00090223  0.82100783  0.62652230  1
  In  In6  1  0.32701504  0.17823840  0.12137842  1
  In  In7  1  0.33368156  0.16977261  0.61328279  1
  In  In8  1  0.34250243  0.49858872  0.10994234  1
  In  In9  1  0.34405757  0.50416966  0.61865468  1
  In  In10  1  0.33191818  0.83080909  0.11614803  1
  In  In11  1  0.33172143  0.83573205  0.62796713  1
  In  In12  1  0.67599446  0.17438301  0.12868818  1
  In  In13  1  0.66041805  0.20270511  0.62258233  1
  In  In14  1  0.66941488  0.50313404  0.12513537  1
  In  In15  1  0.66628129  0.50007923  0.62926326  1
  In  In16  1  0.65511596  0.81775948  0.11395576  1
  In  In17  1  0.65568742  0.82480961  0.62580961  1
  In  In18  1  0.18117398  -0.00660198  0.39994221  1
  In  In19  1  0.17340077  -0.01500358  0.87596429  1
  In  In20  1  0.18069931  0.32254318  0.40352809  1
  In  In21  1  0.16367067  0.34702575  0.88337101  1
  In  In22  1  0.17413379  0.65789938  0.38586872  1
  In  In23  1  0.17004721  0.66979288  0.87029689  1
  In  In24  1  0.49070455  0.00068732  0.39155264  1
  In  In25  1  0.48904687  0.00188543  0.86865283  1
  In  In26  1  0.51662530  0.32854531  0.39400860  1
  In  In27  1  0.51185323  0.33219657  0.87077166  1
  In  In28  1  0.50981778  0.65670190  0.38699661  1
  In  In29  1  0.49891464  0.66423820  0.87287188  1
  In  In30  1  0.83776480  0.00283152  0.37463221  1
  In  In31  1  0.82447262  -0.00561169  0.88024502  1
  In  In32  1  0.82739501  0.35498766  0.38240794  1
  In  In33  1  0.86531098  0.37576899  0.82746650  1
  In  In34  1  0.81763120  0.66939625  0.37135604  1
  In  In35  1  0.83356640  0.66135054  0.87137892  1
  In  In36  1  0.00523306  0.16528726  0.38285614  1
  In  In37  1  0.00113039  0.19119429  0.86241498  1
  In  In38  1  0.00762644  0.48703868  0.38436740  1
  In  In39  1  0.00670599  0.51121844  0.86866503  1
  In  In40  1  0.00837719  0.83888418  0.37634256  1
  In  In41  1  0.00833458  0.82122971  0.87505021  1
  In  In42  1  0.34286958  0.16480502  0.40093211  1
  In  In43  1  0.33602548  0.14907127  0.86626428  1
  In  In44  1  0.34508612  0.48437004  0.40056478  1
  In  In45  1  0.32196423  0.50697988  0.87952131  1
  In  In46  1  0.33270852  0.83303344  0.39024806  1
  In  In47  1  0.33527953  0.83263158  0.87065785  1
  In  In48  1  0.65539221  0.17582617  0.38234765  1
  In  In49  1  0.67372919  0.18144998  0.86606492  1
  In  In50  1  0.66447701  0.50477214  0.37652677  1
  In  In51  1  0.66862142  0.49457285  0.87084654  1
  In  In52  1  0.66614653  0.81803568  0.37545891  1
  In  In53  1  0.67572041  0.81798603  0.88285462  1
  In  In54  1  0.16859317  0.00100685  0.11499872  1
  In  In55  1  0.18354818  0.01694875  0.61173868  1
  In  In56  1  0.17658144  0.33548847  0.10568825  1
  In  In57  1  0.16030152  0.32521379  0.62247636  1
  In  In58  1  0.16499160  0.66371951  0.11422451  1
  In  In59  1  0.16582872  0.66865292  0.62892007  1
  In  In60  1  0.50688087  -0.00627840  0.12537227  1
  In  In61  1  0.48420930  -0.00858948  0.60622560  1
  In  In62  1  0.50859819  0.35393077  0.11949923  1
  In  In63  1  0.51667148  0.35535556  0.59586638  1
  In  In64  1  0.50522216  0.66748076  0.12000772  1
  In  In65  1  0.50083740  0.66633129  0.62976692  1
  In  In66  1  0.84512971  0.00632958  0.11885220  1
  In  In67  1  0.83658336  -0.00233738  0.62429125  1
  In  In68  1  0.82210849  0.33639005  0.12711219  1
  In  In69  1  0.80378521  0.35957732  0.65792843  1
  In  In70  1  0.82335251  0.65264042  0.11208211  1
  In  In71  1  0.84410416  0.64405162  0.65567897  1
  In  In72  1  0.65507865  0.00371803  0.74570522  1
  In  In73  1  0.00027513  0.33218982  0.25219849  1
  In  In74  1  0.33562887  0.66585460  0.25438056  1
  In  In75  1  0.33581558  0.32880332  0.74306496  1
  In  In76  1  0.84351616  0.17069646  0.50928389  1
  In  In77  1  0.49842537  0.16262559  -0.00376024  1
  In  In78  1  0.01102799  -0.00540636  0.74522793  1
  In  In79  1  -0.00108406  0.00449273  0.25425491  1
  In  In80  1  -0.00734767  0.66416414  0.24376488  1
  In  In81  1  0.83316066  0.82041318  0.50418249  1
  In  In82  1  0.66366697  -0.00699333  0.24760904  1
  In  In83  1  0.33616303  0.33628587  0.25765910  1
  In  In84  1  0.83572894  0.16947802  -0.00249419  1
  In  In85  1  0.33382504  0.00206016  0.26548599  1
  Cu  Cu86  1  0.82390983  0.17969576  0.25561470  1
  Cu  Cu87  1  0.65793665  -0.00886739  -0.00392514  1
  Cu  Cu88  1  0.50993479  0.50295362  0.25333113  1
  Cu  Cu89  1  0.33232465  0.66923579  -0.00637937  1
  Cu  Cu90  1  0.50362205  0.18330287  0.25611559  1
  Cu  Cu91  1  0.00106045  0.66482332  -0.00731853  1
  Cu  Cu92  1  0.82386612  0.82739427  0.24067451  1
  Cu  Cu93  1  0.00156359  0.00034023  -0.00502760  1
  Cu  Cu94  1  0.17157202  0.16989487  0.25318881  1
  Cu  Cu95  1  0.16751254  0.50318562  0.75080311  1
  Cu  Cu96  1  0.17575503  0.83285214  0.74804053  1
  Cu  Cu97  1  0.33280905  0.67434718  0.50930176  1
  Cu  Cu98  1  0.49869508  0.83138800  0.74901282  1
  Cu  Cu99  1  0.66237968  0.65929886  -0.00494964  1
  Cu  Cu100  1  0.15952982  0.83148573  0.24806730  1
  Cu  Cu101  1  0.49686257  0.16468651  0.73593245  1
  Cu  Cu102  1  0.49945140  0.49662309  0.74580537  1
  Cu  Cu103  1  0.17453483  0.49178060  0.25300990  1
  Cu  Cu104  1  0.83186663  0.83067432  0.75446012  1
  Cu  Cu105  1  -0.00677828  0.65927112  0.51098059  1
  Cu  Cu106  1  0.50001484  0.82955031  0.25036078  1
  Cu  Cu107  1  0.67081368  0.66110636  0.50655902  1
  Cu  Cu108  1  -0.00898934  0.33754824  0.51085605  1
  Cu  Cu109  1  0.67287259  0.34176024  -0.00386343  1
  Cu  Cu110  1  0.17153998  0.16701964  0.74335583  1
  Cu  Cu111  1  0.82653302  0.50505623  0.25177227  1
  Cu  Cu112  1  -0.00478455  0.34321422  -0.01119163  1
  Cu  Cu113  1  0.67087639  -0.00102951  0.50322405  1
  Cu  Cu114  1  0.33130256  -0.00596530  -0.00618382  1
  Se  Se115  1  0.08273493  0.08381489  0.04921475  1
  Se  Se116  1  0.06845324  0.07653405  0.55949150  1
  Se  Se117  1  0.08133672  0.41845808  0.04862386  1
  Se  Se118  1  0.07866139  0.41948284  0.56139403  1
  Se  Se119  1  0.08483475  0.74881284  0.04709714  1
  Se  Se120  1  0.08141553  0.74551138  0.55493094  1
  Se  Se121  1  0.40825447  0.07235183  0.06024984  1
  Se  Se122  1  0.42270352  0.09525973  0.54383129  1
  Se  Se123  1  0.40064410  0.38829411  0.05218742  1
  Se  Se124  1  0.39247054  0.40034302  0.54817307  1
  Se  Se125  1  0.41663318  0.74617919  0.05316630  1
  Se  Se126  1  0.42119295  0.75303245  0.56117336  1
  Se  Se127  1  0.73785444  0.07638701  0.05460599  1
  Se  Se128  1  0.74341259  0.08240696  0.56348750  1
  Se  Se129  1  0.75457267  0.42192641  0.05395738  1
  Se  Se130  1  0.74993590  0.41172201  0.56513514  1
  Se  Se131  1  0.74746850  0.74558534  0.04715765  1
  Se  Se132  1  0.75312292  0.73277509  0.57079843  1
  Se  Se133  1  0.23778861  0.23021571  0.04550927  1
  Se  Se134  1  0.23657054  0.24487435  0.55077915  1
  Se  Se135  1  0.25255040  0.58320575  0.04947627  1
  Se  Se136  1  0.24999374  0.58752033  0.55916663  1
  Se  Se137  1  0.24688797  0.91231944  0.04943972  1
  Se  Se138  1  0.25369432  0.91435539  0.55400985  1
  Se  Se139  1  0.59495662  0.25339530  0.05358687  1
  Se  Se140  1  0.57979241  0.24640734  0.53831941  1
  Se  Se141  1  0.58205607  0.57756670  0.05379043  1
  Se  Se142  1  0.58242364  0.58289470  0.55950891  1
  Se  Se143  1  0.57472188  0.91097134  0.05114931  1
  Se  Se144  1  0.58845922  0.91148949  0.55270820  1
  Se  Se145  1  0.92550106  0.26355289  0.05952286  1
  Se  Se146  1  0.91411577  0.26436007  0.57681218  1
  Se  Se147  1  0.91813865  0.58074713  0.04684166  1
  Se  Se148  1  0.91036166  0.58189321  0.56798420  1
  Se  Se149  1  0.91303864  0.92066230  0.04592595  1
  Se  Se150  1  0.92308239  0.91695890  0.55636687  1
  Se  Se151  1  0.07194068  0.25157688  0.45628927  1
  Se  Se152  1  0.07830799  0.25287034  0.94353031  1
  Se  Se153  1  0.07643324  0.58541436  0.44886012  1
  Se  Se154  1  0.09056418  0.58492308  0.94189447  1
  Se  Se155  1  0.08101903  0.91271253  0.45128213  1
  Se  Se156  1  0.08277520  0.91174804  0.94390878  1
  Se  Se157  1  0.38888039  0.29266848  0.44179100  1
  Se  Se158  1  0.41274986  0.24785210  0.93222936  1
  Se  Se159  1  0.41618561  0.58950450  0.45582022  1
  Se  Se160  1  0.41617628  0.58285076  0.94407252  1
  Se  Se161  1  0.41285328  0.91548684  0.45694010  1
  Se  Se162  1  0.41933709  0.91585613  0.94144581  1
  Se  Se163  1  0.75178340  0.25489171  0.44560967  1
  Se  Se164  1  0.75413985  0.26167752  0.93710126  1
  Se  Se165  1  0.75314729  0.58453735  0.44616123  1
  Se  Se166  1  0.74845200  0.57991553  0.94058206  1
  Se  Se167  1  0.74856518  0.91873275  0.44092699  1
  Se  Se168  1  0.75029007  0.91035883  0.95060022  1
  Se  Se169  1  0.24483864  0.09480284  0.46176067  1
  Se  Se170  1  0.25111273  0.07865517  0.94026951  1
  Se  Se171  1  0.21660952  0.45069177  0.44647280  1
  Se  Se172  1  0.25955188  0.41193171  0.94995201  1
  Se  Se173  1  0.24473783  0.74995484  0.45331650  1
  Se  Se174  1  0.25004170  0.75399145  0.94122293  1
  Se  Se175  1  0.58776885  0.08104721  0.44889518  1
  Se  Se176  1  0.59254382  0.07941360  0.93298722  1
  Se  Se177  1  0.57841948  0.43594703  0.45053685  1
  Se  Se178  1  0.58197784  0.41711614  0.94405914  1
  Se  Se179  1  0.58911791  0.74830086  0.45253502  1
  Se  Se180  1  0.57782523  0.74672546  0.94630906  1
  Se  Se181  1  0.92559692  0.07050237  0.44825059  1
  Se  Se182  1  0.92589812  0.08350422  0.93383295  1
  Se  Se183  1  0.91329894  0.42294272  0.45517632  1
  Se  Se184  1  0.91555171  0.41876332  0.92773072  1
  Se  Se185  1  0.92431131  0.73770762  0.43791248  1
  Se  Se186  1  0.91507739  0.74719809  0.94103987  1
  Se  Se187  1  0.24916245  0.24340421  0.31853702  1
  Se  Se188  1  0.24581710  0.24725521  0.80982488  1
  Se  Se189  1  0.25357562  0.56990978  0.31399370  1
  Se  Se190  1  0.25398226  0.58584301  0.80153810  1
  Se  Se191  1  0.23729395  0.90639739  0.31316594  1
  Se  Se192  1  0.25709731  0.91978774  0.79937737  1
  Se  Se193  1  0.58694495  0.26292643  0.30917830  1
  Se  Se194  1  0.57642777  0.24257398  0.79677044  1
  Se  Se195  1  0.58671028  0.59248544  0.30581234  1
  Se  Se196  1  0.58017834  0.57777589  0.80481330  1
  Se  Se197  1  0.57248043  0.91335470  0.31369210  1
  Se  Se198  1  0.58211167  0.90705649  0.81153897  1
  Se  Se199  1  0.90998366  0.24804350  0.31784408  1
  Se  Se200  1  0.90133724  0.24026973  0.79364045  1
  Se  Se201  1  0.91473878  0.57423840  0.31258087  1
  Se  Se202  1  0.91347173  0.58091446  0.80049294  1
  Se  Se203  1  0.90484627  0.90320076  0.30297299  1
  Se  Se204  1  0.91361214  0.91398611  0.81015730  1
  Se  Se205  1  0.09601096  0.08570814  0.31345754  1
  Se  Se206  1  0.09333799  0.08825101  0.80869035  1
  Se  Se207  1  0.09842748  0.40974053  0.31350510  1
  Se  Se208  1  0.08797425  0.41669990  0.80459836  1
  Se  Se209  1  0.08778147  0.74518369  0.30763262  1
  Se  Se210  1  0.08781209  0.75114186  0.79875947  1
  Se  Se211  1  0.42687617  0.10025834  0.31596386  1
  Se  Se212  1  0.41821061  0.07894634  0.79041087  1
  Se  Se213  1  0.42675097  0.42726413  0.31477606  1
  Se  Se214  1  0.41781718  0.42000991  0.80849490  1
  Se  Se215  1  0.42194727  0.75573135  0.31619098  1
  Se  Se216  1  0.41641973  0.74739967  0.80290052  1
  Se  Se217  1  0.74908748  0.08855268  0.30965493  1
  Se  Se218  1  0.75525664  0.08243235  0.80593384  1
  Se  Se219  1  0.74612370  0.42030522  0.30530757  1
  Se  Se220  1  0.72499143  0.39495296  0.80033911  1
  Se  Se221  1  0.74243019  0.74843598  0.29656575  1
  Se  Se222  1  0.74669540  0.74586052  0.80346467  1
  Se  Se223  1  0.24772737  0.08507095  0.19399730  1
  Se  Se224  1  0.25801819  0.08940896  0.69028213  1
  Se  Se225  1  0.25014311  0.41867574  0.18650456  1
  Se  Se226  1  0.24456274  0.42248373  0.68772174  1
  Se  Se227  1  0.24208310  0.75305283  0.19044405  1
  Se  Se228  1  0.25692402  0.74558201  0.69674236  1
  Se  Se229  1  0.57459473  0.09541287  0.19415848  1
  Se  Se230  1  0.57757981  0.08664475  0.67370631  1
  Se  Se231  1  0.58893428  0.41875595  0.19667387  1
  Se  Se232  1  0.57427344  0.40935298  0.68892864  1
  Se  Se233  1  0.58098026  0.74851365  0.19449391  1
  Se  Se234  1  0.58498776  0.74598507  0.70188188  1
  Se  Se235  1  0.90671907  0.10131963  0.19598556  1
  Se  Se236  1  0.91251994  0.08366459  0.69493092  1
  Se  Se237  1  0.91284881  0.42822255  0.19285236  1
  Se  Se238  1  0.91811930  0.41705961  0.71106466  1
  Se  Se239  1  0.90968658  0.75592066  0.18038564  1
  Se  Se240  1  0.92197381  0.75175211  0.70447385  1
  Se  Se241  1  0.09577713  0.24828141  0.18988692  1
  Se  Se242  1  0.08357631  0.25522342  0.70241984  1
  Se  Se243  1  0.09550712  0.57330421  0.19312504  1
  Se  Se244  1  0.08217162  0.58536956  0.69721398  1
  Se  Se245  1  0.08403799  0.91378179  0.18832440  1
  Se  Se246  1  0.09923500  0.90953953  0.68283686  1
  Se  Se247  1  0.42427037  0.25126600  0.18917354  1
  Se  Se248  1  0.42944564  0.25528379  0.67576940  1
  Se  Se249  1  0.42123007  0.57356175  0.19208021  1
  Se  Se250  1  0.41469655  0.58173493  0.69661176  1
  Se  Se251  1  0.41661083  0.91228119  0.19563965  1
  Se  Se252  1  0.42406571  0.91844610  0.69224916  1
  Se  Se253  1  0.74251797  0.26169622  0.20221943  1
  Se  Se254  1  0.75711568  0.23160918  0.70089701  1
  Se  Se255  1  0.74921551  0.58952451  0.19487263  1
  Se  Se256  1  0.73215898  0.58313406  0.70699020  1
  Se  Se257  1  0.75376972  0.91421133  0.17970436  1
  Se  Se258  1  0.75314001  0.90881275  0.69208087  1
