# generated using pymatgen
data_In86Cu29Se144
_symmetry_space_group_name_H-M   'P 1'
_cell_length_a   17.57437414
_cell_length_b   17.57597377
_cell_length_c   23.43581863
_cell_angle_alpha   89.99470957
_cell_angle_beta   89.99152867
_cell_angle_gamma   89.97423880
_symmetry_Int_Tables_number   1
_chemical_formula_structural   In86Cu29Se144
_chemical_formula_sum   'In86 Cu29 Se144'
_cell_volume   7239.01275157
_cell_formula_units_Z   1
loop_
 _symmetry_equiv_pos_site_id
 _symmetry_equiv_pos_as_xyz
  1  'x, y, z'
loop_
 _atom_site_type_symbol
 _atom_site_label
 _atom_site_symmetry_multiplicity
 _atom_site_fract_x
 _atom_site_fract_y
 _atom_site_fract_z
 _atom_site_occupancy
  In  In0  1  -0.00493273  0.16858490  0.11941209  1
  In  In1  1  -0.00029828  0.16528357  0.64219617  1
  In  In2  1  0.00049660  0.49297420  0.12771063  1
  In  In3  1  0.00195472  0.50149931  0.62808255  1
  In  In4  1  -0.00944432  0.84339134  0.13157346  1
  In  In5  1  -0.01333108  0.83931982  0.63066648  1
  In  In6  1  0.33764570  0.17660688  0.11494399  1
  In  In7  1  0.33543525  0.16781904  0.63164791  1
  In  In8  1  0.33301748  0.50073143  0.11898943  1
  In  In9  1  0.34613739  0.51423905  0.61505001  1
  In  In10  1  0.34336392  0.83962643  0.12707782  1
  In  In11  1  0.32576007  0.82175999  0.62647380  1
  In  In12  1  0.66825708  0.16861464  0.12606076  1
  In  In13  1  0.66080290  0.15706477  0.63040614  1
  In  In14  1  0.65298921  0.49469238  0.12439222  1
  In  In15  1  0.68732474  0.52882724  0.60050523  1
  In  In16  1  0.68600427  0.83203825  0.12530096  1
  In  In17  1  0.67234021  0.82489918  0.61430871  1
  In  In18  1  0.16710859  0.00680715  0.37255463  1
  In  In19  1  0.15348258  0.01807872  0.87491684  1
  In  In20  1  0.16322835  0.34731228  0.37353212  1
  In  In21  1  0.16027669  0.33752054  0.87670901  1
  In  In22  1  0.14930489  0.66620310  0.37591587  1
  In  In23  1  0.15834657  0.65155033  0.86676456  1
  In  In24  1  0.51423924  -0.01471706  0.38540361  1
  In  In25  1  0.51585910  -0.00636792  0.87315506  1
  In  In26  1  0.51553017  0.33638888  0.36795535  1
  In  In27  1  0.50570993  0.33559817  0.88705893  1
  In  In28  1  0.51882144  0.66244347  0.39329739  1
  In  In29  1  0.49804560  0.65533944  0.86441137  1
  In  In30  1  0.82785971  -0.01016135  0.37052324  1
  In  In31  1  0.83432018  -0.00151939  0.87553947  1
  In  In32  1  0.84270405  0.34074660  0.36628316  1
  In  In33  1  0.83274274  0.31903684  0.88139382  1
  In  In34  1  0.83483757  0.65978157  0.38846602  1
  In  In35  1  0.84636202  0.67646660  0.86962462  1
  In  In36  1  -0.00176667  0.16406369  0.36247437  1
  In  In37  1  -0.00185431  0.16478201  0.87194397  1
  In  In38  1  -0.00416930  0.50185204  0.37559946  1
  In  In39  1  0.01331754  0.51440981  0.87061760  1
  In  In40  1  -0.00864993  0.82350381  0.37011974  1
  In  In41  1  -0.01707249  0.82089195  0.87008370  1
  In  In42  1  0.33206376  0.16225720  0.37396446  1
  In  In43  1  0.32698533  0.17400380  0.88243889  1
  In  In44  1  0.32967939  0.49946961  0.38255824  1
  In  In45  1  0.33383535  0.50020394  0.87564675  1
  In  In46  1  0.35830636  0.83343240  0.38214493  1
  In  In47  1  0.34321509  0.82712337  0.86688661  1
  In  In48  1  0.67032888  0.16721364  0.36374307  1
  In  In49  1  0.68184921  0.15541740  0.89053777  1
  In  In50  1  0.67633202  0.50299197  0.38313414  1
  In  In51  1  0.65577018  0.49704669  0.87463837  1
  In  In52  1  0.67076764  0.83772361  0.39278717  1
  In  In53  1  0.68202442  0.83984729  0.86796991  1
  In  In54  1  0.14760840  0.00141942  0.12149060  1
  In  In55  1  0.15998554  -0.00872084  0.63058042  1
  In  In56  1  0.15919262  0.32777326  0.11645173  1
  In  In57  1  0.14707275  0.33671021  0.63113242  1
  In  In58  1  0.15922299  0.65165260  0.11881350  1
  In  In59  1  0.17656277  0.66021480  0.63296296  1
  In  In60  1  0.50180290  0.01464681  0.12708681  1
  In  In61  1  0.51719369  -0.00560523  0.62271937  1
  In  In62  1  0.51631571  0.34558751  0.11312530  1
  In  In63  1  0.49380352  0.34115105  0.62502771  1
  In  In64  1  0.50757034  0.65741282  0.12305178  1
  In  In65  1  0.50374982  0.66738978  0.62189610  1
  In  In66  1  0.83138011  0.00293439  0.12482190  1
  In  In67  1  0.83576004  -0.00722185  0.62449336  1
  In  In68  1  0.84240361  0.32941774  0.12789593  1
  In  In69  1  0.83327269  0.34823294  0.62684819  1
  In  In70  1  0.83568381  0.68101579  0.12033147  1
  In  In71  1  0.83393421  0.66878935  0.62494997  1
  In  In72  1  0.16685086  0.82944054  0.50603505  1
  In  In73  1  0.32858579  0.33884172  0.75883731  1
  In  In74  1  0.16581136  0.17183568  0.49599699  1
  In  In75  1  0.33134076  0.33215236  0.25564688  1
  In  In76  1  0.83335612  0.16563752  0.50364193  1
  In  In77  1  0.33228506  0.00087840  0.25445502  1
  In  In78  1  0.49794558  0.16996468  0.49719000  1
  In  In79  1  0.50355303  0.83242296  -0.00486309  1
  In  In80  1  0.32743299  -0.00373217  0.74767486  1
  In  In81  1  0.33166527  0.66694525  0.24361141  1
  In  In82  1  0.66611077  0.33579522  0.75380424  1
  In  In83  1  0.83285565  0.49897589  0.00332571  1
  In  In84  1  0.16091324  0.83054030  -0.00645883  1
  In  In85  1  0.67626267  0.66363412  0.25860273  1
  Cu  Cu86  1  0.66896523  0.33794663  0.49674100  1
  Cu  Cu87  1  0.51654412  0.82924125  0.26162683  1
  Cu  Cu88  1  0.16176975  0.83225834  0.25043949  1
  Cu  Cu89  1  0.00044189  0.33436105  -0.00066968  1
  Cu  Cu90  1  -0.01027582  0.00633250  -0.00023181  1
  Cu  Cu91  1  0.83668556  0.16540255  0.24339417  1
  Cu  Cu92  1  0.33427239  0.65709499  -0.00616207  1
  Cu  Cu93  1  0.83799979  0.50225848  0.74570791  1
  Cu  Cu94  1  0.15665298  0.83139115  0.75068147  1
  Cu  Cu95  1  0.83217661  0.50545094  0.25365060  1
  Cu  Cu96  1  0.50897500  0.16663734  0.24660832  1
  Cu  Cu97  1  0.82695884  0.83033648  0.74613949  1
  Cu  Cu98  1  0.17136291  0.49937455  0.74981142  1
  Cu  Cu99  1  0.66981582  0.00154922  0.00045142  1
  Cu  Cu100  1  0.83763156  0.83807079  0.25062228  1
  Cu  Cu101  1  0.32583938  0.00533976  -0.00002267  1
  Cu  Cu102  1  -0.00007227  -0.00315542  0.50313108  1
  Cu  Cu103  1  0.15661099  0.16339908  0.23974737  1
  Cu  Cu104  1  0.33177697  0.66692538  0.50372292  1
  Cu  Cu105  1  0.82920176  0.16102451  0.75773791  1
  Cu  Cu106  1  0.32699855  0.33979703  0.50050771  1
  Cu  Cu107  1  0.50853859  0.50629179  0.74081708  1
  Cu  Cu108  1  0.33054745  0.33489833  -0.00215843  1
  Cu  Cu109  1  -0.00098144  0.66086493  0.50314945  1
  Cu  Cu110  1  0.50550289  0.15953778  0.75778883  1
  Cu  Cu111  1  0.50812537  0.82469178  0.74645536  1
  Cu  Cu112  1  0.15786473  0.49885515  0.24866070  1
  Cu  Cu113  1  0.66874994  0.66614657  -0.00104936  1
  Cu  Cu114  1  -0.00722586  0.34431720  0.50069963  1
  Se  Se115  1  0.08025727  0.08753043  0.04840957  1
  Se  Se116  1  0.07723994  0.08189471  0.56032501  1
  Se  Se117  1  0.08206620  0.42071429  0.05183083  1
  Se  Se118  1  0.08289133  0.41970973  0.55422366  1
  Se  Se119  1  0.07496778  0.75084714  0.06171986  1
  Se  Se120  1  0.07602445  0.74235264  0.56640454  1
  Se  Se121  1  0.41556709  0.08090309  0.05303673  1
  Se  Se122  1  0.41427514  0.08113844  0.56319273  1
  Se  Se123  1  0.41498549  0.41697682  0.05180990  1
  Se  Se124  1  0.41858432  0.41747642  0.54988497  1
  Se  Se125  1  0.41026868  0.74055829  0.05581357  1
  Se  Se126  1  0.41359795  0.75151824  0.55591961  1
  Se  Se127  1  0.75106278  0.08644713  0.05479069  1
  Se  Se128  1  0.73955327  0.07485394  0.55735058  1
  Se  Se129  1  0.74408323  0.40835457  0.06161044  1
  Se  Se130  1  0.75718995  0.41768855  0.54844294  1
  Se  Se131  1  0.75227608  0.75378016  0.04622672  1
  Se  Se132  1  0.74254148  0.72707670  0.54789902  1
  Se  Se133  1  0.24553311  0.24909435  0.04816060  1
  Se  Se134  1  0.25404454  0.25779510  0.56281996  1
  Se  Se135  1  0.24849307  0.57980447  0.04951129  1
  Se  Se136  1  0.24400904  0.58368596  0.55248442  1
  Se  Se137  1  0.25295848  0.91946233  0.05925356  1
  Se  Se138  1  0.25699410  0.92650088  0.56018397  1
  Se  Se139  1  0.56129263  0.22555853  0.06191723  1
  Se  Se140  1  0.59213359  0.25805764  0.55995229  1
  Se  Se141  1  0.58458434  0.58142360  0.04884152  1
  Se  Se142  1  0.56073159  0.56452008  0.55417843  1
  Se  Se143  1  0.58872827  0.91948616  0.06110198  1
  Se  Se144  1  0.58308168  0.90928836  0.54956298  1
  Se  Se145  1  0.91328311  0.25161176  0.04954874  1
  Se  Se146  1  0.92555929  0.25457856  0.56307668  1
  Se  Se147  1  0.92467770  0.59040295  0.05890676  1
  Se  Se148  1  0.91600323  0.57899261  0.55818038  1
  Se  Se149  1  0.91353566  0.91806501  0.05505851  1
  Se  Se150  1  0.91393978  0.91185711  0.55082635  1
  Se  Se151  1  0.06893765  0.25916795  0.43964632  1
  Se  Se152  1  0.07949244  0.24927901  0.94252378  1
  Se  Se153  1  0.08173235  0.57895161  0.44828094  1
  Se  Se154  1  0.08683195  0.58683377  0.94883085  1
  Se  Se155  1  0.08115362  0.91932465  0.44087649  1
  Se  Se156  1  0.06915297  0.92359293  0.93864854  1
  Se  Se157  1  0.40670882  0.26303474  0.43693807  1
  Se  Se158  1  0.41674027  0.24993876  0.94855336  1
  Se  Se159  1  0.41378260  0.58538464  0.44687419  1
  Se  Se160  1  0.42443519  0.57931496  0.94227737  1
  Se  Se161  1  0.40841108  0.93460471  0.45012749  1
  Se  Se162  1  0.40663847  0.92485465  0.94033632  1
  Se  Se163  1  0.74855079  0.25524203  0.43833392  1
  Se  Se164  1  0.73583806  0.26426236  0.95159175  1
  Se  Se165  1  0.72934420  0.60506943  0.45396280  1
  Se  Se166  1  0.74908534  0.58769098  0.93681109  1
  Se  Se167  1  0.76409994  0.91922008  0.45291875  1
  Se  Se168  1  0.75130190  0.91612521  0.94699509  1
  Se  Se169  1  0.26018727  0.07345395  0.44756560  1
  Se  Se170  1  0.24247872  0.08684199  0.94652551  1
  Se  Se171  1  0.24017903  0.42109997  0.44928108  1
  Se  Se172  1  0.24918028  0.41799987  0.94236898  1
  Se  Se173  1  0.25518040  0.74491821  0.43747454  1
  Se  Se174  1  0.25807693  0.74323188  0.93641069  1
  Se  Se175  1  0.59827517  0.08552890  0.44365957  1
  Se  Se176  1  0.57937860  0.07927997  0.94868972  1
  Se  Se177  1  0.58254426  0.41814598  0.44430797  1
  Se  Se178  1  0.59144880  0.41646811  0.95199772  1
  Se  Se179  1  0.56363606  0.77549385  0.45327553  1
  Se  Se180  1  0.59016844  0.74363376  0.93374004  1
  Se  Se181  1  0.92608242  0.08111579  0.44084330  1
  Se  Se182  1  0.90951478  0.08979981  0.94349381  1
  Se  Se183  1  0.90800367  0.42233462  0.44508477  1
  Se  Se184  1  0.92449458  0.41706907  0.93721906  1
  Se  Se185  1  0.92112476  0.74985487  0.45000848  1
  Se  Se186  1  0.91433164  0.74935862  0.95028814  1
  Se  Se187  1  0.23324961  0.23743787  0.30801107  1
  Se  Se188  1  0.23797180  0.24020740  0.80646226  1
  Se  Se189  1  0.24141091  0.57859417  0.30714725  1
  Se  Se190  1  0.25768067  0.58173672  0.80203434  1
  Se  Se191  1  0.24842120  0.90124720  0.31359643  1
  Se  Se192  1  0.23737041  0.91054720  0.81315248  1
  Se  Se193  1  0.59114547  0.25448301  0.29643734  1
  Se  Se194  1  0.58298495  0.24245380  0.81644780  1
  Se  Se195  1  0.57763707  0.57749246  0.31109014  1
  Se  Se196  1  0.59350131  0.58402670  0.79767263  1
  Se  Se197  1  0.59841814  0.91430912  0.31177527  1
  Se  Se198  1  0.58758947  0.91177742  0.79977120  1
  Se  Se199  1  0.91799903  0.25178676  0.29775898  1
  Se  Se200  1  0.91222352  0.25029250  0.80413821  1
  Se  Se201  1  0.91167634  0.58900011  0.30959735  1
  Se  Se202  1  0.92044482  0.58492619  0.80143753  1
  Se  Se203  1  0.92390834  0.92080156  0.30304106  1
  Se  Se204  1  0.90950562  0.91330703  0.80273588  1
  Se  Se205  1  0.08335958  0.07671400  0.29877969  1
  Se  Se206  1  0.06987000  0.07852186  0.79856781  1
  Se  Se207  1  0.07447297  0.41648153  0.30290815  1
  Se  Se208  1  0.08503440  0.41940778  0.80288097  1
  Se  Se209  1  0.07851221  0.74590924  0.30030526  1
  Se  Se210  1  0.07787217  0.74538427  0.80510546  1
  Se  Se211  1  0.43174795  0.08713413  0.31139585  1
  Se  Se212  1  0.41578595  0.08373079  0.81352127  1
  Se  Se213  1  0.42080936  0.42766920  0.30908220  1
  Se  Se214  1  0.43508568  0.42317772  0.80610057  1
  Se  Se215  1  0.42979692  0.74338017  0.30962290  1
  Se  Se216  1  0.41946291  0.74443366  0.79687266  1
  Se  Se217  1  0.75752480  0.08271535  0.30143681  1
  Se  Se218  1  0.74337253  0.07871341  0.80785031  1
  Se  Se219  1  0.74768090  0.42257267  0.30629466  1
  Se  Se220  1  0.76202330  0.42345803  0.81134385  1
  Se  Se221  1  0.76015393  0.75966636  0.31596816  1
  Se  Se222  1  0.74936883  0.74281708  0.80106296  1
  Se  Se223  1  0.24792948  0.08714174  0.18583623  1
  Se  Se224  1  0.23648710  0.09303293  0.69464195  1
  Se  Se225  1  0.24301909  0.42034610  0.19075634  1
  Se  Se226  1  0.25244581  0.42379474  0.68566260  1
  Se  Se227  1  0.24124758  0.75951234  0.18497359  1
  Se  Se228  1  0.24849548  0.75097702  0.70336861  1
  Se  Se229  1  0.59251575  0.07845138  0.19875957  1
  Se  Se230  1  0.58337794  0.07570157  0.70178591  1
  Se  Se231  1  0.58033041  0.41370544  0.19758002  1
  Se  Se232  1  0.58980526  0.42427138  0.68394302  1
  Se  Se233  1  0.58463895  0.75207077  0.19121375  1
  Se  Se234  1  0.59127084  0.74617565  0.68950620  1
  Se  Se235  1  0.92139335  0.08188151  0.19158263  1
  Se  Se236  1  0.90791035  0.07824812  0.69812097  1
  Se  Se237  1  0.91346164  0.41975764  0.19887764  1
  Se  Se238  1  0.92238514  0.41415938  0.69870022  1
  Se  Se239  1  0.91576434  0.74883454  0.19832045  1
  Se  Se240  1  0.91594988  0.74598084  0.69829235  1
  Se  Se241  1  0.07779487  0.25307022  0.18996751  1
  Se  Se242  1  0.08251110  0.25161863  0.70441010  1
  Se  Se243  1  0.07747573  0.58531434  0.19605194  1
  Se  Se244  1  0.08490547  0.58341330  0.69840654  1
  Se  Se245  1  0.08192076  0.92013905  0.19893541  1
  Se  Se246  1  0.07446110  0.91734568  0.70002167  1
  Se  Se247  1  0.41962223  0.24470561  0.19360788  1
  Se  Se248  1  0.42800730  0.24559681  0.70098632  1
  Se  Se249  1  0.42564589  0.57179501  0.19330427  1
  Se  Se250  1  0.41682422  0.58771759  0.69434495  1
  Se  Se251  1  0.43332222  0.90933138  0.20098135  1
  Se  Se252  1  0.42320997  0.90847468  0.69055089  1
  Se  Se253  1  0.75182822  0.25159455  0.19466059  1
  Se  Se254  1  0.75619007  0.24330462  0.69165432  1
  Se  Se255  1  0.75584407  0.57972478  0.18559016  1
  Se  Se256  1  0.75012981  0.58073999  0.69239936  1
  Se  Se257  1  0.75157976  0.91945022  0.19833283  1
  Se  Se258  1  0.74614995  0.91128990  0.68847574  1
