# generated using pymatgen
data_In86Cu29Se144
_symmetry_space_group_name_H-M   'P 1'
_cell_length_a   17.58647178
_cell_length_b   17.58762132
_cell_length_c   23.44958741
_cell_angle_alpha   89.97233495
_cell_angle_beta   90.01158254
_cell_angle_gamma   89.98330128
_symmetry_Int_Tables_number   1
_chemical_formula_structural   In86Cu29Se144
_chemical_formula_sum   'In86 Cu29 Se144'
_cell_volume   7253.05471296
_cell_formula_units_Z   1
loop_
 _symmetry_equiv_pos_site_id
 _symmetry_equiv_pos_as_xyz
  1  'x, y, z'
loop_
 _atom_site_type_symbol
 _atom_site_label
 _atom_site_symmetry_multiplicity
 _atom_site_fract_x
 _atom_site_fract_y
 _atom_site_fract_z
 _atom_site_occupancy
  In  In0  1  0.00196572  0.16468716  0.12178890  1
  In  In1  1  0.00905737  0.16429168  0.62888226  1
  In  In2  1  -0.01167589  0.50841776  0.12692428  1
  In  In3  1  -0.02055921  0.51492587  0.64476137  1
  In  In4  1  0.00191427  0.83209912  0.11394363  1
  In  In5  1  -0.00889067  0.82493623  0.61429153  1
  In  In6  1  0.33205441  0.17709657  0.12860427  1
  In  In7  1  0.31388713  0.16733993  0.62166014  1
  In  In8  1  0.33816472  0.49353287  0.13091276  1
  In  In9  1  0.34582387  0.50310789  0.62054622  1
  In  In10  1  0.31450319  0.83696435  0.12298784  1
  In  In11  1  0.32542962  0.84037883  0.63390359  1
  In  In12  1  0.66839435  0.14790507  0.13287141  1
  In  In13  1  0.67362885  0.16352965  0.62415551  1
  In  In14  1  0.67710261  0.51420061  0.11777041  1
  In  In15  1  0.67986189  0.52166623  0.61275620  1
  In  In16  1  0.68756689  0.81877233  0.13894103  1
  In  In17  1  0.66796724  0.80871540  0.62488022  1
  In  In18  1  0.16068774  0.00558616  0.37972331  1
  In  In19  1  0.16691950  -0.01016347  0.89074169  1
  In  In20  1  0.15310635  0.32721702  0.36398813  1
  In  In21  1  0.15257255  0.33829402  0.87806912  1
  In  In22  1  0.18170493  0.66526738  0.37520689  1
  In  In23  1  0.17029381  0.66953981  0.86749356  1
  In  In24  1  0.50481223  -0.01335188  0.37279215  1
  In  In25  1  0.49056827  0.00477919  0.87143202  1
  In  In26  1  0.50373658  0.35473370  0.37595926  1
  In  In27  1  0.51316433  0.33455252  0.87987907  1
  In  In28  1  0.49570542  0.65987442  0.36736284  1
  In  In29  1  0.48886235  0.66083242  0.86859838  1
  In  In30  1  0.83272129  -0.01717013  0.35814901  1
  In  In31  1  0.86511316  -0.02533164  0.90690639  1
  In  In32  1  0.84774928  0.33254772  0.37216092  1
  In  In33  1  0.83952407  0.33411975  0.88422483  1
  In  In34  1  0.82587933  0.67939372  0.37663281  1
  In  In35  1  0.83715101  0.66533102  0.87011241  1
  In  In36  1  0.01179162  0.16878684  0.36678190  1
  In  In37  1  -0.00478216  0.16874468  0.89041416  1
  In  In38  1  -0.00013236  0.48447350  0.37314407  1
  In  In39  1  -0.00964556  0.49515944  0.86601313  1
  In  In40  1  -0.00720820  0.84291528  0.37736155  1
  In  In41  1  0.01778810  0.81172720  0.90014043  1
  In  In42  1  0.31353393  0.16199890  0.37519305  1
  In  In43  1  0.33298404  0.15196970  0.87548258  1
  In  In44  1  0.33590708  0.51149168  0.36416373  1
  In  In45  1  0.33281450  0.51596339  0.87361587  1
  In  In46  1  0.33719654  0.82025568  0.37581804  1
  In  In47  1  0.32076924  0.82001715  0.86516646  1
  In  In48  1  0.67921814  0.16264206  0.36872843  1
  In  In49  1  0.67364511  0.17101606  0.88284805  1
  In  In50  1  0.66440495  0.51296599  0.37803812  1
  In  In51  1  0.66575667  0.50382047  0.88101274  1
  In  In52  1  0.67916430  0.83456038  0.36080157  1
  In  In53  1  0.68163647  0.82800575  0.87425509  1
  In  In54  1  0.14555860  -0.01222393  0.10641784  1
  In  In55  1  0.16457289  0.00340180  0.61995395  1
  In  In56  1  0.17631143  0.32569272  0.13352252  1
  In  In57  1  0.15756402  0.32349189  0.62276773  1
  In  In58  1  0.15765374  0.68051179  0.12485237  1
  In  In59  1  0.15227693  0.67580531  0.63003691  1
  In  In60  1  0.51330469  0.00918126  0.13265031  1
  In  In61  1  0.49567019  -0.02955396  0.62908120  1
  In  In62  1  0.48444939  0.33218710  0.13008874  1
  In  In63  1  0.48851794  0.34690946  0.62104402  1
  In  In64  1  0.51012607  0.66195012  0.12627823  1
  In  In65  1  0.51113970  0.66328820  0.63539768  1
  In  In66  1  0.83658402  -0.00270089  0.12044610  1
  In  In67  1  0.85007329  -0.00390526  0.62477865  1
  In  In68  1  0.84321115  0.34544764  0.12197078  1
  In  In69  1  0.82715115  0.34820018  0.63091313  1
  In  In70  1  0.83834741  0.65973992  0.11746758  1
  In  In71  1  0.83145190  0.66541010  0.62521067  1
  In  In72  1  0.32855331  0.33637693  0.74340047  1
  In  In73  1  0.50137647  0.83246893  -0.00014385  1
  In  In74  1  0.33569303  0.00248715  0.24841906  1
  In  In75  1  0.50306268  0.17294410  0.00919990  1
  In  In76  1  0.84347552  0.16987267  0.48858920  1
  In  In77  1  0.16172670  0.49651216  0.49718719  1
  In  In78  1  0.16220035  0.50460590  0.00081616  1
  In  In79  1  0.00007863  0.66850881  0.24605312  1
  In  In80  1  0.00469864  -0.00493958  0.76416658  1
  In  In81  1  0.49519386  0.16959144  0.50150252  1
  In  In82  1  0.66574418  0.33607495  0.75764917  1
  In  In83  1  0.66333798  0.32971997  0.24920383  1
  In  In84  1  0.67151688  -0.00325720  0.75847197  1
  In  In85  1  0.50157062  0.82491300  0.50262902  1
  Cu  Cu86  1  0.49455695  0.15378798  0.74544821  1
  Cu  Cu87  1  0.32727608  -0.00316368  0.00130245  1
  Cu  Cu88  1  0.50057823  0.50248947  0.24823572  1
  Cu  Cu89  1  0.33377336  0.66420583  0.49803667  1
  Cu  Cu90  1  0.83177221  0.82457953  0.74790344  1
  Cu  Cu91  1  0.67690755  -0.00418766  0.49083001  1
  Cu  Cu92  1  0.16119551  0.83781262  0.75258348  1
  Cu  Cu93  1  0.67060515  0.66566814  0.49803722  1
  Cu  Cu94  1  0.33429566  0.33748693  0.00633980  1
  Cu  Cu95  1  0.83243937  0.50271719  0.24624490  1
  Cu  Cu96  1  0.16809194  0.16473186  0.74986341  1
  Cu  Cu97  1  0.67059555  -0.00177417  0.00598159  1
  Cu  Cu98  1  0.00318240  -0.00435209  0.49741067  1
  Cu  Cu99  1  0.67146268  0.34139084  0.00459623  1
  Cu  Cu100  1  0.16510938  0.50461196  0.75259356  1
  Cu  Cu101  1  0.50255438  0.49987052  0.75030113  1
  Cu  Cu102  1  0.16622514  0.83401773  0.24610833  1
  Cu  Cu103  1  0.84182291  0.16113429  0.24711676  1
  Cu  Cu104  1  0.50289324  0.82980792  0.25019712  1
  Cu  Cu105  1  0.32870074  0.33797483  0.49793131  1
  Cu  Cu106  1  0.00209293  0.33433896  0.00309677  1
  Cu  Cu107  1  -0.00033221  0.33344320  0.49863539  1
  Cu  Cu108  1  0.83630539  0.16744540  0.76635697  1
  Cu  Cu109  1  0.16407779  0.15946528  0.24450892  1
  Cu  Cu110  1  0.32581892  0.00043925  0.50572425  1
  Cu  Cu111  1  0.66405511  0.34654757  0.50075886  1
  Cu  Cu112  1  0.33151815  0.66754817  -0.00515506  1
  Cu  Cu113  1  0.67182700  0.66389788  0.00066624  1
  Cu  Cu114  1  -0.00375796  0.66563576  0.50320320  1
  Se  Se115  1  0.09601015  0.10206199  0.04974913  1
  Se  Se116  1  0.07876031  0.08502659  0.55199024  1
  Se  Se117  1  0.08191068  0.41215406  0.06553298  1
  Se  Se118  1  0.06986488  0.41779185  0.56338269  1
  Se  Se119  1  0.08010749  0.74383384  0.04622518  1
  Se  Se120  1  0.08546435  0.75040857  0.54865223  1
  Se  Se121  1  0.41151943  0.07366791  0.06095070  1
  Se  Se122  1  0.41428837  0.07349867  0.56476910  1
  Se  Se123  1  0.42032181  0.42008017  0.05475701  1
  Se  Se124  1  0.41634528  0.42267366  0.54377835  1
  Se  Se125  1  0.40826597  0.74633686  0.06038106  1
  Se  Se126  1  0.40906529  0.74209314  0.56443243  1
  Se  Se127  1  0.75098185  0.08795962  0.05424046  1
  Se  Se128  1  0.75314502  0.07802430  0.55275121  1
  Se  Se129  1  0.75866025  0.42570469  0.05325896  1
  Se  Se130  1  0.75467523  0.42202707  0.55274783  1
  Se  Se131  1  0.75184969  0.74985812  0.05431146  1
  Se  Se132  1  0.75584743  0.74935954  0.54968257  1
  Se  Se133  1  0.25128634  0.25107665  0.05428820  1
  Se  Se134  1  0.24474986  0.25415688  0.54916281  1
  Se  Se135  1  0.25615833  0.58932651  0.06128695  1
  Se  Se136  1  0.24884763  0.58830947  0.55932414  1
  Se  Se137  1  0.24042197  0.90780534  0.04426289  1
  Se  Se138  1  0.24605437  0.91170582  0.55684933  1
  Se  Se139  1  0.59549961  0.26014841  0.06858008  1
  Se  Se140  1  0.59127541  0.26044870  0.56102248  1
  Se  Se141  1  0.58150342  0.58305941  0.04943321  1
  Se  Se142  1  0.57774218  0.59119462  0.55169220  1
  Se  Se143  1  0.58958438  0.91730647  0.06449066  1
  Se  Se144  1  0.59833540  0.91932139  0.55585295  1
  Se  Se145  1  0.91648776  0.25241787  0.05593430  1
  Se  Se146  1  0.91934770  0.25408496  0.56229147  1
  Se  Se147  1  0.92525120  0.58539475  0.04798592  1
  Se  Se148  1  0.91693027  0.58044257  0.55761374  1
  Se  Se149  1  0.92140316  0.92216706  0.04954656  1
  Se  Se150  1  0.91350318  0.91539916  0.54685160  1
  Se  Se151  1  0.08177598  0.25114591  0.44356614  1
  Se  Se152  1  0.08863100  0.25156052  0.95243743  1
  Se  Se153  1  0.07420739  0.59001795  0.43714351  1
  Se  Se154  1  0.07807955  0.58643502  0.93327739  1
  Se  Se155  1  0.08810368  0.91141775  0.44615632  1
  Se  Se156  1  0.05231741  0.93954595  0.94742365  1
  Se  Se157  1  0.40905436  0.25649273  0.43712236  1
  Se  Se158  1  0.41089388  0.25526883  0.94148009  1
  Se  Se159  1  0.41514461  0.58366966  0.44165712  1
  Se  Se160  1  0.41882379  0.58267896  0.94793784  1
  Se  Se161  1  0.40885680  0.92225542  0.44641155  1
  Se  Se162  1  0.40728728  0.91831176  0.93960661  1
  Se  Se163  1  0.74085663  0.26299101  0.44072380  1
  Se  Se164  1  0.75062286  0.25465314  0.95170948  1
  Se  Se165  1  0.75744822  0.58410137  0.44589901  1
  Se  Se166  1  0.75630168  0.58389241  0.94450605  1
  Se  Se167  1  0.75567785  0.91155527  0.43701362  1
  Se  Se168  1  0.74633872  0.91027181  0.95182416  1
  Se  Se169  1  0.24380782  0.08410777  0.45234558  1
  Se  Se170  1  0.24845523  0.08673757  0.95060031  1
  Se  Se171  1  0.25064495  0.41301246  0.43214926  1
  Se  Se172  1  0.25764743  0.41491947  0.94019449  1
  Se  Se173  1  0.25079283  0.75160781  0.44949416  1
  Se  Se174  1  0.24515796  0.74921700  0.94423837  1
  Se  Se175  1  0.59002525  0.07956681  0.44154807  1
  Se  Se176  1  0.58532356  0.07505989  0.94574794  1
  Se  Se177  1  0.58205738  0.43097333  0.44891991  1
  Se  Se178  1  0.58343460  0.41946075  0.95118962  1
  Se  Se179  1  0.59038564  0.74566227  0.43481044  1
  Se  Se180  1  0.58832842  0.74088157  0.93936211  1
  Se  Se181  1  0.92499691  0.07247496  0.43161702  1
  Se  Se182  1  0.89630873  0.10169991  0.95448360  1
  Se  Se183  1  0.91401453  0.41686132  0.44856647  1
  Se  Se184  1  0.92346326  0.42133874  0.94894822  1
  Se  Se185  1  0.91880850  0.75070291  0.44490588  1
  Se  Se186  1  0.89161147  0.76569904  0.94118429  1
  Se  Se187  1  0.24439991  0.24384423  0.30021524  1
  Se  Se188  1  0.24677172  0.24810183  0.81051489  1
  Se  Se189  1  0.24441619  0.58408345  0.29830478  1
  Se  Se190  1  0.25480937  0.58804861  0.79806679  1
  Se  Se191  1  0.24796856  0.91083751  0.31004133  1
  Se  Se192  1  0.24032626  0.92118533  0.80943897  1
  Se  Se193  1  0.57573400  0.24667522  0.31584322  1
  Se  Se194  1  0.57347799  0.23258697  0.80711797  1
  Se  Se195  1  0.58744481  0.58420281  0.30022213  1
  Se  Se196  1  0.58361001  0.57980107  0.80758679  1
  Se  Se197  1  0.58632854  0.91731564  0.29852284  1
  Se  Se198  1  0.57734849  0.90859504  0.81453291  1
  Se  Se199  1  0.92079766  0.24805201  0.30102521  1
  Se  Se200  1  0.92198746  0.25128781  0.81483707  1
  Se  Se201  1  0.91222344  0.57968955  0.31055448  1
  Se  Se202  1  0.92158725  0.58928910  0.79892210  1
  Se  Se203  1  0.92981569  0.91476208  0.29440461  1
  Se  Se204  1  0.90700221  0.90465322  0.81224213  1
  Se  Se205  1  0.08447440  0.07434330  0.30004666  1
  Se  Se206  1  0.09192556  0.09218782  0.81837372  1
  Se  Se207  1  0.08156707  0.41957657  0.29763999  1
  Se  Se208  1  0.08390619  0.41576040  0.80094434  1
  Se  Se209  1  0.09008691  0.75462223  0.31066577  1
  Se  Se210  1  0.07778554  0.75678238  0.80832592  1
  Se  Se211  1  0.42042608  0.08671121  0.31653049  1
  Se  Se212  1  0.40646837  0.07695497  0.79781473  1
  Se  Se213  1  0.41773112  0.41842434  0.30082710  1
  Se  Se214  1  0.42308876  0.41626388  0.80915769  1
  Se  Se215  1  0.41503891  0.74787244  0.30018386  1
  Se  Se216  1  0.41820425  0.75312775  0.80199069  1
  Se  Se217  1  0.75315903  0.08029981  0.29785614  1
  Se  Se218  1  0.76107108  0.08028230  0.82215291  1
  Se  Se219  1  0.75422202  0.42085682  0.30880434  1
  Se  Se220  1  0.75947345  0.42365613  0.81180636  1
  Se  Se221  1  0.75375645  0.74466774  0.29494951  1
  Se  Se222  1  0.74614841  0.74219508  0.79898494  1
  Se  Se223  1  0.24122072  0.07757830  0.18291830  1
  Se  Se224  1  0.24597366  0.08027041  0.69448312  1
  Se  Se225  1  0.25965624  0.40948526  0.19846082  1
  Se  Se226  1  0.23897986  0.42787649  0.68425227  1
  Se  Se227  1  0.25012135  0.74809306  0.19666593  1
  Se  Se228  1  0.24162271  0.75213337  0.69795151  1
  Se  Se229  1  0.56912265  0.10166563  0.20542870  1
  Se  Se230  1  0.58122105  0.07957260  0.68771117  1
  Se  Se231  1  0.58330702  0.42564506  0.18657452  1
  Se  Se232  1  0.58204117  0.42153508  0.68886826  1
  Se  Se233  1  0.58626195  0.74567710  0.19781978  1
  Se  Se234  1  0.56926867  0.76918895  0.69816755  1
  Se  Se235  1  0.92145962  0.07888666  0.19060129  1
  Se  Se236  1  0.91301650  0.08849278  0.70112889  1
  Se  Se237  1  0.91997568  0.41850834  0.19964628  1
  Se  Se238  1  0.92563704  0.40002500  0.70010683  1
  Se  Se239  1  0.91078731  0.75766888  0.18707352  1
  Se  Se240  1  0.91924126  0.74924880  0.69185691  1
  Se  Se241  1  0.08075009  0.24746627  0.19514954  1
  Se  Se242  1  0.08242540  0.24931280  0.70090152  1
  Se  Se243  1  0.09347687  0.57588517  0.19143654  1
  Se  Se244  1  0.07993987  0.59033981  0.70253583  1
  Se  Se245  1  0.08303791  0.91116735  0.18854951  1
  Se  Se246  1  0.08008538  0.91249641  0.68867072  1
  Se  Se247  1  0.42363257  0.23841129  0.20027539  1
  Se  Se248  1  0.42140737  0.24132254  0.68644284  1
  Se  Se249  1  0.41880964  0.58666702  0.19369170  1
  Se  Se250  1  0.41642262  0.58123825  0.69700825  1
  Se  Se251  1  0.42279140  0.90764856  0.18720852  1
  Se  Se252  1  0.40980643  0.91562739  0.70530435  1
  Se  Se253  1  0.76043346  0.24623065  0.18986042  1
  Se  Se254  1  0.75618467  0.23901324  0.69940287  1
  Se  Se255  1  0.75362713  0.58910191  0.19378680  1
  Se  Se256  1  0.74565426  0.58719372  0.69497079  1
  Se  Se257  1  0.73492898  0.93890988  0.18899225  1
  Se  Se258  1  0.75678867  0.91215923  0.68850927  1
