# generated using pymatgen
data_In86Cu29Se144
_symmetry_space_group_name_H-M   'P 1'
_cell_length_a   17.59615459
_cell_length_b   17.60060739
_cell_length_c   23.45624427
_cell_angle_alpha   90.01807560
_cell_angle_beta   89.96156409
_cell_angle_gamma   90.02490309
_symmetry_Int_Tables_number   1
_chemical_formula_structural   In86Cu29Se144
_chemical_formula_sum   'In86 Cu29 Se144'
_cell_volume   7264.46673751
_cell_formula_units_Z   1
loop_
 _symmetry_equiv_pos_site_id
 _symmetry_equiv_pos_as_xyz
  1  'x, y, z'
loop_
 _atom_site_type_symbol
 _atom_site_label
 _atom_site_symmetry_multiplicity
 _atom_site_fract_x
 _atom_site_fract_y
 _atom_site_fract_z
 _atom_site_occupancy
  In  In0  1  -0.00063068  0.17505947  0.11804407  1
  In  In1  1  0.02162539  0.14947511  0.63885582  1
  In  In2  1  -0.00111094  0.50021621  0.11370539  1
  In  In3  1  0.00270191  0.50174266  0.62728562  1
  In  In4  1  0.00115150  0.84565937  0.11890670  1
  In  In5  1  0.01575139  0.83020312  0.63702518  1
  In  In6  1  0.33273521  0.15535338  0.12239260  1
  In  In7  1  0.33724403  0.17671763  0.62231214  1
  In  In8  1  0.34207613  0.50446350  0.11793882  1
  In  In9  1  0.33488337  0.50292358  0.63125232  1
  In  In10  1  0.33142235  0.83750275  0.13065294  1
  In  In11  1  0.29423113  0.85002594  0.64775231  1
  In  In12  1  0.66875511  0.17573124  0.11957205  1
  In  In13  1  0.64367991  0.16497099  0.63085233  1
  In  In14  1  0.66395679  0.49379522  0.12001940  1
  In  In15  1  0.66028533  0.49141967  0.61576785  1
  In  In16  1  0.67157164  0.82391061  0.11989152  1
  In  In17  1  0.67474180  0.83946280  0.62923458  1
  In  In18  1  0.19555202  -0.02852605  0.41632327  1
  In  In19  1  0.17553273  0.00565737  0.85639666  1
  In  In20  1  0.17121753  0.33477785  0.38779015  1
  In  In21  1  0.18427939  0.35052628  0.86422494  1
  In  In22  1  0.17432345  0.65476971  0.38559190  1
  In  In23  1  0.15877906  0.66028836  0.86266186  1
  In  In24  1  0.49586873  0.01809584  0.38380959  1
  In  In25  1  0.50485773  0.00836511  0.85528392  1
  In  In26  1  0.50725041  0.32385456  0.37954727  1
  In  In27  1  0.48601689  0.33251638  0.88280321  1
  In  In28  1  0.48578320  0.67080884  0.37912156  1
  In  In29  1  0.48296486  0.65262690  0.86852287  1
  In  In30  1  0.83854729  0.00265038  0.37828142  1
  In  In31  1  0.83490597  0.00344718  0.87398497  1
  In  In32  1  0.83093137  0.34220054  0.37065355  1
  In  In33  1  0.83488611  0.33031478  0.87847889  1
  In  In34  1  0.82626279  0.65799348  0.37268970  1
  In  In35  1  0.84397329  0.65607527  0.88231745  1
  In  In36  1  0.00586065  0.16490959  0.38124337  1
  In  In37  1  -0.00648088  0.16497055  0.86602240  1
  In  In38  1  -0.00255367  0.49990315  0.38395769  1
  In  In39  1  0.00279221  0.50123844  0.87005836  1
  In  In40  1  0.01342067  0.84348091  0.38106323  1
  In  In41  1  0.00000741  0.82729802  0.86235522  1
  In  In42  1  0.33336258  0.15699833  0.38895386  1
  In  In43  1  0.35280836  0.18024696  0.84994241  1
  In  In44  1  0.33063311  0.50859351  0.38349157  1
  In  In45  1  0.33270847  0.48812185  0.87812291  1
  In  In46  1  0.33329043  0.82442206  0.37838143  1
  In  In47  1  0.32379528  0.83111858  0.85554143  1
  In  In48  1  0.65344446  0.16821078  0.37500142  1
  In  In49  1  0.66801738  0.16129948  0.88008312  1
  In  In50  1  0.67380600  0.48638719  0.37983738  1
  In  In51  1  0.66266071  0.50043782  0.88184704  1
  In  In52  1  0.68042683  0.83568064  0.37670120  1
  In  In53  1  0.66625006  0.84679517  0.87652662  1
  In  In54  1  0.17917018  0.00853147  0.12521270  1
  In  In55  1  0.16688146  0.00770695  0.61598688  1
  In  In56  1  0.15897293  0.33186579  0.12050793  1
  In  In57  1  0.16683709  0.33644843  0.62606759  1
  In  In58  1  0.18033785  0.66828066  0.12874784  1
  In  In59  1  0.17004432  0.66461812  0.63125839  1
  In  In60  1  0.48378309  -0.00286303  0.12301123  1
  In  In61  1  0.46843385  0.03866923  0.65261435  1
  In  In62  1  0.50902882  0.34819311  0.11313268  1
  In  In63  1  0.49053078  0.32648946  0.62709556  1
  In  In64  1  0.49317917  0.65674062  0.12221058  1
  In  In65  1  0.48682991  0.64944838  0.62344161  1
  In  In66  1  0.83302947  0.00245098  0.11054931  1
  In  In67  1  0.83541847  0.00047482  0.63670913  1
  In  In68  1  0.82945153  0.32913408  0.11645162  1
  In  In69  1  0.83337108  0.34688206  0.62567570  1
  In  In70  1  0.82622073  0.66186906  0.11074525  1
  In  In71  1  0.84884723  0.66736842  0.62880541  1
  In  In72  1  0.65810394  -0.00060547  0.25153158  1
  In  In73  1  0.16580894  0.17047829  -0.00669915  1
  In  In74  1  0.66816851  0.66706824  0.75763419  1
  In  In75  1  0.84384311  0.16799223  0.50139765  1
  In  In76  1  0.84591823  0.82577121  0.50826425  1
  In  In77  1  0.66121320  0.33152592  0.75665610  1
  In  In78  1  0.33754442  0.33624833  0.24753065  1
  In  In79  1  0.00554947  0.00206571  0.25243080  1
  In  In80  1  -0.00162872  0.66484488  0.25554428  1
  In  In81  1  0.50046286  0.83559562  -0.00753056  1
  In  In82  1  0.00125060  0.33314511  0.24440838  1
  In  In83  1  0.49928507  0.83122078  0.51139562  1
  In  In84  1  0.16208675  0.82923241  -0.01532410  1
  In  In85  1  0.65321026  0.65700747  0.23702740  1
  Cu  Cu86  1  -0.00615284  0.00118456  -0.00973640  1
  Cu  Cu87  1  0.48791571  0.84067171  0.25414188  1
  Cu  Cu88  1  0.66482221  0.33466637  0.50297759  1
  Cu  Cu89  1  0.00115952  0.33893654  -0.00763124  1
  Cu  Cu90  1  0.17832967  0.15751768  0.25713436  1
  Cu  Cu91  1  0.66759181  0.00595385  -0.00525164  1
  Cu  Cu92  1  0.66437045  0.00442570  0.50844394  1
  Cu  Cu93  1  0.66343362  0.33014340  -0.00196583  1
  Cu  Cu94  1  0.83451467  0.82730615  0.24334550  1
  Cu  Cu95  1  0.83821250  0.50887702  0.74857652  1
  Cu  Cu96  1  0.32941097  0.66691831  0.50797577  1
  Cu  Cu97  1  0.33329158  0.65649978  -0.00232433  1
  Cu  Cu98  1  0.16577387  0.17294344  0.74369822  1
  Cu  Cu99  1  0.33568871  -0.00318500  -0.00834146  1
  Cu  Cu100  1  0.50229922  0.82815331  0.74542572  1
  Cu  Cu101  1  0.66442640  0.65857229  0.49847555  1
  Cu  Cu102  1  0.49565131  0.50446304  0.24721391  1
  Cu  Cu103  1  0.16859004  0.49787017  0.74805986  1
  Cu  Cu104  1  -0.00245638  0.33738323  0.50680509  1
  Cu  Cu105  1  0.33663869  0.34114853  0.50450088  1
  Cu  Cu106  1  0.82947920  0.17069409  0.24286313  1
  Cu  Cu107  1  0.66799254  0.66843444  -0.00400533  1
  Cu  Cu108  1  0.00165305  0.66235404  0.50607525  1
  Cu  Cu109  1  0.17857657  0.83713083  0.25901346  1
  Cu  Cu110  1  0.49486006  0.16950570  0.25358537  1
  Cu  Cu111  1  0.00197401  0.66807787  -0.00823404  1
  Cu  Cu112  1  0.83782883  0.83766525  0.75088832  1
  Cu  Cu113  1  0.17093105  0.50269232  0.25607622  1
  Cu  Cu114  1  0.82980273  0.17006610  0.75343376  1
  Se  Se115  1  0.07691495  0.07284705  0.05585907  1
  Se  Se116  1  0.08510485  0.09636987  0.54958011  1
  Se  Se117  1  0.08489859  0.41651287  0.04966994  1
  Se  Se118  1  0.08387141  0.42021965  0.55648687  1
  Se  Se119  1  0.08053230  0.74404510  0.05757518  1
  Se  Se120  1  0.08270214  0.74461791  0.56120182  1
  Se  Se121  1  0.41516935  0.08021951  0.04799830  1
  Se  Se122  1  0.42327707  0.08976048  0.55718988  1
  Se  Se123  1  0.40888522  0.41265884  0.05015731  1
  Se  Se124  1  0.41923215  0.42093129  0.56018216  1
  Se  Se125  1  0.40667788  0.74841802  0.05452864  1
  Se  Se126  1  0.40233360  0.75069786  0.56970831  1
  Se  Se127  1  0.74812839  0.08999171  0.05024353  1
  Se  Se128  1  0.74923808  0.08506010  0.56466424  1
  Se  Se129  1  0.74834811  0.41564556  0.04991900  1
  Se  Se130  1  0.75382397  0.41798434  0.54910307  1
  Se  Se131  1  0.75259096  0.75505881  0.04447380  1
  Se  Se132  1  0.74352574  0.73776251  0.55998836  1
  Se  Se133  1  0.25603058  0.25392372  0.05788297  1
  Se  Se134  1  0.25045229  0.25760540  0.55467934  1
  Se  Se135  1  0.24595573  0.58285257  0.05478802  1
  Se  Se136  1  0.24830051  0.57974302  0.55958383  1
  Se  Se137  1  0.25287546  0.91755865  0.05063776  1
  Se  Se138  1  0.25340096  0.91663859  0.55522201  1
  Se  Se139  1  0.57810595  0.24682244  0.05040229  1
  Se  Se140  1  0.58065603  0.25161741  0.55533095  1
  Se  Se141  1  0.58729154  0.58913708  0.05523079  1
  Se  Se142  1  0.57824793  0.58126780  0.55229481  1
  Se  Se143  1  0.58982148  0.92445753  0.05782879  1
  Se  Se144  1  0.58589595  0.92593023  0.56779141  1
  Se  Se145  1  0.92007772  0.25321962  0.04767526  1
  Se  Se146  1  0.92589371  0.25288258  0.56871360  1
  Se  Se147  1  0.91768633  0.58463860  0.04641811  1
  Se  Se148  1  0.91440058  0.57980936  0.55539638  1
  Se  Se149  1  0.91574708  0.91488196  0.04622893  1
  Se  Se150  1  0.92461465  0.92060907  0.56783574  1
  Se  Se151  1  0.07726206  0.25555859  0.44905540  1
  Se  Se152  1  0.07963433  0.25880706  0.93101542  1
  Se  Se153  1  0.08361742  0.57798386  0.45131014  1
  Se  Se154  1  0.08624259  0.58424466  0.94070992  1
  Se  Se155  1  0.07929915  0.90915306  0.46319772  1
  Se  Se156  1  0.07996539  0.93033835  0.93112226  1
  Se  Se157  1  0.41307735  0.25429996  0.44696044  1
  Se  Se158  1  0.41199696  0.23176667  0.94153862  1
  Se  Se159  1  0.41699477  0.58748999  0.45364985  1
  Se  Se160  1  0.41922641  0.57395489  0.94759155  1
  Se  Se161  1  0.41689446  0.91931011  0.44441092  1
  Se  Se162  1  0.40897404  0.91608778  0.92865577  1
  Se  Se163  1  0.74555241  0.25265264  0.44215544  1
  Se  Se164  1  0.74973106  0.24863237  0.94563208  1
  Se  Se165  1  0.75149561  0.57908404  0.44568380  1
  Se  Se166  1  0.75122830  0.58033626  0.94733142  1
  Se  Se167  1  0.74921301  0.92547631  0.45217425  1
  Se  Se168  1  0.75289800  0.92048419  0.94627745  1
  Se  Se169  1  0.22885156  0.10321361  0.45534720  1
  Se  Se170  1  0.25331485  0.07869445  0.93529824  1
  Se  Se171  1  0.25063904  0.42400329  0.45188966  1
  Se  Se172  1  0.24710939  0.41323282  0.95018858  1
  Se  Se173  1  0.24936255  0.74871922  0.45041839  1
  Se  Se174  1  0.26025224  0.73911251  0.93511160  1
  Se  Se175  1  0.58543022  0.08935023  0.45324273  1
  Se  Se176  1  0.57471886  0.07506667  0.93993794  1
  Se  Se177  1  0.58021578  0.41631229  0.44780268  1
  Se  Se178  1  0.57997019  0.41360856  0.94569018  1
  Se  Se179  1  0.59309030  0.74826101  0.44102604  1
  Se  Se180  1  0.58488894  0.73970892  0.93269989  1
  Se  Se181  1  0.93248572  0.06631286  0.44955708  1
  Se  Se182  1  0.91410030  0.09242300  0.94308823  1
  Se  Se183  1  0.91381379  0.41032505  0.44625004  1
  Se  Se184  1  0.91649085  0.42233559  0.94100665  1
  Se  Se185  1  0.92551777  0.73759206  0.43692120  1
  Se  Se186  1  0.92218651  0.75610991  0.94094939  1
  Se  Se187  1  0.25006113  0.24983423  0.31257494  1
  Se  Se188  1  0.25089009  0.25595492  0.79459734  1
  Se  Se189  1  0.25400165  0.58647736  0.30695675  1
  Se  Se190  1  0.25269926  0.57409456  0.80687490  1
  Se  Se191  1  0.25009094  0.92174955  0.31993456  1
  Se  Se192  1  0.23698386  0.90732882  0.78839148  1
  Se  Se193  1  0.58432024  0.25199577  0.30050469  1
  Se  Se194  1  0.57392608  0.24069189  0.81424923  1
  Se  Se195  1  0.57470571  0.58020745  0.31309485  1
  Se  Se196  1  0.57549993  0.56831746  0.80392414  1
  Se  Se197  1  0.57385121  0.90936157  0.31690457  1
  Se  Se198  1  0.58643552  0.91070752  0.79797405  1
  Se  Se199  1  0.91485398  0.23951440  0.30641205  1
  Se  Se200  1  0.91338172  0.25742789  0.80157941  1
  Se  Se201  1  0.90734785  0.56640604  0.30525955  1
  Se  Se202  1  0.92184366  0.59132648  0.80201748  1
  Se  Se203  1  0.91017960  0.90539261  0.30696803  1
  Se  Se204  1  0.91897812  0.92360562  0.80319409  1
  Se  Se205  1  0.09542407  0.08172576  0.31646199  1
  Se  Se206  1  0.08287301  0.08948141  0.79757615  1
  Se  Se207  1  0.08932389  0.41964600  0.31086820  1
  Se  Se208  1  0.08169361  0.41540411  0.80066771  1
  Se  Se209  1  0.09288940  0.75479099  0.31163903  1
  Se  Se210  1  0.10105115  0.76402026  0.79861593  1
  Se  Se211  1  0.41337871  0.08810383  0.30911254  1
  Se  Se212  1  0.38625719  0.05365827  0.80082427  1
  Se  Se213  1  0.42205389  0.42403527  0.31277786  1
  Se  Se214  1  0.41569677  0.41086813  0.80657042  1
  Se  Se215  1  0.41204469  0.74710002  0.30319744  1
  Se  Se216  1  0.41918805  0.74668579  0.79884167  1
  Se  Se217  1  0.75714629  0.08873526  0.30765431  1
  Se  Se218  1  0.74809305  0.08483121  0.80584683  1
  Se  Se219  1  0.74385309  0.41212946  0.30099599  1
  Se  Se220  1  0.75605774  0.42842239  0.80841718  1
  Se  Se221  1  0.74915793  0.74882192  0.29875646  1
  Se  Se222  1  0.76067511  0.75685603  0.81465663  1
  Se  Se223  1  0.26018592  0.07725075  0.20057164  1
  Se  Se224  1  0.24802496  0.09233539  0.68684292  1
  Se  Se225  1  0.24106520  0.42163819  0.18985767  1
  Se  Se226  1  0.25305727  0.41342953  0.69668852  1
  Se  Se227  1  0.25383445  0.75231754  0.20039835  1
  Se  Se228  1  0.26394095  0.72787533  0.70320566  1
  Se  Se229  1  0.57268195  0.08848758  0.18908988  1
  Se  Se230  1  0.59114689  0.07426955  0.70685915  1
  Se  Se231  1  0.57885890  0.42150507  0.19381841  1
  Se  Se232  1  0.57766646  0.42093491  0.69259520  1
  Se  Se233  1  0.56595646  0.76435491  0.18861153  1
  Se  Se234  1  0.58307293  0.74587203  0.68648722  1
  Se  Se235  1  0.91183117  0.08784628  0.18784501  1
  Se  Se236  1  0.91638688  0.08722060  0.70191498  1
  Se  Se237  1  0.91224950  0.42192096  0.18576454  1
  Se  Se238  1  0.91727792  0.41999741  0.69772570  1
  Se  Se239  1  0.91620514  0.75135666  0.18358245  1
  Se  Se240  1  0.92070518  0.75104637  0.70072235  1
  Se  Se241  1  0.09661485  0.23299225  0.19538006  1
  Se  Se242  1  0.07824405  0.26067873  0.69744924  1
  Se  Se243  1  0.08732652  0.57631149  0.19244156  1
  Se  Se244  1  0.08176532  0.58307440  0.69914828  1
  Se  Se245  1  0.09908503  0.90908151  0.19297798  1
  Se  Se246  1  0.08464933  0.93496667  0.69193753  1
  Se  Se247  1  0.42353305  0.24674144  0.18556163  1
  Se  Se248  1  0.42981682  0.23406419  0.69908158  1
  Se  Se249  1  0.40940845  0.58667055  0.19656299  1
  Se  Se250  1  0.41584172  0.58229742  0.70369065  1
  Se  Se251  1  0.40745859  0.92483286  0.20036195  1
  Se  Se252  1  0.42105313  0.90716633  0.68838466  1
  Se  Se253  1  0.74806654  0.25483289  0.19198018  1
  Se  Se254  1  0.75082490  0.24748983  0.68894534  1
  Se  Se255  1  0.75935338  0.57558925  0.18816339  1
  Se  Se256  1  0.75011874  0.57878291  0.68759870  1
  Se  Se257  1  0.75476003  0.91483372  0.18966390  1
  Se  Se258  1  0.74885654  0.91895856  0.70304140  1
