# generated using pymatgen
data_In86Cu29Se144
_symmetry_space_group_name_H-M   'P 1'
_cell_length_a   17.59221827
_cell_length_b   17.58709115
_cell_length_c   23.44748731
_cell_angle_alpha   89.98489351
_cell_angle_beta   90.00984815
_cell_angle_gamma   90.00394043
_symmetry_Int_Tables_number   1
_chemical_formula_structural   In86Cu29Se144
_chemical_formula_sum   'In86 Cu29 Se144'
_cell_volume   7254.55715047
_cell_formula_units_Z   1
loop_
 _symmetry_equiv_pos_site_id
 _symmetry_equiv_pos_as_xyz
  1  'x, y, z'
loop_
 _atom_site_type_symbol
 _atom_site_label
 _atom_site_symmetry_multiplicity
 _atom_site_fract_x
 _atom_site_fract_y
 _atom_site_fract_z
 _atom_site_occupancy
  In  In0  1  -0.01928364  0.16244786  0.12944966  1
  In  In1  1  -0.01681160  0.13552379  0.60229850  1
  In  In2  1  -0.00742465  0.50835212  0.12456754  1
  In  In3  1  -0.01007658  0.51584783  0.61743436  1
  In  In4  1  0.00873301  0.84206612  0.12181094  1
  In  In5  1  0.01891696  0.85305549  0.59806800  1
  In  In6  1  0.32870192  0.17726704  0.11981425  1
  In  In7  1  0.33391144  0.16465405  0.62474345  1
  In  In8  1  0.37311732  0.52069078  0.10482453  1
  In  In9  1  0.34428857  0.49351917  0.63180348  1
  In  In10  1  0.32625195  0.82438173  0.11599215  1
  In  In11  1  0.33508450  0.84402974  0.64551366  1
  In  In12  1  0.67672500  0.15175213  0.12329169  1
  In  In13  1  0.65752852  0.16345636  0.62428034  1
  In  In14  1  0.66639735  0.50759555  0.12372694  1
  In  In15  1  0.67386492  0.52208139  0.61460890  1
  In  In16  1  0.65623322  0.82708819  0.10789315  1
  In  In17  1  0.67544730  0.82194886  0.63609365  1
  In  In18  1  0.15689712  0.00413222  0.39165264  1
  In  In19  1  0.15527455  -0.00506558  0.86766531  1
  In  In20  1  0.15908248  0.32856070  0.37902304  1
  In  In21  1  0.16914621  0.32432218  0.86862752  1
  In  In22  1  0.17730818  0.66899279  0.37913686  1
  In  In23  1  0.18512282  0.67341480  0.86974178  1
  In  In24  1  0.50989606  0.00359608  0.38197098  1
  In  In25  1  0.49163077  -0.01411366  0.86023524  1
  In  In26  1  0.50007964  0.33967727  0.38205908  1
  In  In27  1  0.49733890  0.34374394  0.87714509  1
  In  In28  1  0.49414621  0.66034063  0.36914935  1
  In  In29  1  0.49899199  0.67237788  0.86772751  1
  In  In30  1  0.84407354  -0.01204878  0.39167717  1
  In  In31  1  0.83900328  -0.00424081  0.86771335  1
  In  In32  1  0.82893249  0.32949319  0.38304128  1
  In  In33  1  0.82257757  0.33801676  0.88135594  1
  In  In34  1  0.81699027  0.68570660  0.39362934  1
  In  In35  1  0.81638581  0.68584474  0.88458471  1
  In  In36  1  0.01027903  0.14871536  0.39297039  1
  In  In37  1  0.00178176  0.15343928  0.87020345  1
  In  In38  1  -0.00442576  0.49635437  0.37534246  1
  In  In39  1  -0.01185990  0.50052871  0.87458001  1
  In  In40  1  -0.01129021  0.84499948  0.39537127  1
  In  In41  1  -0.01151004  0.84434305  0.88190998  1
  In  In42  1  0.33381544  0.16632794  0.38745984  1
  In  In43  1  0.33587452  0.16681468  0.86272359  1
  In  In44  1  0.33730815  0.51650026  0.37354563  1
  In  In45  1  0.34731027  0.50844514  0.86537171  1
  In  In46  1  0.33527871  0.81499356  0.38060475  1
  In  In47  1  0.33266334  0.83258833  0.87419424  1
  In  In48  1  0.66702222  0.16793019  0.38919710  1
  In  In49  1  0.68323269  0.16233567  0.87337260  1
  In  In50  1  0.65084189  0.52359365  0.39400206  1
  In  In51  1  0.65242211  0.51168462  0.88174214  1
  In  In52  1  0.67363253  0.83323537  0.37445741  1
  In  In53  1  0.66673197  0.83152884  0.86167733  1
  In  In54  1  0.16768170  -0.01510850  0.12646541  1
  In  In55  1  0.16793800  -0.00108870  0.62443844  1
  In  In56  1  0.16893503  0.32730812  0.12712028  1
  In  In57  1  0.18157451  0.32781681  0.62689075  1
  In  In58  1  0.17167169  0.68540188  0.12486850  1
  In  In59  1  0.16754945  0.69042580  0.61976940  1
  In  In60  1  0.51726705  -0.00952891  0.11948627  1
  In  In61  1  0.49378598  0.00472331  0.63913459  1
  In  In62  1  0.49597323  0.35250991  0.11931154  1
  In  In63  1  0.49455923  0.33228029  0.62376719  1
  In  In64  1  0.50191035  0.67074355  0.12371243  1
  In  In65  1  0.51396036  0.66584957  0.63504791  1
  In  In66  1  0.83275950  0.00261449  0.11937171  1
  In  In67  1  0.83401908  -0.00621206  0.62465329  1
  In  In68  1  0.82427499  0.32659319  0.12091351  1
  In  In69  1  0.83678556  0.34039623  0.62449499  1
  In  In70  1  0.82566596  0.65920475  0.11841199  1
  In  In71  1  0.83031966  0.67344708  0.61073664  1
  In  In72  1  0.66201263  0.33354386  0.75075856  1
  In  In73  1  0.67226545  -0.00780361  0.24629292  1
  In  In74  1  -0.00483638  0.33216537  0.26214103  1
  In  In75  1  0.32936718  -0.00591340  0.24993350  1
  In  In76  1  0.66671747  0.33812404  0.24346903  1
  In  In77  1  0.16892918  0.49742408  0.49806868  1
  In  In78  1  0.00035689  0.67261442  0.25418559  1
  In  In79  1  0.00541630  0.32535921  0.74293820  1
  In  In80  1  0.50150505  0.83361903  0.51003683  1
  In  In81  1  0.50754456  0.15920608  -0.00577203  1
  In  In82  1  0.16489037  0.49987952  -0.00790080  1
  In  In83  1  -0.00166598  0.67338346  0.74019161  1
  In  In84  1  0.32816446  0.34440913  0.25317079  1
  In  In85  1  0.16257307  0.16370051  -0.00014613  1
  Cu  Cu86  1  0.33472053  -0.00448155  0.51233557  1
  Cu  Cu87  1  0.66359684  0.33580452  0.00203852  1
  Cu  Cu88  1  0.82852762  0.50116968  0.25147659  1
  Cu  Cu89  1  0.34081170  0.33100970  0.50428562  1
  Cu  Cu90  1  0.33648070  0.66681679  0.50400879  1
  Cu  Cu91  1  0.16964700  0.49758362  0.74614499  1
  Cu  Cu92  1  0.33971021  0.67055194  -0.00758311  1
  Cu  Cu93  1  0.84219358  0.83430145  0.74795905  1
  Cu  Cu94  1  0.49790442  0.16376230  0.74673130  1
  Cu  Cu95  1  -0.01025310  0.33533987  0.00136451  1
  Cu  Cu96  1  0.82628253  0.51316701  0.74811672  1
  Cu  Cu97  1  0.83933488  0.83077730  0.25538677  1
  Cu  Cu98  1  -0.00702429  -0.00136969  -0.00430782  1
  Cu  Cu99  1  0.49751258  0.82369410  0.24482622  1
  Cu  Cu100  1  0.83954447  0.16115702  0.74843071  1
  Cu  Cu101  1  0.50352543  0.50133964  0.75042756  1
  Cu  Cu102  1  0.66270646  0.66419910  -0.00423239  1
  Cu  Cu103  1  0.16482668  0.83717555  0.25422821  1
  Cu  Cu104  1  -0.00103901  0.66870392  0.00300588  1
  Cu  Cu105  1  0.18062111  0.50792414  0.24614594  1
  Cu  Cu106  1  0.33732350  -0.00142091  -0.00657460  1
  Cu  Cu107  1  0.16375330  0.83608508  0.74930288  1
  Cu  Cu108  1  0.15609952  0.15608522  0.25849034  1
  Cu  Cu109  1  0.66616843  0.00429007  0.50672069  1
  Cu  Cu110  1  0.66600115  0.33641560  0.50711114  1
  Cu  Cu111  1  0.83829598  0.14704477  0.25782895  1
  Cu  Cu112  1  0.17044930  0.16102251  0.74323030  1
  Cu  Cu113  1  0.49578910  0.17365425  0.25445899  1
  Cu  Cu114  1  0.00543435  0.32525357  0.50401810  1
  Se  Se115  1  0.07307460  0.07630590  0.06158032  1
  Se  Se116  1  0.09740142  0.08192894  0.54871910  1
  Se  Se117  1  0.07541552  0.41025727  0.05983229  1
  Se  Se118  1  0.07995536  0.41113498  0.56404907  1
  Se  Se119  1  0.08444349  0.75259808  0.05237455  1
  Se  Se120  1  0.05626162  0.72235765  0.55468154  1
  Se  Se121  1  0.41038559  0.07708649  0.06050774  1
  Se  Se122  1  0.42232088  0.07997681  0.55960527  1
  Se  Se123  1  0.40811551  0.40643891  0.04284539  1
  Se  Se124  1  0.41962598  0.42124125  0.55326824  1
  Se  Se125  1  0.42064453  0.75239665  0.05068905  1
  Se  Se126  1  0.40885928  0.74773126  0.56973049  1
  Se  Se127  1  0.74714497  0.07702548  0.04788502  1
  Se  Se128  1  0.75018308  0.08607571  0.56028462  1
  Se  Se129  1  0.74685567  0.41769331  0.05774913  1
  Se  Se130  1  0.75065933  0.42012446  0.55778211  1
  Se  Se131  1  0.75030203  0.74559646  0.04797737  1
  Se  Se132  1  0.72826508  0.74669322  0.55138888  1
  Se  Se133  1  0.25586856  0.26576095  0.04702734  1
  Se  Se134  1  0.25365387  0.24751978  0.55194846  1
  Se  Se135  1  0.25331920  0.59188023  0.05462472  1
  Se  Se136  1  0.25414906  0.58502128  0.56373103  1
  Se  Se137  1  0.25179924  0.91990136  0.05076451  1
  Se  Se138  1  0.25692266  0.90725887  0.56400618  1
  Se  Se139  1  0.58744604  0.25276032  0.06390120  1
  Se  Se140  1  0.58076490  0.25155073  0.55654582  1
  Se  Se141  1  0.58028382  0.58366886  0.05329696  1
  Se  Se142  1  0.57308051  0.58924149  0.55208229  1
  Se  Se143  1  0.59511792  0.92825715  0.04207665  1
  Se  Se144  1  0.58835286  0.92506598  0.56944291  1
  Se  Se145  1  0.91243064  0.24645784  0.05463271  1
  Se  Se146  1  0.91463852  0.25227857  0.55726432  1
  Se  Se147  1  0.91497902  0.58044721  0.04958955  1
  Se  Se148  1  0.89715650  0.57180226  0.54565710  1
  Se  Se149  1  0.91623944  0.91484997  0.05431954  1
  Se  Se150  1  0.91292605  0.92516263  0.54588079  1
  Se  Se151  1  0.09253731  0.24439399  0.45300155  1
  Se  Se152  1  0.07085576  0.25767359  0.94032812  1
  Se  Se153  1  0.07747632  0.58745387  0.44051266  1
  Se  Se154  1  0.07641874  0.59480792  0.93440506  1
  Se  Se155  1  0.09557309  0.90402501  0.45656923  1
  Se  Se156  1  0.08495109  0.91914851  0.94696955  1
  Se  Se157  1  0.42433117  0.24856256  0.44881590  1
  Se  Se158  1  0.41117282  0.24917964  0.94004587  1
  Se  Se159  1  0.41885904  0.58627767  0.44895618  1
  Se  Se160  1  0.42256370  0.58448952  0.94148139  1
  Se  Se161  1  0.41033971  0.92133289  0.44275900  1
  Se  Se162  1  0.41990121  0.91485103  0.94191329  1
  Se  Se163  1  0.74983972  0.25084070  0.45586809  1
  Se  Se164  1  0.74568537  0.25032281  0.94950553  1
  Se  Se165  1  0.77493649  0.56143981  0.44381845  1
  Se  Se166  1  0.75215996  0.58000398  0.94590313  1
  Se  Se167  1  0.74045069  0.91661518  0.45023975  1
  Se  Se168  1  0.76728440  0.89493086  0.92780855  1
  Se  Se169  1  0.25544498  0.07909805  0.45328308  1
  Se  Se170  1  0.25495785  0.07997543  0.93691312  1
  Se  Se171  1  0.26331922  0.40863342  0.43766934  1
  Se  Se172  1  0.25455191  0.41551370  0.93064607  1
  Se  Se173  1  0.24842276  0.74983671  0.45609369  1
  Se  Se174  1  0.24811334  0.75398138  0.94861772  1
  Se  Se175  1  0.57919068  0.08695963  0.45555469  1
  Se  Se176  1  0.58688834  0.07130365  0.92727580  1
  Se  Se177  1  0.58245298  0.41851573  0.45192459  1
  Se  Se178  1  0.58009806  0.41830402  0.94926403  1
  Se  Se179  1  0.58027418  0.75068596  0.43817734  1
  Se  Se180  1  0.58799656  0.74871738  0.93601255  1
  Se  Se181  1  0.90211144  0.09421822  0.45374654  1
  Se  Se182  1  0.91405976  0.08438084  0.94140961  1
  Se  Se183  1  0.92688767  0.40559996  0.44436001  1
  Se  Se184  1  0.91073410  0.42039185  0.94640298  1
  Se  Se185  1  0.91476721  0.75064291  0.45786067  1
  Se  Se186  1  0.91651585  0.75194128  0.94914998  1
  Se  Se187  1  0.24365503  0.23975171  0.30954138  1
  Se  Se188  1  0.24911895  0.24923326  0.79632478  1
  Se  Se189  1  0.25486564  0.59453570  0.30232094  1
  Se  Se190  1  0.25127565  0.58131063  0.79972307  1
  Se  Se191  1  0.24587582  0.91191210  0.31862220  1
  Se  Se192  1  0.24815492  0.91652653  0.80457112  1
  Se  Se193  1  0.58238347  0.24758940  0.31150621  1
  Se  Se194  1  0.57567076  0.24153515  0.81249493  1
  Se  Se195  1  0.59191831  0.58722814  0.30691493  1
  Se  Se196  1  0.58678234  0.58678606  0.80127765  1
  Se  Se197  1  0.57198676  0.90817425  0.30601829  1
  Se  Se198  1  0.56689219  0.89373184  0.79085062  1
  Se  Se199  1  0.91260571  0.23263806  0.31746523  1
  Se  Se200  1  0.90876999  0.25047324  0.80990812  1
  Se  Se201  1  0.90885689  0.58203131  0.31045866  1
  Se  Se202  1  0.90891976  0.59168708  0.80784516  1
  Se  Se203  1  0.91744709  0.91393684  0.31238550  1
  Se  Se204  1  0.92857380  0.91870308  0.79752575  1
  Se  Se205  1  0.07777686  0.07261498  0.31234162  1
  Se  Se206  1  0.08216500  0.08242641  0.79595051  1
  Se  Se207  1  0.09885465  0.42870411  0.30508877  1
  Se  Se208  1  0.08574932  0.42411023  0.80630887  1
  Se  Se209  1  0.08603231  0.75992885  0.31759206  1
  Se  Se210  1  0.08302163  0.75629512  0.81104159  1
  Se  Se211  1  0.42008626  0.08739932  0.31061369  1
  Se  Se212  1  0.41215505  0.07790463  0.79636336  1
  Se  Se213  1  0.42674127  0.42886129  0.30790602  1
  Se  Se214  1  0.41987493  0.41235846  0.79837072  1
  Se  Se215  1  0.41255174  0.74723126  0.30158272  1
  Se  Se216  1  0.38830493  0.72870528  0.80748026  1
  Se  Se217  1  0.74938608  0.07851823  0.31777513  1
  Se  Se218  1  0.75339297  0.07953220  0.79917857  1
  Se  Se219  1  0.75286673  0.41824254  0.31149868  1
  Se  Se220  1  0.75121337  0.42904015  0.80765830  1
  Se  Se221  1  0.75276448  0.74762556  0.30541180  1
  Se  Se222  1  0.75635779  0.74723999  0.79553879  1
  Se  Se223  1  0.24166467  0.09251843  0.19094048  1
  Se  Se224  1  0.25554563  0.07713728  0.69375995  1
  Se  Se225  1  0.25159700  0.42929564  0.18042916  1
  Se  Se226  1  0.25511731  0.41222975  0.69794013  1
  Se  Se227  1  0.25149214  0.75948550  0.19930673  1
  Se  Se228  1  0.24733072  0.74821615  0.70133658  1
  Se  Se229  1  0.57532537  0.09083666  0.19560439  1
  Se  Se230  1  0.59039742  0.08303774  0.70216139  1
  Se  Se231  1  0.57038984  0.43223611  0.19555631  1
  Se  Se232  1  0.58456582  0.42643080  0.68604922  1
  Se  Se233  1  0.58989865  0.75376146  0.19033383  1
  Se  Se234  1  0.57183100  0.76676053  0.70434935  1
  Se  Se235  1  0.91692328  0.06767956  0.19906543  1
  Se  Se236  1  0.92056151  0.07947801  0.69265465  1
  Se  Se237  1  0.90879427  0.41837616  0.19361211  1
  Se  Se238  1  0.91450723  0.43248461  0.69679452  1
  Se  Se239  1  0.91336584  0.75415579  0.18697769  1
  Se  Se240  1  0.91721630  0.76464716  0.67665103  1
  Se  Se241  1  0.08402873  0.24253460  0.19718428  1
  Se  Se242  1  0.08684029  0.23438149  0.68070709  1
  Se  Se243  1  0.09220187  0.58276742  0.18944973  1
  Se  Se244  1  0.09310009  0.57873523  0.68566706  1
  Se  Se245  1  0.08127288  0.91880791  0.20099593  1
  Se  Se246  1  0.08099206  0.91101987  0.68850311  1
  Se  Se247  1  0.41986610  0.25200350  0.19188473  1
  Se  Se248  1  0.41632238  0.24972551  0.69472627  1
  Se  Se249  1  0.41191188  0.59502125  0.19259342  1
  Se  Se250  1  0.42037726  0.58500169  0.69740005  1
  Se  Se251  1  0.42310133  0.91199641  0.18690025  1
  Se  Se252  1  0.43388677  0.90901329  0.71135994  1
  Se  Se253  1  0.76068386  0.23224762  0.19870344  1
  Se  Se254  1  0.75864707  0.24689516  0.69280876  1
  Se  Se255  1  0.74938431  0.58512803  0.19576280  1
  Se  Se256  1  0.75278306  0.59689055  0.68950993  1
  Se  Se257  1  0.75842037  0.90042353  0.18700138  1
  Se  Se258  1  0.75303235  0.91717256  0.69844116  1
