# generated using pymatgen
data_In86Cu29Se144
_symmetry_space_group_name_H-M   'P 1'
_cell_length_a   17.59426359
_cell_length_b   17.59572887
_cell_length_c   23.44459554
_cell_angle_alpha   90.00276295
_cell_angle_beta   90.01504248
_cell_angle_gamma   90.00171468
_symmetry_Int_Tables_number   1
_chemical_formula_structural   In86Cu29Se144
_chemical_formula_sum   'In86 Cu29 Se144'
_cell_volume   7258.06886768
_cell_formula_units_Z   1
loop_
 _symmetry_equiv_pos_site_id
 _symmetry_equiv_pos_as_xyz
  1  'x, y, z'
loop_
 _atom_site_type_symbol
 _atom_site_label
 _atom_site_symmetry_multiplicity
 _atom_site_fract_x
 _atom_site_fract_y
 _atom_site_fract_z
 _atom_site_occupancy
  In  In0  1  0.00842475  0.17665083  0.12824443  1
  In  In1  1  -0.00528683  0.15985042  0.61528551  1
  In  In2  1  -0.01416439  0.50638302  0.13622816  1
  In  In3  1  0.01295034  0.52158128  0.60124668  1
  In  In4  1  -0.01955248  0.83735095  0.12956626  1
  In  In5  1  -0.01255638  0.81581185  0.60839861  1
  In  In6  1  0.32288686  0.15827449  0.13264709  1
  In  In7  1  0.33706957  0.16592546  0.61497603  1
  In  In8  1  0.33472878  0.49898311  0.12855319  1
  In  In9  1  0.34391593  0.51288213  0.61484903  1
  In  In10  1  0.34847736  0.84030733  0.12745579  1
  In  In11  1  0.32514059  0.82891677  0.61584888  1
  In  In12  1  0.66901226  0.16116281  0.13184538  1
  In  In13  1  0.66461268  0.16754705  0.61511626  1
  In  In14  1  0.68000719  0.48447254  0.13020055  1
  In  In15  1  0.67463396  0.50089037  0.60375824  1
  In  In16  1  0.66998356  0.83423600  0.12378076  1
  In  In17  1  0.67911284  0.84756410  0.61703768  1
  In  In18  1  0.17539372  -0.00704514  0.37859953  1
  In  In19  1  0.17413288  0.00553721  0.87972753  1
  In  In20  1  0.15899889  0.33842563  0.38072670  1
  In  In21  1  0.15665436  0.33439394  0.87872848  1
  In  In22  1  0.14842716  0.67026186  0.38765579  1
  In  In23  1  0.16308311  0.66582287  0.86138209  1
  In  In24  1  0.50391049  -0.00273842  0.35881535  1
  In  In25  1  0.49738056  -0.01056468  0.87387881  1
  In  In26  1  0.53614338  0.30610985  0.40032595  1
  In  In27  1  0.50633537  0.33919058  0.87567267  1
  In  In28  1  0.49853517  0.67154409  0.38151846  1
  In  In29  1  0.50966410  0.68163662  0.87113127  1
  In  In30  1  0.82221393  0.01287715  0.38202003  1
  In  In31  1  0.82181268  0.00895016  0.88205857  1
  In  In32  1  0.82955874  0.32295228  0.37125052  1
  In  In33  1  0.83774039  0.33220547  0.88604152  1
  In  In34  1  0.85164038  0.66018715  0.39158247  1
  In  In35  1  0.84291522  0.66234688  0.87720368  1
  In  In36  1  -0.00895634  0.17293610  0.37733817  1
  In  In37  1  -0.00378192  0.17001962  0.88375665  1
  In  In38  1  -0.00130106  0.49584963  0.37907217  1
  In  In39  1  -0.00619227  0.50350139  0.87272117  1
  In  In40  1  0.00547489  0.82552921  0.38604847  1
  In  In41  1  -0.00005851  0.82266410  0.87272164  1
  In  In42  1  0.34513543  0.15429091  0.37165325  1
  In  In43  1  0.33234664  0.15788290  0.87967757  1
  In  In44  1  0.33420658  0.49664166  0.38495035  1
  In  In45  1  0.32068197  0.50216511  0.86904966  1
  In  In46  1  0.33578052  0.83712226  0.37437244  1
  In  In47  1  0.34302362  0.83847142  0.87037024  1
  In  In48  1  0.66659348  0.16419347  0.36427747  1
  In  In49  1  0.69017438  0.15923591  0.87506837  1
  In  In50  1  0.68213480  0.47587493  0.39344212  1
  In  In51  1  0.67342930  0.50695999  0.87724297  1
  In  In52  1  0.65949891  0.84615358  0.37982533  1
  In  In53  1  0.65783415  0.84095886  0.87862694  1
  In  In54  1  0.16375509  0.01736099  0.13656948  1
  In  In55  1  0.17268345  0.00238242  0.61246269  1
  In  In56  1  0.16352934  0.30971202  0.13440337  1
  In  In57  1  0.15894724  0.32872152  0.61399217  1
  In  In58  1  0.16470528  0.65385364  0.12917129  1
  In  In59  1  0.16712058  0.67154993  0.61880682  1
  In  In60  1  0.52527073  -0.01495187  0.15610901  1
  In  In61  1  0.51116461  0.01048772  0.61640117  1
  In  In62  1  0.51454828  0.33263368  0.13819494  1
  In  In63  1  0.51521507  0.33346641  0.60321400  1
  In  In64  1  0.48957811  0.66923279  0.12255185  1
  In  In65  1  0.49352034  0.66381673  0.61793263  1
  In  In66  1  0.81968651  -0.00792861  0.12220100  1
  In  In67  1  0.82759965  0.00071081  0.62528244  1
  In  In68  1  0.83565200  0.33643251  0.12681766  1
  In  In69  1  0.82801952  0.34126004  0.61075494  1
  In  In70  1  0.83742431  0.67349835  0.12607782  1
  In  In71  1  0.83533564  0.66815026  0.61490615  1
  In  In72  1  0.33329648  0.33421667  0.25723203  1
  In  In73  1  0.66778152  0.33491401  0.74158160  1
  In  In74  1  0.16189219  0.83712147  -0.00120694  1
  In  In75  1  0.50197843  0.15946757  0.01687453  1
  In  In76  1  0.50994974  0.50751622  -0.00070602  1
  In  In77  1  -0.00762784  0.33752903  0.75067989  1
  In  In78  1  0.33226452  0.32974883  0.73417332  1
  In  In79  1  0.66748044  0.67170113  0.74588864  1
  In  In80  1  0.16641268  0.49376098  0.00442980  1
  In  In81  1  -0.00269106  -0.00071358  0.25541007  1
  In  In82  1  -0.00161301  -0.00660464  0.74072528  1
  In  In83  1  0.66669099  0.67235742  0.25961402  1
  In  In84  1  0.32749527  0.66979010  0.26345194  1
  In  In85  1  0.33120447  -0.00629387  0.74789828  1
  Cu  Cu86  1  -0.00652709  0.00628346  0.00833530  1
  Cu  Cu87  1  0.50449040  0.50196288  0.26241241  1
  Cu  Cu88  1  0.51291368  0.16309323  0.74402162  1
  Cu  Cu89  1  0.49318018  0.50178131  0.74024689  1
  Cu  Cu90  1  0.83884845  0.50080237  0.74683361  1
  Cu  Cu91  1  0.15317640  0.49845422  0.25513793  1
  Cu  Cu92  1  0.00077468  0.00245368  0.49626125  1
  Cu  Cu93  1  0.67221354  0.66962292  -0.00077599  1
  Cu  Cu94  1  0.34185013  0.32329865  0.01134314  1
  Cu  Cu95  1  0.66653635  0.00213487  0.49447670  1
  Cu  Cu96  1  0.32829672  0.32786449  0.49517977  1
  Cu  Cu97  1  0.16758733  0.51273022  0.73827902  1
  Cu  Cu98  1  0.34521310  0.00265489  0.49272102  1
  Cu  Cu99  1  0.32758597  0.67132897  0.49720854  1
  Cu  Cu100  1  0.65954378  0.00164784  0.00546296  1
  Cu  Cu101  1  -0.00268221  0.66946489  0.00274232  1
  Cu  Cu102  1  -0.00673690  0.33099641  0.49461923  1
  Cu  Cu103  1  0.49702296  0.83165864  0.74746549  1
  Cu  Cu104  1  0.83342728  0.82971705  0.25587771  1
  Cu  Cu105  1  0.32910379  0.00367509  0.00415362  1
  Cu  Cu106  1  0.16354095  0.16914475  0.75297587  1
  Cu  Cu107  1  0.66246786  0.67473953  0.49614656  1
  Cu  Cu108  1  0.34064385  0.67691465  -0.00635400  1
  Cu  Cu109  1  0.83279808  0.16647697  0.24909290  1
  Cu  Cu110  1  0.00293377  0.32950365  0.00659831  1
  Cu  Cu111  1  0.83670926  0.82972609  0.74401861  1
  Cu  Cu112  1  0.16404736  0.82478335  0.25812514  1
  Cu  Cu113  1  0.83234137  0.49580746  0.26124497  1
  Cu  Cu114  1  0.15859925  0.82507936  0.73911103  1
  Se  Se115  1  0.08268337  0.08425992  0.05910311  1
  Se  Se116  1  0.08665308  0.08670808  0.54882887  1
  Se  Se117  1  0.07989939  0.40985229  0.06960074  1
  Se  Se118  1  0.08071636  0.41354074  0.54557317  1
  Se  Se119  1  0.07886950  0.74602572  0.06338517  1
  Se  Se120  1  0.09260841  0.75640179  0.54702746  1
  Se  Se121  1  0.41234673  0.06736205  0.07138939  1
  Se  Se122  1  0.42404844  0.08809584  0.54818350  1
  Se  Se123  1  0.42090464  0.41288378  0.06197444  1
  Se  Se124  1  0.40972434  0.41041064  0.55178262  1
  Se  Se125  1  0.41953110  0.75793853  0.05103906  1
  Se  Se126  1  0.41615221  0.75216577  0.54956977  1
  Se  Se127  1  0.74529019  0.08504670  0.05540503  1
  Se  Se128  1  0.75078293  0.08115269  0.55149352  1
  Se  Se129  1  0.76592168  0.42651516  0.05450675  1
  Se  Se130  1  0.72670002  0.39386277  0.54096929  1
  Se  Se131  1  0.75355064  0.75236046  0.05554738  1
  Se  Se132  1  0.75016175  0.75334918  0.55049616  1
  Se  Se133  1  0.25105220  0.24446902  0.05907536  1
  Se  Se134  1  0.24645354  0.24456986  0.55105537  1
  Se  Se135  1  0.26401905  0.59314342  0.05361862  1
  Se  Se136  1  0.24811990  0.58401727  0.55040847  1
  Se  Se137  1  0.24783200  0.92245294  0.06433314  1
  Se  Se138  1  0.25766858  0.92180535  0.54583858  1
  Se  Se139  1  0.59420462  0.26046587  0.06038896  1
  Se  Se140  1  0.58851461  0.24325244  0.53828153  1
  Se  Se141  1  0.59663273  0.59209583  0.06548003  1
  Se  Se142  1  0.58116447  0.58793272  0.54866151  1
  Se  Se143  1  0.57836161  0.92219911  0.06388836  1
  Se  Se144  1  0.58446237  0.91737963  0.54956052  1
  Se  Se145  1  0.91776160  0.24819908  0.05906411  1
  Se  Se146  1  0.91320699  0.24879048  0.55138746  1
  Se  Se147  1  0.91739511  0.58504774  0.05755619  1
  Se  Se148  1  0.88689617  0.55772375  0.55340882  1
  Se  Se149  1  0.91059971  0.91578844  0.05318643  1
  Se  Se150  1  0.91904276  0.92668840  0.55711074  1
  Se  Se151  1  0.08130177  0.24687187  0.44710052  1
  Se  Se152  1  0.08633214  0.24869043  0.95010172  1
  Se  Se153  1  0.07797189  0.57522504  0.45217774  1
  Se  Se154  1  0.08263778  0.59160772  0.94344306  1
  Se  Se155  1  0.08687312  0.91788337  0.44806406  1
  Se  Se156  1  0.06941323  0.92944938  0.94065773  1
  Se  Se157  1  0.41347927  0.24582548  0.44325325  1
  Se  Se158  1  0.41895801  0.25145103  0.94388088  1
  Se  Se159  1  0.41461838  0.58802378  0.44800787  1
  Se  Se160  1  0.41293834  0.58777071  0.93461941  1
  Se  Se161  1  0.42562268  0.91995491  0.43691583  1
  Se  Se162  1  0.40873333  0.92184876  0.94690872  1
  Se  Se163  1  0.74504561  0.24232798  0.43877755  1
  Se  Se164  1  0.74468849  0.25404965  0.94637350  1
  Se  Se165  1  0.74636955  0.58717900  0.44814995  1
  Se  Se166  1  0.75455059  0.58530419  0.94653790  1
  Se  Se167  1  0.75469460  0.91466686  0.44856347  1
  Se  Se168  1  0.74246268  0.91986129  0.94785835  1
  Se  Se169  1  0.25526554  0.08362518  0.44362090  1
  Se  Se170  1  0.24656606  0.08886799  0.95296135  1
  Se  Se171  1  0.24442904  0.41766922  0.45009224  1
  Se  Se172  1  0.26336824  0.40360214  0.94603628  1
  Se  Se173  1  0.24891595  0.75394975  0.44040733  1
  Se  Se174  1  0.25057487  0.74720568  0.93568678  1
  Se  Se175  1  0.58481850  0.07634076  0.43273231  1
  Se  Se176  1  0.58251524  0.07997010  0.94003341  1
  Se  Se177  1  0.55724843  0.43833295  0.44405615  1
  Se  Se178  1  0.59886005  0.40925386  0.94583133  1
  Se  Se179  1  0.57824524  0.75988970  0.44741265  1
  Se  Se180  1  0.58393937  0.75129189  0.94977781  1
  Se  Se181  1  0.91439163  0.08767035  0.44857545  1
  Se  Se182  1  0.91243567  0.08566971  0.94866650  1
  Se  Se183  1  0.90744725  0.41155015  0.44144383  1
  Se  Se184  1  0.92974912  0.41551103  0.94646001  1
  Se  Se185  1  0.92529552  0.74931891  0.45962810  1
  Se  Se186  1  0.91654747  0.75268799  0.94731980  1
  Se  Se187  1  0.24490017  0.24602884  0.31637808  1
  Se  Se188  1  0.24791288  0.24841055  0.80938876  1
  Se  Se189  1  0.23736425  0.57442259  0.31573354  1
  Se  Se190  1  0.25342318  0.58779708  0.79575120  1
  Se  Se191  1  0.24915058  0.91217744  0.30299474  1
  Se  Se192  1  0.23313984  0.90506587  0.80507290  1
  Se  Se193  1  0.58057997  0.25575426  0.30404213  1
  Se  Se194  1  0.58220133  0.24604036  0.80841539  1
  Se  Se195  1  0.58744604  0.57724608  0.32210631  1
  Se  Se196  1  0.57638833  0.57499890  0.80427901  1
  Se  Se197  1  0.59480861  0.91372791  0.29577316  1
  Se  Se198  1  0.58008537  0.91479982  0.80138628  1
  Se  Se199  1  0.91830178  0.24925634  0.29919608  1
  Se  Se200  1  0.90760687  0.24270384  0.80910452  1
  Se  Se201  1  0.91635505  0.58272815  0.30995120  1
  Se  Se202  1  0.91966496  0.58620461  0.80008650  1
  Se  Se203  1  0.91108053  0.91113820  0.31854846  1
  Se  Se204  1  0.91149864  0.91097326  0.80834156  1
  Se  Se205  1  0.08664364  0.08567978  0.31550010  1
  Se  Se206  1  0.08503011  0.08530409  0.80930700  1
  Se  Se207  1  0.07524872  0.40999075  0.30627716  1
  Se  Se208  1  0.09454953  0.42963122  0.80315716  1
  Se  Se209  1  0.07657028  0.74510379  0.30813261  1
  Se  Se210  1  0.07556307  0.74696672  0.79662393  1
  Se  Se211  1  0.40608008  0.06953726  0.29350091  1
  Se  Se212  1  0.42379650  0.09155995  0.80331856  1
  Se  Se213  1  0.42449537  0.41843621  0.31777963  1
  Se  Se214  1  0.41850918  0.41958142  0.80258541  1
  Se  Se215  1  0.43087591  0.75993443  0.30397369  1
  Se  Se216  1  0.41566599  0.74889800  0.80136504  1
  Se  Se217  1  0.75168274  0.07687688  0.29784659  1
  Se  Se218  1  0.74752425  0.07145847  0.79955021  1
  Se  Se219  1  0.74360562  0.41129224  0.30561010  1
  Se  Se220  1  0.75897133  0.42178804  0.80739739  1
  Se  Se221  1  0.76089676  0.75173757  0.32289683  1
  Se  Se222  1  0.75540582  0.75636364  0.81052337  1
  Se  Se223  1  0.24474491  0.08766013  0.20986869  1
  Se  Se224  1  0.24504744  0.09242291  0.69203407  1
  Se  Se225  1  0.23901190  0.42442970  0.19369351  1
  Se  Se226  1  0.24066329  0.42399091  0.68082434  1
  Se  Se227  1  0.24539629  0.75372470  0.18971364  1
  Se  Se228  1  0.25272933  0.74883008  0.69139165  1
  Se  Se229  1  0.57584768  0.10336923  0.20566702  1
  Se  Se230  1  0.59491629  0.08147609  0.69094603  1
  Se  Se231  1  0.58803831  0.42361864  0.20462507  1
  Se  Se232  1  0.57742713  0.42718976  0.68181827  1
  Se  Se233  1  0.57671234  0.75029087  0.19112097  1
  Se  Se234  1  0.57955038  0.75904649  0.68372608  1
  Se  Se235  1  0.91023332  0.08236633  0.18810136  1
  Se  Se236  1  0.90936310  0.09465666  0.69427351  1
  Se  Se237  1  0.91496885  0.41402080  0.20369033  1
  Se  Se238  1  0.91484154  0.42484814  0.68219892  1
  Se  Se239  1  0.91741321  0.74729582  0.20286803  1
  Se  Se240  1  0.91475916  0.74490034  0.68950956  1
  Se  Se241  1  0.08210267  0.24330496  0.20945195  1
  Se  Se242  1  0.08298577  0.24389767  0.69155881  1
  Se  Se243  1  0.07761783  0.58676209  0.20089017  1
  Se  Se244  1  0.07762934  0.58933969  0.68662372  1
  Se  Se245  1  0.08721969  0.90620832  0.19307798  1
  Se  Se246  1  0.08885754  0.91009184  0.67805788  1
  Se  Se247  1  0.41908911  0.24598299  0.19345772  1
  Se  Se248  1  0.43447512  0.24421787  0.68328421  1
  Se  Se249  1  0.42213393  0.57723234  0.20044594  1
  Se  Se250  1  0.41215307  0.59118907  0.69419059  1
  Se  Se251  1  0.40568249  0.92662623  0.20384334  1
  Se  Se252  1  0.42308059  0.91396370  0.68402722  1
  Se  Se253  1  0.75167038  0.25180953  0.19455285  1
  Se  Se254  1  0.75975556  0.24681288  0.68538236  1
  Se  Se255  1  0.75690737  0.58124842  0.19866981  1
  Se  Se256  1  0.74972087  0.57375473  0.68837662  1
  Se  Se257  1  0.75091400  0.90944542  0.19911356  1
  Se  Se258  1  0.75128025  0.91663688  0.69828466  1
