# generated using pymatgen
data_In86Cu29Se144
_symmetry_space_group_name_H-M   'P 1'
_cell_length_a   17.58467311
_cell_length_b   17.58136412
_cell_length_c   23.44855359
_cell_angle_alpha   90.01202839
_cell_angle_beta   90.01647314
_cell_angle_gamma   90.00566537
_symmetry_Int_Tables_number   1
_chemical_formula_structural   In86Cu29Se144
_chemical_formula_sum   'In86 Cu29 Se144'
_cell_volume   7249.41390962
_cell_formula_units_Z   1
loop_
 _symmetry_equiv_pos_site_id
 _symmetry_equiv_pos_as_xyz
  1  'x, y, z'
loop_
 _atom_site_type_symbol
 _atom_site_label
 _atom_site_symmetry_multiplicity
 _atom_site_fract_x
 _atom_site_fract_y
 _atom_site_fract_z
 _atom_site_occupancy
  In  In0  1  -0.00057956  0.15085569  0.12704569  1
  In  In1  1  0.02021799  0.14774900  0.63313693  1
  In  In2  1  0.00396952  0.50324193  0.11273140  1
  In  In3  1  -0.01123583  0.51437963  0.64201242  1
  In  In4  1  0.00079188  0.84769045  0.12360137  1
  In  In5  1  -0.00681512  0.84613387  0.63766799  1
  In  In6  1  0.33216717  0.16326220  0.12825692  1
  In  In7  1  0.29760224  0.14222349  0.58612109  1
  In  In8  1  0.32611064  0.50571489  0.12867526  1
  In  In9  1  0.32717896  0.49637948  0.62503705  1
  In  In10  1  0.34192351  0.83110432  0.13000709  1
  In  In11  1  0.34945547  0.83882349  0.62176001  1
  In  In12  1  0.66469091  0.17766274  0.13582880  1
  In  In13  1  0.65875508  0.16637336  0.61929658  1
  In  In14  1  0.66827011  0.48745154  0.12390291  1
  In  In15  1  0.68132962  0.49938814  0.62592900  1
  In  In16  1  0.67224105  0.84159044  0.11924075  1
  In  In17  1  0.65861660  0.83231773  0.62040375  1
  In  In18  1  0.18003474  0.00939914  0.37204960  1
  In  In19  1  0.17648143  -0.00040307  0.86554494  1
  In  In20  1  0.17040852  0.32124568  0.38060298  1
  In  In21  1  0.15536290  0.34017819  0.88497820  1
  In  In22  1  0.17367147  0.65946693  0.37288321  1
  In  In23  1  0.15442994  0.66896989  0.87160712  1
  In  In24  1  0.49694221  0.00056000  0.37797509  1
  In  In25  1  0.48878772  0.00594070  0.88521920  1
  In  In26  1  0.48419391  0.31413627  0.36378556  1
  In  In27  1  0.48831513  0.32555710  0.87916930  1
  In  In28  1  0.49720666  0.68130941  0.37539102  1
  In  In29  1  0.51386269  0.66623495  0.87329194  1
  In  In30  1  0.82589685  -0.00273240  0.36923945  1
  In  In31  1  0.83529742  -0.01492952  0.87721046  1
  In  In32  1  0.83279352  0.33959133  0.37654624  1
  In  In33  1  0.85292695  0.33268229  0.87271381  1
  In  In34  1  0.83025262  0.66542879  0.38471088  1
  In  In35  1  0.83226007  0.66854095  0.87570694  1
  In  In36  1  0.01337950  0.16271580  0.37967533  1
  In  In37  1  0.01270674  0.17606148  0.86864936  1
  In  In38  1  -0.00635648  0.48663882  0.38107147  1
  In  In39  1  -0.00076224  0.49850734  0.87411717  1
  In  In40  1  -0.01414844  0.83736794  0.38140087  1
  In  In41  1  -0.00099902  0.82199262  0.86223186  1
  In  In42  1  0.33383290  0.16663760  0.38018840  1
  In  In43  1  0.33268693  0.15827217  0.88426197  1
  In  In44  1  0.33623056  0.50241611  0.36255465  1
  In  In45  1  0.33182741  0.49595558  0.88083433  1
  In  In46  1  0.34891178  0.85022051  0.36552092  1
  In  In47  1  0.32156715  0.84931240  0.87603080  1
  In  In48  1  0.65267948  0.14471812  0.35596431  1
  In  In49  1  0.65812778  0.15719666  0.87992592  1
  In  In50  1  0.67763487  0.49832708  0.37334602  1
  In  In51  1  0.66439560  0.51799691  0.87340094  1
  In  In52  1  0.65407061  0.84584818  0.38143515  1
  In  In53  1  0.67757967  0.82817112  0.88377923  1
  In  In54  1  0.15917371  0.00906179  0.13104148  1
  In  In55  1  0.16061555  0.00135743  0.62775556  1
  In  In56  1  0.17441126  0.34118378  0.11972192  1
  In  In57  1  0.16934069  0.32204999  0.62647023  1
  In  In58  1  0.18734895  0.66696556  0.11390434  1
  In  In59  1  0.15468768  0.66052750  0.63552161  1
  In  In60  1  0.49921690  0.00035903  0.12649067  1
  In  In61  1  0.48591990  0.00012391  0.61117189  1
  In  In62  1  0.50786833  0.32023283  0.13225027  1
  In  In63  1  0.48917637  0.31600617  0.61681198  1
  In  In64  1  0.48116286  0.67250686  0.12129001  1
  In  In65  1  0.49718146  0.68608454  0.62945911  1
  In  In66  1  0.84039274  -0.00146973  0.13330126  1
  In  In67  1  0.85987114  -0.00663411  0.61891239  1
  In  In68  1  0.82316036  0.33471238  0.12399874  1
  In  In69  1  0.83149856  0.34477728  0.62213406  1
  In  In70  1  0.83589837  0.66893825  0.11536881  1
  In  In71  1  0.83277163  0.67011084  0.62810655  1
  In  In72  1  0.83106717  0.16663815  0.49808491  1
  In  In73  1  0.66170671  0.66789050  0.25110042  1
  In  In74  1  0.83159318  0.16844173  0.00452648  1
  In  In75  1  0.32793754  0.32922896  0.74640666  1
  In  In76  1  0.16173144  0.83168685  -0.00580210  1
  In  In77  1  0.67306666  -0.00307129  0.75169444  1
  In  In78  1  0.66617198  0.33569413  0.74167964  1
  In  In79  1  0.50464293  0.49667842  0.50419100  1
  In  In80  1  0.49991750  0.50018065  0.00257404  1
  In  In81  1  0.00455318  0.32915924  0.25527162  1
  In  In82  1  0.16568355  0.83660027  0.50254102  1
  In  In83  1  0.32829446  0.67471848  0.75947996  1
  In  In84  1  0.15922420  0.49643785  0.50435352  1
  In  In85  1  0.00608070  0.67107782  0.25159147  1
  Cu  Cu86  1  0.65794951  -0.00036448  0.00353514  1
  Cu  Cu87  1  -0.00942950  0.66392576  0.50861443  1
  Cu  Cu88  1  -0.00881095  0.33360893  0.50579670  1
  Cu  Cu89  1  -0.00464145  -0.00129917  0.00065715  1
  Cu  Cu90  1  0.83452194  0.49549668  0.24963100  1
  Cu  Cu91  1  0.84484339  0.16331211  0.74779669  1
  Cu  Cu92  1  0.66739478  0.33357063  0.00451185  1
  Cu  Cu93  1  0.66905734  0.67169665  -0.00069424  1
  Cu  Cu94  1  0.17281887  0.16338665  0.74765239  1
  Cu  Cu95  1  0.83409366  0.50406190  0.75270276  1
  Cu  Cu96  1  0.50342638  0.50441053  0.74762566  1
  Cu  Cu97  1  0.33560116  0.67391456  0.49971657  1
  Cu  Cu98  1  0.17525662  0.50176473  0.24530510  1
  Cu  Cu99  1  0.66820361  -0.00411947  0.49405853  1
  Cu  Cu100  1  0.67257871  0.66761048  0.50220059  1
  Cu  Cu101  1  0.66476496  0.33087638  0.49312849  1
  Cu  Cu102  1  -0.00542845  0.66707700  -0.00874954  1
  Cu  Cu103  1  0.16777592  0.83782366  0.24449447  1
  Cu  Cu104  1  0.17366800  0.16665931  0.25298142  1
  Cu  Cu105  1  0.50523961  0.84445189  0.74832087  1
  Cu  Cu106  1  0.50095953  0.49492525  0.24288370  1
  Cu  Cu107  1  0.00592156  0.33517644  -0.00383184  1
  Cu  Cu108  1  0.32902638  -0.00082010  0.00466093  1
  Cu  Cu109  1  0.82812768  0.83867688  0.25154523  1
  Cu  Cu110  1  0.49301439  0.15757833  0.75398468  1
  Cu  Cu111  1  0.83483528  0.82799432  0.75153412  1
  Cu  Cu112  1  0.49469056  0.16131164  0.25043742  1
  Cu  Cu113  1  0.49795895  0.83940246  0.25160472  1
  Cu  Cu114  1  0.33560881  0.32258431  0.00516073  1
  Se  Se115  1  0.08168062  0.08035463  0.05201411  1
  Se  Se116  1  0.09099372  0.08360465  0.55148768  1
  Se  Se117  1  0.09008991  0.41921086  0.04924290  1
  Se  Se118  1  0.06923888  0.41402245  0.56862055  1
  Se  Se119  1  0.07274254  0.74183447  0.05939430  1
  Se  Se120  1  0.07787555  0.74309028  0.56165332  1
  Se  Se121  1  0.41409062  0.08178763  0.05730660  1
  Se  Se122  1  0.43281745  0.11004056  0.55056409  1
  Se  Se123  1  0.41631005  0.40685117  0.06375635  1
  Se  Se124  1  0.40200089  0.40867015  0.55376457  1
  Se  Se125  1  0.40645999  0.75288113  0.05010566  1
  Se  Se126  1  0.42426194  0.75480634  0.54881167  1
  Se  Se127  1  0.74229242  0.07863291  0.06351202  1
  Se  Se128  1  0.74686747  0.06985231  0.56143775  1
  Se  Se129  1  0.75436177  0.42029200  0.04913516  1
  Se  Se130  1  0.74460979  0.41373910  0.54900347  1
  Se  Se131  1  0.75326601  0.75577651  0.05149884  1
  Se  Se132  1  0.75164874  0.75276666  0.55736589  1
  Se  Se133  1  0.24753856  0.24294776  0.05710642  1
  Se  Se134  1  0.24686661  0.26730089  0.54441544  1
  Se  Se135  1  0.25280104  0.57181555  0.04765404  1
  Se  Se136  1  0.25304697  0.59535452  0.55808959  1
  Se  Se137  1  0.24529514  0.91845982  0.06236014  1
  Se  Se138  1  0.26016289  0.92504224  0.55761873  1
  Se  Se139  1  0.58713256  0.24704053  0.05573918  1
  Se  Se140  1  0.58333534  0.24880726  0.54783751  1
  Se  Se141  1  0.59082468  0.59228199  0.06314511  1
  Se  Se142  1  0.58850098  0.59266702  0.56475741  1
  Se  Se143  1  0.57530304  0.91316932  0.05473419  1
  Se  Se144  1  0.58166584  0.91903808  0.55170007  1
  Se  Se145  1  0.92749534  0.25820879  0.06159007  1
  Se  Se146  1  0.91997452  0.24605411  0.56700768  1
  Se  Se147  1  0.91433017  0.58260741  0.04794285  1
  Se  Se148  1  0.91063879  0.57747065  0.56066163  1
  Se  Se149  1  0.91029100  0.91863276  0.05421319  1
  Se  Se150  1  0.92939215  0.90601503  0.54928326  1
  Se  Se151  1  0.07768698  0.25585839  0.45134845  1
  Se  Se152  1  0.08629404  0.24155803  0.95113495  1
  Se  Se153  1  0.07144670  0.59160712  0.44237166  1
  Se  Se154  1  0.08214976  0.58342376  0.94371164  1
  Se  Se155  1  0.08245263  0.92464096  0.43747200  1
  Se  Se156  1  0.07334710  0.92277959  0.93497291  1
  Se  Se157  1  0.41901528  0.24992172  0.44773484  1
  Se  Se158  1  0.41983558  0.24085900  0.95184884  1
  Se  Se159  1  0.41273547  0.58659117  0.44245317  1
  Se  Se160  1  0.41500811  0.59203635  0.94106347  1
  Se  Se161  1  0.42091233  0.91251281  0.44735492  1
  Se  Se162  1  0.41001625  0.91471327  0.95022499  1
  Se  Se163  1  0.73938668  0.24640156  0.43318329  1
  Se  Se164  1  0.74486677  0.25735844  0.93731556  1
  Se  Se165  1  0.74898376  0.57754042  0.45005934  1
  Se  Se166  1  0.75010107  0.58489425  0.94703754  1
  Se  Se167  1  0.75554855  0.91352719  0.44480467  1
  Se  Se168  1  0.74846125  0.92137537  0.95234573  1
  Se  Se169  1  0.24702669  0.08863735  0.45007939  1
  Se  Se170  1  0.24247553  0.07560611  0.94750276  1
  Se  Se171  1  0.25469690  0.42223665  0.43846188  1
  Se  Se172  1  0.25752854  0.40759208  0.94847019  1
  Se  Se173  1  0.25568307  0.75013909  0.43776550  1
  Se  Se174  1  0.25531101  0.74119026  0.93887118  1
  Se  Se175  1  0.58765021  0.08386050  0.44324246  1
  Se  Se176  1  0.57603413  0.08666888  0.95323362  1
  Se  Se177  1  0.58266037  0.41075055  0.43377114  1
  Se  Se178  1  0.58946377  0.41087665  0.93782384  1
  Se  Se179  1  0.58667637  0.74703328  0.44763102  1
  Se  Se180  1  0.58190916  0.75200181  0.94762018  1
  Se  Se181  1  0.91988051  0.07511125  0.44077249  1
  Se  Se182  1  0.91988111  0.08393688  0.93877386  1
  Se  Se183  1  0.90804734  0.41710200  0.45372590  1
  Se  Se184  1  0.91701179  0.41759863  0.94795319  1
  Se  Se185  1  0.91355671  0.74867099  0.45127240  1
  Se  Se186  1  0.91660954  0.75717887  0.94091365  1
  Se  Se187  1  0.25387236  0.25150809  0.30696303  1
  Se  Se188  1  0.24459175  0.24434367  0.81457705  1
  Se  Se189  1  0.25487128  0.59076568  0.29698287  1
  Se  Se190  1  0.24408846  0.57162513  0.80984809  1
  Se  Se191  1  0.25097170  0.91926566  0.30093711  1
  Se  Se192  1  0.25098570  0.91427420  0.79472182  1
  Se  Se193  1  0.58321465  0.24962242  0.29732343  1
  Se  Se194  1  0.57653802  0.24428511  0.80568762  1
  Se  Se195  1  0.57280470  0.57548166  0.31077866  1
  Se  Se196  1  0.58765534  0.58961915  0.79578539  1
  Se  Se197  1  0.58220453  0.92196055  0.30452324  1
  Se  Se198  1  0.58145878  0.91725365  0.81699133  1
  Se  Se199  1  0.91444417  0.24213238  0.31488955  1
  Se  Se200  1  0.92428201  0.25149581  0.79856197  1
  Se  Se201  1  0.91282384  0.57748593  0.30990065  1
  Se  Se202  1  0.91636422  0.58601804  0.80789354  1
  Se  Se203  1  0.91805880  0.91617231  0.30345967  1
  Se  Se204  1  0.91651468  0.91716852  0.80125923  1
  Se  Se205  1  0.08688960  0.08422443  0.30382641  1
  Se  Se206  1  0.08645923  0.08326781  0.80204016  1
  Se  Se207  1  0.09580175  0.42684221  0.31074220  1
  Se  Se208  1  0.07541008  0.40567857  0.80874604  1
  Se  Se209  1  0.09263165  0.76207857  0.31295327  1
  Se  Se210  1  0.09804557  0.75823427  0.79657475  1
  Se  Se211  1  0.41303011  0.08232629  0.30887560  1
  Se  Se212  1  0.40912964  0.07861762  0.80888696  1
  Se  Se213  1  0.41668811  0.41393395  0.29832685  1
  Se  Se214  1  0.42452337  0.42286087  0.80571024  1
  Se  Se215  1  0.41488109  0.74906193  0.29944872  1
  Se  Se216  1  0.42700481  0.76381387  0.81202532  1
  Se  Se217  1  0.75763574  0.08353772  0.29589444  1
  Se  Se218  1  0.76117118  0.09235895  0.81146221  1
  Se  Se219  1  0.75059134  0.41293819  0.30106665  1
  Se  Se220  1  0.75131809  0.41952691  0.81041366  1
  Se  Se221  1  0.75250956  0.75485943  0.31246151  1
  Se  Se222  1  0.74718927  0.75039821  0.80569993  1
  Se  Se223  1  0.25257387  0.07916468  0.19925325  1
  Se  Se224  1  0.25517834  0.09008792  0.68478442  1
  Se  Se225  1  0.25511162  0.41100709  0.19681023  1
  Se  Se226  1  0.23538804  0.42649756  0.69556744  1
  Se  Se227  1  0.24787585  0.75033561  0.19303254  1
  Se  Se228  1  0.25277560  0.75565188  0.68474532  1
  Se  Se229  1  0.58217682  0.08357352  0.19579346  1
  Se  Se230  1  0.57879475  0.08368408  0.69290254  1
  Se  Se231  1  0.58964674  0.41177312  0.19682750  1
  Se  Se232  1  0.56977824  0.42044620  0.68161460  1
  Se  Se233  1  0.57527234  0.75710594  0.18895429  1
  Se  Se234  1  0.58740301  0.75572012  0.69999743  1
  Se  Se235  1  0.91200565  0.09034975  0.20092387  1
  Se  Se236  1  0.92393131  0.07398112  0.69799837  1
  Se  Se237  1  0.92185077  0.42332331  0.19020734  1
  Se  Se238  1  0.91013652  0.41346359  0.69976257  1
  Se  Se239  1  0.90920938  0.75617793  0.19277611  1
  Se  Se240  1  0.92011510  0.74587299  0.69847654  1
  Se  Se241  1  0.09214607  0.24454960  0.18990186  1
  Se  Se242  1  0.08582585  0.24810384  0.69882232  1
  Se  Se243  1  0.09106891  0.58099146  0.18776565  1
  Se  Se244  1  0.08345773  0.58156230  0.70920480  1
  Se  Se245  1  0.07797600  0.92110809  0.19880607  1
  Se  Se246  1  0.09600062  0.90982351  0.69898322  1
  Se  Se247  1  0.41331688  0.24826832  0.19800773  1
  Se  Se248  1  0.41433968  0.23456846  0.69094985  1
  Se  Se249  1  0.41806597  0.58276335  0.19497514  1
  Se  Se250  1  0.41623861  0.58295700  0.69113989  1
  Se  Se251  1  0.41375297  0.92235019  0.19832453  1
  Se  Se252  1  0.42149263  0.92524774  0.69448238  1
  Se  Se253  1  0.76177642  0.25001201  0.19875812  1
  Se  Se254  1  0.75796359  0.23761478  0.68880433  1
  Se  Se255  1  0.75775832  0.58136331  0.19118283  1
  Se  Se256  1  0.74951315  0.58557576  0.69868493  1
  Se  Se257  1  0.74523806  0.91858254  0.19593079  1
  Se  Se258  1  0.76072631  0.91155902  0.68741523  1
