# generated using pymatgen
data_In86Cu29Se144
_symmetry_space_group_name_H-M   'P 1'
_cell_length_a   17.60750134
_cell_length_b   17.60296015
_cell_length_c   23.45896751
_cell_angle_alpha   89.98861895
_cell_angle_beta   89.97572551
_cell_angle_gamma   90.01634094
_symmetry_Int_Tables_number   1
_chemical_formula_structural   In86Cu29Se144
_chemical_formula_sum   'In86 Cu29 Se144'
_cell_volume   7270.96852209
_cell_formula_units_Z   1
loop_
 _symmetry_equiv_pos_site_id
 _symmetry_equiv_pos_as_xyz
  1  'x, y, z'
loop_
 _atom_site_type_symbol
 _atom_site_label
 _atom_site_symmetry_multiplicity
 _atom_site_fract_x
 _atom_site_fract_y
 _atom_site_fract_z
 _atom_site_occupancy
  In  In0  1  0.00758816  0.15616135  0.12693903  1
  In  In1  1  0.01082331  0.19582801  0.60477213  1
  In  In2  1  -0.00027079  0.49889960  0.11204626  1
  In  In3  1  0.01016170  0.45488540  0.63494227  1
  In  In4  1  -0.00039296  0.82274203  0.12654410  1
  In  In5  1  0.00850338  0.83617777  0.61705331  1
  In  In6  1  0.32111944  0.16445920  0.12670157  1
  In  In7  1  0.33863949  0.17050836  0.62326692  1
  In  In8  1  0.33406171  0.51048883  0.12235646  1
  In  In9  1  0.32557869  0.50805913  0.63254583  1
  In  In10  1  0.33387812  0.83539422  0.12730233  1
  In  In11  1  0.33297602  0.82904566  0.61838940  1
  In  In12  1  0.66236447  0.16779199  0.13273353  1
  In  In13  1  0.67023872  0.15887682  0.61365533  1
  In  In14  1  0.66367717  0.48762705  0.11843718  1
  In  In15  1  0.68903134  0.49257503  0.64999823  1
  In  In16  1  0.66423154  0.84458372  0.12801489  1
  In  In17  1  0.66915184  0.83053951  0.61956764  1
  In  In18  1  0.17452005  -0.01063856  0.38242909  1
  In  In19  1  0.16647210  0.00172979  0.88070015  1
  In  In20  1  0.16528410  0.33512310  0.39042721  1
  In  In21  1  0.16714890  0.33326336  0.87003672  1
  In  In22  1  0.17613594  0.66522967  0.37804049  1
  In  In23  1  0.17367221  0.65958185  0.87627024  1
  In  In24  1  0.49573152  0.00317586  0.37263266  1
  In  In25  1  0.49664226  -0.01217304  0.87551420  1
  In  In26  1  0.50400104  0.31497420  0.37875754  1
  In  In27  1  0.50409954  0.33967476  0.86313851  1
  In  In28  1  0.50341461  0.69884036  0.37162208  1
  In  In29  1  0.50385548  0.67687992  0.86959221  1
  In  In30  1  0.78660015  0.02342129  0.41892414  1
  In  In31  1  0.83080422  0.01107704  0.87056185  1
  In  In32  1  0.82425824  0.32951012  0.37594719  1
  In  In33  1  0.83464558  0.34109310  0.86300471  1
  In  In34  1  0.83770458  0.66866064  0.37767864  1
  In  In35  1  0.81405976  0.66332293  0.86801644  1
  In  In36  1  -0.00368265  0.17516581  0.39075384  1
  In  In37  1  0.00101502  0.17975875  0.86768279  1
  In  In38  1  0.00647150  0.50701970  0.37948287  1
  In  In39  1  0.01006757  0.49172771  0.87881545  1
  In  In40  1  -0.00692242  0.83570969  0.38779010  1
  In  In41  1  0.00376457  0.84435379  0.87652513  1
  In  In42  1  0.34241050  0.15476648  0.38547746  1
  In  In43  1  0.31969047  0.17063628  0.87086160  1
  In  In44  1  0.32594017  0.50463616  0.37346796  1
  In  In45  1  0.32408228  0.49103506  0.86450707  1
  In  In46  1  0.33714129  0.83347804  0.36770194  1
  In  In47  1  0.33912074  0.82697864  0.88028048  1
  In  In48  1  0.65986239  0.16303042  0.37565826  1
  In  In49  1  0.67503568  0.17052459  0.86310902  1
  In  In50  1  0.67608678  0.49090906  0.37189146  1
  In  In51  1  0.66807971  0.50111248  0.87027876  1
  In  In52  1  0.63674030  0.87869985  0.42543337  1
  In  In53  1  0.65310958  0.82844394  0.86978907  1
  In  In54  1  0.17963270  0.00534028  0.12412870  1
  In  In55  1  0.17234378  0.00750539  0.61909100  1
  In  In56  1  0.16490211  0.32982860  0.11431115  1
  In  In57  1  0.16658437  0.33464701  0.62462973  1
  In  In58  1  0.17277858  0.67623463  0.11388396  1
  In  In59  1  0.17893084  0.66944778  0.62416226  1
  In  In60  1  0.50639818  -0.01197060  0.13394863  1
  In  In61  1  0.51446872  0.00881022  0.60526198  1
  In  In62  1  0.50982073  0.33875165  0.12237595  1
  In  In63  1  0.51221396  0.32448359  0.63171464  1
  In  In64  1  0.48104214  0.67082639  0.13137688  1
  In  In65  1  0.49678319  0.67256922  0.62585221  1
  In  In66  1  0.82472819  -0.00154159  0.13475002  1
  In  In67  1  0.82471426  -0.00125261  0.61125813  1
  In  In68  1  0.81804669  0.33338168  0.11596767  1
  In  In69  1  0.84171573  0.32030658  0.63478967  1
  In  In70  1  0.84317926  0.66305033  0.12269666  1
  In  In71  1  0.82746868  0.65510168  0.62856608  1
  In  In72  1  0.49873333  0.50523750  -0.00916207  1
  In  In73  1  0.84051046  0.17009991  -0.00567337  1
  In  In74  1  0.49632526  0.50711156  0.51016663  1
  In  In75  1  0.49994168  0.16545282  0.00161735  1
  In  In76  1  -0.00148110  0.66312776  0.74998105  1
  In  In77  1  -0.00382423  0.00958814  0.74331217  1
  In  In78  1  0.33898268  0.00472956  0.74104117  1
  In  In79  1  0.00185169  0.66564792  0.25209205  1
  In  In80  1  -0.00373682  0.33103091  0.26058508  1
  In  In81  1  0.66497155  0.66954660  0.25344616  1
  In  In82  1  0.83535779  0.83261610  0.00316148  1
  In  In83  1  0.84396915  0.49511420  0.50920880  1
  In  In84  1  0.33833192  0.32812964  0.25292260  1
  In  In85  1  -0.00199850  0.00082422  0.25785708  1
  Cu  Cu86  1  0.66510587  -0.00143647  0.00125615  1
  Cu  Cu87  1  0.50309315  0.16023184  0.25425275  1
  Cu  Cu88  1  0.50356603  0.16333887  0.74136043  1
  Cu  Cu89  1  0.49730405  0.50658731  0.74775491  1
  Cu  Cu90  1  0.50668930  0.83818555  0.74583744  1
  Cu  Cu91  1  0.33037101  0.33397911  0.50459543  1
  Cu  Cu92  1  0.66872576  0.66141820  0.50883271  1
  Cu  Cu93  1  0.82106100  0.84095263  0.26214697  1
  Cu  Cu94  1  0.16384611  0.49487962  0.75112789  1
  Cu  Cu95  1  0.82769854  0.48711866  0.24487498  1
  Cu  Cu96  1  0.50730990  0.49642570  0.24779231  1
  Cu  Cu97  1  0.01397160  0.65884543  0.50665137  1
  Cu  Cu98  1  0.33843495  0.67293950  0.49812185  1
  Cu  Cu99  1  0.32607914  -0.00337109  0.49848512  1
  Cu  Cu100  1  0.17297409  0.50519310  0.24645456  1
  Cu  Cu101  1  0.32629041  0.66879945  0.00046861  1
  Cu  Cu102  1  0.32758073  0.33378182  -0.00769752  1
  Cu  Cu103  1  0.17077964  0.83342770  0.24877310  1
  Cu  Cu104  1  0.16834506  0.16436537  0.25614506  1
  Cu  Cu105  1  0.66198972  0.33067611  0.50299239  1
  Cu  Cu106  1  0.82638200  0.16059381  0.74039152  1
  Cu  Cu107  1  -0.00082995  0.00003703  0.50072749  1
  Cu  Cu108  1  0.00534910  0.33260234  -0.00782731  1
  Cu  Cu109  1  0.82479359  0.83681971  0.74070214  1
  Cu  Cu110  1  -0.00106254  0.66440573  -0.00437427  1
  Cu  Cu111  1  0.01493162  -0.00134282  0.00349507  1
  Cu  Cu112  1  0.33123355  -0.00501950  0.00042812  1
  Cu  Cu113  1  0.65860433  0.66733648  -0.00556350  1
  Cu  Cu114  1  0.17775858  0.83185039  0.74835483  1
  Se  Se115  1  0.09373718  0.08687626  0.05520145  1
  Se  Se116  1  0.08127348  0.08454489  0.55388090  1
  Se  Se117  1  0.08716178  0.41703301  0.04748499  1
  Se  Se118  1  0.09360752  0.42084305  0.55088894  1
  Se  Se119  1  0.07704482  0.75179658  0.05012025  1
  Se  Se120  1  0.09474330  0.74991286  0.55494292  1
  Se  Se121  1  0.41120974  0.07590081  0.06163767  1
  Se  Se122  1  0.40992229  0.08318271  0.55032930  1
  Se  Se123  1  0.41034932  0.41007847  0.05448443  1
  Se  Se124  1  0.41163924  0.41024477  0.56741045  1
  Se  Se125  1  0.41135521  0.74931006  0.05462758  1
  Se  Se126  1  0.42431569  0.75405383  0.55032596  1
  Se  Se127  1  0.74828928  0.08004050  0.05652901  1
  Se  Se128  1  0.73965271  0.07185061  0.53818708  1
  Se  Se129  1  0.75772834  0.43013940  0.04755590  1
  Se  Se130  1  0.74180447  0.41190492  0.56226697  1
  Se  Se131  1  0.74011668  0.74195018  0.06049350  1
  Se  Se132  1  0.75880146  0.74343472  0.55681866  1
  Se  Se133  1  0.25293845  0.24709735  0.05040223  1
  Se  Se134  1  0.24895994  0.24821436  0.55658686  1
  Se  Se135  1  0.24649782  0.57871939  0.05027508  1
  Se  Se136  1  0.25898061  0.58686626  0.55268931  1
  Se  Se137  1  0.24766874  0.91250395  0.05511028  1
  Se  Se138  1  0.24582341  0.91325206  0.55414445  1
  Se  Se139  1  0.59705723  0.25680679  0.05320137  1
  Se  Se140  1  0.57787865  0.24540705  0.55262613  1
  Se  Se141  1  0.57993164  0.59246343  0.06174045  1
  Se  Se142  1  0.59830564  0.57844447  0.57231253  1
  Se  Se143  1  0.58169056  0.91609562  0.05356649  1
  Se  Se144  1  0.58769772  0.90893376  0.54456544  1
  Se  Se145  1  0.93078816  0.25547024  0.05996349  1
  Se  Se146  1  0.89956460  0.25326973  0.54794231  1
  Se  Se147  1  0.91285970  0.58258636  0.04726584  1
  Se  Se148  1  0.93531265  0.58165950  0.57008326  1
  Se  Se149  1  0.92437931  0.92810373  0.06302495  1
  Se  Se150  1  0.91772951  0.91294664  0.55230833  1
  Se  Se151  1  0.08277152  0.25438319  0.45635341  1
  Se  Se152  1  0.08738354  0.24688614  0.94133996  1
  Se  Se153  1  0.09448983  0.58082491  0.44716861  1
  Se  Se154  1  0.08610800  0.58262997  0.94485261  1
  Se  Se155  1  0.08456321  0.91460992  0.45093444  1
  Se  Se156  1  0.09100811  0.91143063  0.94905475  1
  Se  Se157  1  0.41402442  0.25112330  0.45115260  1
  Se  Se158  1  0.41559902  0.25643480  0.93717400  1
  Se  Se159  1  0.41901926  0.59210995  0.43763944  1
  Se  Se160  1  0.40416913  0.59214465  0.93420181  1
  Se  Se161  1  0.40973301  0.91869946  0.44128333  1
  Se  Se162  1  0.41808279  0.91341679  0.94953565  1
  Se  Se163  1  0.74221848  0.25062181  0.44535051  1
  Se  Se164  1  0.74694015  0.25652501  0.93790959  1
  Se  Se165  1  0.74732587  0.58139991  0.44639619  1
  Se  Se166  1  0.74332933  0.58436973  0.94475647  1
  Se  Se167  1  0.78042678  0.88238783  0.44755430  1
  Se  Se168  1  0.74816698  0.92144410  0.93981001  1
  Se  Se169  1  0.24266928  0.08640824  0.44947309  1
  Se  Se170  1  0.25471831  0.08298959  0.94581660  1
  Se  Se171  1  0.25669798  0.42212983  0.44846942  1
  Se  Se172  1  0.24558821  0.41952181  0.94136941  1
  Se  Se173  1  0.25495696  0.75489593  0.44265832  1
  Se  Se174  1  0.24438189  0.75256129  0.94499052  1
  Se  Se175  1  0.56561365  0.09373477  0.44280669  1
  Se  Se176  1  0.59189073  0.08057006  0.93732380  1
  Se  Se177  1  0.58445157  0.41630868  0.44489332  1
  Se  Se178  1  0.58878810  0.40776927  0.94178938  1
  Se  Se179  1  0.58556821  0.74224138  0.45539460  1
  Se  Se180  1  0.57632257  0.75562835  0.94745233  1
  Se  Se181  1  0.91395146  0.08595082  0.45398064  1
  Se  Se182  1  0.93292069  0.07337103  0.94012666  1
  Se  Se183  1  0.92481452  0.40904599  0.43923369  1
  Se  Se184  1  0.91623720  0.41038122  0.94036771  1
  Se  Se185  1  0.92575749  0.73340817  0.45099315  1
  Se  Se186  1  0.91822702  0.74414412  0.93496032  1
  Se  Se187  1  0.24569682  0.24741775  0.31674806  1
  Se  Se188  1  0.25377757  0.25780237  0.79985377  1
  Se  Se189  1  0.25264010  0.58881949  0.30070838  1
  Se  Se190  1  0.24715499  0.58449597  0.79880296  1
  Se  Se191  1  0.24883230  0.92013276  0.30270563  1
  Se  Se192  1  0.25183480  0.91782931  0.80809428  1
  Se  Se193  1  0.58503892  0.25007846  0.30132137  1
  Se  Se194  1  0.58256057  0.24763265  0.79917989  1
  Se  Se195  1  0.57645221  0.57740011  0.31534727  1
  Se  Se196  1  0.58104572  0.58540533  0.80545481  1
  Se  Se197  1  0.58053840  0.89973332  0.32492480  1
  Se  Se198  1  0.58486763  0.92377212  0.80131523  1
  Se  Se199  1  0.90626617  0.23412055  0.31049742  1
  Se  Se200  1  0.90743653  0.24337717  0.79807431  1
  Se  Se201  1  0.90665070  0.56880706  0.30549421  1
  Se  Se202  1  0.91337678  0.57649077  0.81330685  1
  Se  Se203  1  0.90866600  0.91590664  0.31823947  1
  Se  Se204  1  0.90819076  0.91131367  0.80331234  1
  Se  Se205  1  0.08653744  0.09105906  0.31882400  1
  Se  Se206  1  0.09163383  0.08926980  0.80559298  1
  Se  Se207  1  0.09623855  0.42530857  0.30838737  1
  Se  Se208  1  0.07746719  0.41156291  0.80089532  1
  Se  Se209  1  0.08625439  0.75993351  0.31100532  1
  Se  Se210  1  0.08927584  0.75862062  0.80712978  1
  Se  Se211  1  0.40983478  0.08456116  0.30272535  1
  Se  Se212  1  0.42510676  0.09089445  0.80927916  1
  Se  Se213  1  0.42736314  0.41946591  0.31312329  1
  Se  Se214  1  0.41502646  0.41736689  0.79742570  1
  Se  Se215  1  0.40675591  0.74076623  0.29785987  1
  Se  Se216  1  0.41953361  0.76001915  0.80177187  1
  Se  Se217  1  0.74939173  0.07140644  0.31949878  1
  Se  Se218  1  0.74641691  0.07647304  0.79557672  1
  Se  Se219  1  0.74634951  0.40536961  0.29946280  1
  Se  Se220  1  0.73429726  0.40809877  0.80078976  1
  Se  Se221  1  0.74635556  0.75522319  0.31988212  1
  Se  Se222  1  0.74635765  0.75805154  0.80128969  1
  Se  Se223  1  0.25081453  0.08246967  0.20241539  1
  Se  Se224  1  0.24005650  0.09654256  0.69392780  1
  Se  Se225  1  0.24681467  0.41536992  0.18924508  1
  Se  Se226  1  0.24998528  0.41445757  0.69685310  1
  Se  Se227  1  0.24683335  0.74723729  0.19252595  1
  Se  Se228  1  0.26030627  0.74951970  0.69564091  1
  Se  Se229  1  0.58651529  0.07806926  0.19867731  1
  Se  Se230  1  0.58534511  0.07972037  0.68691979  1
  Se  Se231  1  0.58951582  0.41299663  0.19656364  1
  Se  Se232  1  0.58141437  0.41798158  0.70050177  1
  Se  Se233  1  0.57465768  0.75744638  0.19316293  1
  Se  Se234  1  0.58671890  0.75084026  0.69267334  1
  Se  Se235  1  0.90895064  0.09295975  0.19620208  1
  Se  Se236  1  0.91140203  0.09164169  0.67637262  1
  Se  Se237  1  0.91807305  0.41692439  0.18741443  1
  Se  Se238  1  0.88884019  0.43665117  0.69216511  1
  Se  Se239  1  0.90127607  0.76013482  0.20075164  1
  Se  Se240  1  0.91573408  0.75999046  0.68857580  1
  Se  Se241  1  0.09180474  0.24673064  0.19610467  1
  Se  Se242  1  0.06944987  0.26246940  0.69062614  1
  Se  Se243  1  0.08703008  0.57856810  0.18638472  1
  Se  Se244  1  0.08731197  0.57578807  0.68745937  1
  Se  Se245  1  0.08486997  0.91194269  0.19142002  1
  Se  Se246  1  0.09449074  0.91360831  0.69287886  1
  Se  Se247  1  0.42821666  0.24155109  0.18818063  1
  Se  Se248  1  0.41662334  0.25002133  0.69659815  1
  Se  Se249  1  0.41568758  0.57542044  0.20021063  1
  Se  Se250  1  0.41483770  0.59102629  0.69604660  1
  Se  Se251  1  0.40460704  0.92582659  0.19643334  1
  Se  Se252  1  0.42923780  0.91634404  0.68170780  1
  Se  Se253  1  0.75868896  0.24614398  0.19022480  1
  Se  Se254  1  0.73942693  0.24406362  0.69009358  1
  Se  Se255  1  0.75385963  0.57893939  0.18960043  1
  Se  Se256  1  0.75252476  0.59624233  0.71094308  1
  Se  Se257  1  0.74108211  0.92039108  0.20373386  1
  Se  Se258  1  0.74621888  0.92276663  0.68735237  1
