# generated using pymatgen
data_In86Cu29Se144
_symmetry_space_group_name_H-M   'P 1'
_cell_length_a   17.58960444
_cell_length_b   17.58795258
_cell_length_c   23.45261381
_cell_angle_alpha   90.01090324
_cell_angle_beta   89.98664397
_cell_angle_gamma   89.98872975
_symmetry_Int_Tables_number   1
_chemical_formula_structural   In86Cu29Se144
_chemical_formula_sum   'In86 Cu29 Se144'
_cell_volume   7255.42042226
_cell_formula_units_Z   1
loop_
 _symmetry_equiv_pos_site_id
 _symmetry_equiv_pos_as_xyz
  1  'x, y, z'
loop_
 _atom_site_type_symbol
 _atom_site_label
 _atom_site_symmetry_multiplicity
 _atom_site_fract_x
 _atom_site_fract_y
 _atom_site_fract_z
 _atom_site_occupancy
  In  In0  1  -0.00335315  0.17820802  0.12437595  1
  In  In1  1  0.00753643  0.16489721  0.63093210  1
  In  In2  1  0.00277231  0.49827830  0.13197041  1
  In  In3  1  0.00586896  0.49791984  0.62187064  1
  In  In4  1  0.00266930  0.81724817  0.12648130  1
  In  In5  1  -0.00786769  0.83428913  0.63202655  1
  In  In6  1  0.33802377  0.15749611  0.13177039  1
  In  In7  1  0.34324233  0.16835590  0.63258885  1
  In  In8  1  0.33500817  0.49731445  0.13006827  1
  In  In9  1  0.33585498  0.49790407  0.62185717  1
  In  In10  1  0.33585695  0.83348327  0.12231577  1
  In  In11  1  0.34472691  0.82887760  0.64361561  1
  In  In12  1  0.66139187  0.16350903  0.11309931  1
  In  In13  1  0.64331436  0.16066588  0.63300673  1
  In  In14  1  0.65695953  0.50790873  0.12745520  1
  In  In15  1  0.66123709  0.50307125  0.60819403  1
  In  In16  1  0.65773437  0.84340277  0.12278170  1
  In  In17  1  0.65921631  0.84465204  0.63261434  1
  In  In18  1  0.17527548  -0.01192342  0.37722774  1
  In  In19  1  0.15859083  -0.00417288  0.87193400  1
  In  In20  1  0.18001519  0.34646444  0.37115974  1
  In  In21  1  0.17299320  0.33781211  0.86545653  1
  In  In22  1  0.16035523  0.65621373  0.37015428  1
  In  In23  1  0.18789383  0.68341965  0.86487848  1
  In  In24  1  0.48958285  0.00917959  0.38554834  1
  In  In25  1  0.49647726  0.00114280  0.86616515  1
  In  In26  1  0.47166313  0.35088299  0.39530009  1
  In  In27  1  0.49330780  0.33410454  0.87365946  1
  In  In28  1  0.49396814  0.67977381  0.38575511  1
  In  In29  1  0.46217754  0.68892294  0.89927740  1
  In  In30  1  0.82616433  0.01047097  0.37706784  1
  In  In31  1  0.84062196  0.00345744  0.87102367  1
  In  In32  1  0.85122426  0.33894130  0.36873425  1
  In  In33  1  0.82780554  0.32052330  0.87283457  1
  In  In34  1  0.83378795  0.65035697  0.37983491  1
  In  In35  1  0.83821003  0.65795897  0.87251352  1
  In  In36  1  -0.01185863  0.18160595  0.37279416  1
  In  In37  1  -0.00952700  0.16029621  0.86922287  1
  In  In38  1  0.00724061  0.49891817  0.37850053  1
  In  In39  1  0.00907229  0.50432081  0.86587423  1
  In  In40  1  0.01697309  0.83022322  0.37487799  1
  In  In41  1  0.01367914  0.83909773  0.87221037  1
  In  In42  1  0.34096808  0.17499076  0.36776036  1
  In  In43  1  0.34575475  0.16894360  0.85846662  1
  In  In44  1  0.32619058  0.50094073  0.37604157  1
  In  In45  1  0.34782910  0.50818106  0.86410372  1
  In  In46  1  0.34259815  0.83921299  0.36969609  1
  In  In47  1  0.33139901  0.83493207  0.87149854  1
  In  In48  1  0.65609351  0.15849092  0.37529233  1
  In  In49  1  0.67048241  0.16090778  0.87569679  1
  In  In50  1  0.66195849  0.51434364  0.39301747  1
  In  In51  1  0.65155537  0.48989127  0.87085159  1
  In  In52  1  0.64991602  0.82383656  0.38091559  1
  In  In53  1  0.63638278  0.83498638  0.86518388  1
  In  In54  1  0.18476586  0.00115032  0.12236024  1
  In  In55  1  0.16527307  -0.00042032  0.63213697  1
  In  In56  1  0.16534496  0.33651532  0.13191822  1
  In  In57  1  0.16849328  0.33422412  0.62610199  1
  In  In58  1  0.16954729  0.66830420  0.12612003  1
  In  In59  1  0.17946396  0.65915112  0.62892857  1
  In  In60  1  0.49000420  -0.00848671  0.11518061  1
  In  In61  1  0.49747846  -0.00005719  0.63247966  1
  In  In62  1  0.49295039  0.32139788  0.12012759  1
  In  In63  1  0.49096938  0.32782545  0.61325891  1
  In  In64  1  0.48365282  0.65571019  0.11173870  1
  In  In65  1  0.49194910  0.66190054  0.62077970  1
  In  In66  1  0.82248456  0.00428319  0.12095898  1
  In  In67  1  0.83615804  -0.00063593  0.63321093  1
  In  In68  1  0.84150335  0.32994467  0.12561451  1
  In  In69  1  0.83310992  0.34657349  0.62273347  1
  In  In70  1  0.84363346  0.67282848  0.12828297  1
  In  In71  1  0.84519820  0.66338451  0.62433558  1
  In  In72  1  0.82762528  0.49495710  0.00484785  1
  In  In73  1  0.17545344  0.16977978  0.50783946  1
  In  In74  1  0.82812468  0.82873056  0.50834340  1
  In  In75  1  0.65890107  0.66655262  0.74589294  1
  In  In76  1  0.66552259  0.00213952  0.25201816  1
  In  In77  1  0.17108912  0.82998854  0.50179815  1
  In  In78  1  0.66636781  0.66777205  0.25479689  1
  In  In79  1  0.00770970  0.00352305  0.25017330  1
  In  In80  1  0.66561290  0.33227419  0.74635508  1
  In  In81  1  0.16792203  0.16365257  -0.00207689  1
  In  In82  1  0.82913081  0.16909176  0.49671496  1
  In  In83  1  0.66783893  0.32997417  0.25505594  1
  In  In84  1  0.82559004  0.83521290  0.00236173  1
  In  In85  1  0.17313865  0.50236843  0.00550755  1
  Cu  Cu86  1  0.84213466  0.49715177  0.25648772  1
  Cu  Cu87  1  0.15968583  0.82976140  0.75003808  1
  Cu  Cu88  1  0.16812182  0.50161970  0.25153525  1
  Cu  Cu89  1  0.01093420  0.67246444  -0.00229421  1
  Cu  Cu90  1  0.33676085  0.32998192  -0.00239292  1
  Cu  Cu91  1  0.84483862  0.82817062  0.25328595  1
  Cu  Cu92  1  0.66151326  0.00273669  -0.01002101  1
  Cu  Cu93  1  0.16650672  0.49855638  0.74365858  1
  Cu  Cu94  1  0.49476165  0.16725642  0.25089004  1
  Cu  Cu95  1  0.49521438  0.50202365  0.74590145  1
  Cu  Cu96  1  0.16605752  0.16967332  0.24962449  1
  Cu  Cu97  1  -0.00788768  0.32696902  -0.00475934  1
  Cu  Cu98  1  0.00277319  0.66131994  0.50065654  1
  Cu  Cu99  1  0.65991847  -0.00195244  0.50715055  1
  Cu  Cu100  1  0.66756252  0.33098848  0.50164851  1
  Cu  Cu101  1  -0.00016681  -0.00097784  -0.00574947  1
  Cu  Cu102  1  0.49118468  0.49874192  0.25354290  1
  Cu  Cu103  1  0.00467729  0.33756629  0.49943284  1
  Cu  Cu104  1  0.84419747  0.50226479  0.74508731  1
  Cu  Cu105  1  0.84092388  0.17049376  0.74938010  1
  Cu  Cu106  1  0.17631239  0.82871556  0.24948730  1
  Cu  Cu107  1  0.34087782  -0.00288482  0.50531585  1
  Cu  Cu108  1  0.49262235  0.83329108  0.24650269  1
  Cu  Cu109  1  0.33293422  0.66486094  0.50345332  1
  Cu  Cu110  1  0.33812560  -0.00070600  -0.00507582  1
  Cu  Cu111  1  0.65746743  0.32832966  -0.00500788  1
  Cu  Cu112  1  0.65514871  0.66125337  -0.00113844  1
  Cu  Cu113  1  0.83674696  0.82935648  0.75435220  1
  Cu  Cu114  1  0.16434199  0.17262963  0.75110958  1
  Se  Se115  1  0.07658665  0.07626777  0.06088351  1
  Se  Se116  1  0.07855991  0.07555119  0.55647661  1
  Se  Se117  1  0.07286839  0.40712083  0.05529004  1
  Se  Se118  1  0.09066634  0.41603602  0.55339489  1
  Se  Se119  1  0.09186477  0.75314641  0.05353169  1
  Se  Se120  1  0.07720936  0.74488169  0.56265510  1
  Se  Se121  1  0.41312525  0.08696922  0.05206766  1
  Se  Se122  1  0.41873239  0.08306095  0.56039320  1
  Se  Se123  1  0.41223523  0.41352686  0.05776749  1
  Se  Se124  1  0.43275722  0.43415254  0.55278677  1
  Se  Se125  1  0.43549056  0.76997291  0.05526066  1
  Se  Se126  1  0.40674051  0.75444351  0.55919202  1
  Se  Se127  1  0.74763895  0.08095681  0.04621125  1
  Se  Se128  1  0.74492750  0.07973527  0.56226466  1
  Se  Se129  1  0.73413390  0.40469485  0.06228295  1
  Se  Se130  1  0.75313082  0.41800501  0.54798765  1
  Se  Se131  1  0.73784443  0.73671784  0.06146263  1
  Se  Se132  1  0.73889818  0.74349188  0.56944839  1
  Se  Se133  1  0.25321714  0.25507437  0.06019562  1
  Se  Se134  1  0.26896523  0.26133410  0.55905637  1
  Se  Se135  1  0.26650170  0.59467800  0.05723568  1
  Se  Se136  1  0.24842406  0.57964467  0.55234209  1
  Se  Se137  1  0.25461242  0.91705329  0.04973247  1
  Se  Se138  1  0.25808130  0.91856119  0.56433052  1
  Se  Se139  1  0.57414014  0.24378164  0.04773150  1
  Se  Se140  1  0.58693260  0.24546250  0.55371183  1
  Se  Se141  1  0.57624065  0.57300324  0.05033619  1
  Se  Se142  1  0.58206295  0.59559691  0.54878913  1
  Se  Se143  1  0.58336839  0.91891789  0.04732369  1
  Se  Se144  1  0.57563612  0.91579137  0.55879672  1
  Se  Se145  1  0.90984340  0.24564311  0.04949498  1
  Se  Se146  1  0.92468748  0.25425384  0.55782161  1
  Se  Se147  1  0.92771838  0.58970303  0.05521929  1
  Se  Se148  1  0.91781440  0.57811968  0.55247890  1
  Se  Se149  1  0.92406611  0.92062659  0.06134691  1
  Se  Se150  1  0.92208946  0.92518449  0.55650142  1
  Se  Se151  1  0.08354296  0.25384826  0.44113244  1
  Se  Se152  1  0.08118741  0.25558477  0.93641723  1
  Se  Se153  1  0.09001379  0.58068077  0.44901131  1
  Se  Se154  1  0.08653306  0.58831840  0.93926388  1
  Se  Se155  1  0.07648085  0.92589678  0.44886529  1
  Se  Se156  1  0.08784035  0.91470240  0.94947228  1
  Se  Se157  1  0.42504332  0.23070578  0.44692742  1
  Se  Se158  1  0.41294209  0.24487191  0.94027595  1
  Se  Se159  1  0.41284579  0.58440369  0.44420681  1
  Se  Se160  1  0.41619335  0.56827028  0.94968555  1
  Se  Se161  1  0.41860084  0.90991700  0.44914213  1
  Se  Se162  1  0.41924050  0.91807540  0.93848935  1
  Se  Se163  1  0.74413778  0.25931081  0.43289902  1
  Se  Se164  1  0.74803317  0.24796431  0.94678166  1
  Se  Se165  1  0.75142366  0.59187195  0.45751304  1
  Se  Se166  1  0.73943309  0.58450883  0.94055145  1
  Se  Se167  1  0.74031253  0.92246080  0.44351931  1
  Se  Se168  1  0.74096763  0.91646200  0.93329685  1
  Se  Se169  1  0.25944705  0.07546990  0.44412033  1
  Se  Se170  1  0.25781897  0.08051161  0.93448927  1
  Se  Se171  1  0.25591436  0.41300383  0.44869487  1
  Se  Se172  1  0.25740201  0.41301757  0.94015177  1
  Se  Se173  1  0.25615123  0.74330344  0.43699402  1
  Se  Se174  1  0.25585598  0.75109826  0.94543818  1
  Se  Se175  1  0.58152622  0.08443052  0.45214883  1
  Se  Se176  1  0.57551314  0.08492965  0.93900135  1
  Se  Se177  1  0.58265089  0.41573016  0.45026974  1
  Se  Se178  1  0.57526692  0.41499878  0.94565193  1
  Se  Se179  1  0.58597254  0.74477862  0.45742322  1
  Se  Se180  1  0.58072269  0.75258470  0.94654190  1
  Se  Se181  1  0.92672066  0.07821244  0.44321503  1
  Se  Se182  1  0.91514570  0.08438320  0.94644796  1
  Se  Se183  1  0.91819215  0.41827789  0.44642777  1
  Se  Se184  1  0.91980032  0.41672377  0.93742569  1
  Se  Se185  1  0.92557821  0.74798816  0.44296452  1
  Se  Se186  1  0.91922501  0.74692528  0.94256960  1
  Se  Se187  1  0.25064525  0.25267841  0.30254045  1
  Se  Se188  1  0.25485737  0.25423982  0.79820857  1
  Se  Se189  1  0.25355954  0.58618429  0.30183863  1
  Se  Se190  1  0.24853892  0.57836013  0.80157706  1
  Se  Se191  1  0.25439662  0.91775955  0.30128932  1
  Se  Se192  1  0.24169798  0.91400454  0.80386135  1
  Se  Se193  1  0.56935486  0.24877980  0.31342113  1
  Se  Se194  1  0.57890834  0.24242946  0.80650284  1
  Se  Se195  1  0.57462228  0.57782039  0.31230779  1
  Se  Se196  1  0.56940775  0.58250448  0.80975024  1
  Se  Se197  1  0.57342563  0.91185323  0.30926083  1
  Se  Se198  1  0.59708970  0.93989591  0.79551565  1
  Se  Se199  1  0.91238669  0.24980676  0.29534491  1
  Se  Se200  1  0.92076044  0.25725968  0.80183784  1
  Se  Se201  1  0.92313763  0.58328414  0.30849492  1
  Se  Se202  1  0.92250433  0.58740537  0.79994844  1
  Se  Se203  1  0.91441358  0.91607759  0.31409636  1
  Se  Se204  1  0.92116303  0.91423987  0.80623091  1
  Se  Se205  1  0.09225901  0.09185994  0.31626498  1
  Se  Se206  1  0.08277713  0.08565630  0.80366771  1
  Se  Se207  1  0.08412176  0.41703344  0.30476059  1
  Se  Se208  1  0.08360320  0.41483165  0.79853344  1
  Se  Se209  1  0.08739483  0.74896479  0.30077582  1
  Se  Se210  1  0.07900216  0.74278583  0.80384373  1
  Se  Se211  1  0.41644094  0.07736467  0.30405215  1
  Se  Se212  1  0.40038305  0.06219326  0.79301044  1
  Se  Se213  1  0.41040068  0.41414849  0.30719857  1
  Se  Se214  1  0.41674269  0.41125822  0.79768537  1
  Se  Se215  1  0.41852931  0.74587953  0.30390555  1
  Se  Se216  1  0.41510954  0.74699515  0.80635911  1
  Se  Se217  1  0.75858972  0.10007407  0.30254727  1
  Se  Se218  1  0.75798360  0.08879294  0.80416109  1
  Se  Se219  1  0.74888369  0.43045473  0.31513914  1
  Se  Se220  1  0.75897548  0.42600777  0.80522252  1
  Se  Se221  1  0.75811348  0.75815252  0.31564929  1
  Se  Se222  1  0.75018522  0.75332443  0.81283853  1
  Se  Se223  1  0.24895905  0.08187459  0.20055825  1
  Se  Se224  1  0.24507301  0.09166800  0.69377082  1
  Se  Se225  1  0.25076986  0.41644069  0.19849053  1
  Se  Se226  1  0.25402237  0.41631368  0.69329351  1
  Se  Se227  1  0.25762474  0.74783867  0.19311935  1
  Se  Se228  1  0.24880464  0.74720944  0.70118554  1
  Se  Se229  1  0.57445035  0.08705668  0.18904291  1
  Se  Se230  1  0.59899442  0.05858980  0.70355071  1
  Se  Se231  1  0.57533652  0.41972440  0.19493319  1
  Se  Se232  1  0.58128646  0.42615816  0.68622925  1
  Se  Se233  1  0.57814575  0.75325065  0.19022457  1
  Se  Se234  1  0.56532033  0.75925790  0.69421506  1
  Se  Se235  1  0.91073785  0.08561042  0.19032275  1
  Se  Se236  1  0.92243617  0.08297495  0.69801393  1
  Se  Se237  1  0.91680673  0.41413824  0.19669260  1
  Se  Se238  1  0.92300905  0.41434814  0.69327650  1
  Se  Se239  1  0.92602953  0.74228487  0.20320881  1
  Se  Se240  1  0.91633676  0.74467127  0.69978996  1
  Se  Se241  1  0.08087321  0.25064136  0.19671007  1
  Se  Se242  1  0.08259929  0.25612096  0.69626659  1
  Se  Se243  1  0.08670644  0.58443042  0.19468923  1
  Se  Se244  1  0.08304759  0.58415382  0.69227821  1
  Se  Se245  1  0.09342389  0.90974373  0.18914565  1
  Se  Se246  1  0.07878360  0.91644509  0.69740360  1
  Se  Se247  1  0.41269094  0.25213822  0.19746987  1
  Se  Se248  1  0.43350677  0.24998002  0.69573709  1
  Se  Se249  1  0.41761756  0.58619645  0.19614664  1
  Se  Se250  1  0.41085062  0.58625662  0.69421264  1
  Se  Se251  1  0.41390995  0.92125062  0.19393806  1
  Se  Se252  1  0.39927697  0.93995719  0.70468086  1
  Se  Se253  1  0.74857994  0.24130912  0.18699920  1
  Se  Se254  1  0.75677155  0.24148874  0.68492692  1
  Se  Se255  1  0.76104675  0.57594496  0.19411245  1
  Se  Se256  1  0.75174940  0.57392419  0.68865046  1
  Se  Se257  1  0.75977635  0.90515366  0.19533499  1
  Se  Se258  1  0.75614591  0.91197877  0.69895540  1
