# generated using pymatgen
data_In86Cu29Se144
_symmetry_space_group_name_H-M   'P 1'
_cell_length_a   17.58192232
_cell_length_b   17.58086080
_cell_length_c   23.44520608
_cell_angle_alpha   89.98615217
_cell_angle_beta   90.00080747
_cell_angle_gamma   89.98904504
_symmetry_Int_Tables_number   1
_chemical_formula_structural   In86Cu29Se144
_chemical_formula_sum   'In86 Cu29 Se144'
_cell_volume   7247.03779337
_cell_formula_units_Z   1
loop_
 _symmetry_equiv_pos_site_id
 _symmetry_equiv_pos_as_xyz
  1  'x, y, z'
loop_
 _atom_site_type_symbol
 _atom_site_label
 _atom_site_symmetry_multiplicity
 _atom_site_fract_x
 _atom_site_fract_y
 _atom_site_fract_z
 _atom_site_occupancy
  In  In0  1  -0.00099453  0.16619255  0.12127974  1
  In  In1  1  0.01326006  0.17395380  0.62844580  1
  In  In2  1  0.00270167  0.50049726  0.13534948  1
  In  In3  1  0.00759612  0.49997588  0.63336433  1
  In  In4  1  0.00430913  0.83955881  0.12904122  1
  In  In5  1  0.00739136  0.78748781  0.63245961  1
  In  In6  1  0.34074318  0.17326004  0.11625238  1
  In  In7  1  0.34133899  0.17967777  0.62822110  1
  In  In8  1  0.33493463  0.50719202  0.14254823  1
  In  In9  1  0.33620343  0.49890739  0.61999074  1
  In  In10  1  0.32240044  0.82366143  0.12727414  1
  In  In11  1  0.30901539  0.80956874  0.60371592  1
  In  In12  1  0.66757707  0.16761320  0.12857274  1
  In  In13  1  0.67101179  0.15985243  0.62407433  1
  In  In14  1  0.65279494  0.50874551  0.14197761  1
  In  In15  1  0.66739189  0.51626282  0.61976904  1
  In  In16  1  0.68166264  0.82514518  0.12990342  1
  In  In17  1  0.66112734  0.82909664  0.61982719  1
  In  In18  1  0.15297016  -0.00922863  0.36644897  1
  In  In19  1  0.16343185  0.00048360  0.88696584  1
  In  In20  1  0.18001173  0.35188717  0.36113371  1
  In  In21  1  0.16240487  0.33457097  0.87046623  1
  In  In22  1  0.16166100  0.65957833  0.37964320  1
  In  In23  1  0.17259018  0.68001790  0.86833098  1
  In  In24  1  0.49722282  -0.01716463  0.36956513  1
  In  In25  1  0.51226540  -0.00234631  0.88178932  1
  In  In26  1  0.49297831  0.33905044  0.36960193  1
  In  In27  1  0.49233594  0.34075607  0.88028976  1
  In  In28  1  0.49946528  0.66393010  0.37241615  1
  In  In29  1  0.49259722  0.66082465  0.86619593  1
  In  In30  1  0.83496351  -0.00210383  0.36128307  1
  In  In31  1  0.83468404  -0.00267395  0.88931050  1
  In  In32  1  0.83188455  0.33593321  0.36578809  1
  In  In33  1  0.84101514  0.32227496  0.88187168  1
  In  In34  1  0.83929030  0.67099088  0.37084525  1
  In  In35  1  0.84501654  0.67886845  0.86849452  1
  In  In36  1  0.00255540  0.16542816  0.36359848  1
  In  In37  1  -0.00276624  0.17074178  0.88302396  1
  In  In38  1  0.02068903  0.51529688  0.36645394  1
  In  In39  1  0.01866560  0.51009362  0.86046682  1
  In  In40  1  0.00167155  0.82803143  0.37113958  1
  In  In41  1  -0.00152394  0.83501375  0.88152193  1
  In  In42  1  0.32682958  0.17949146  0.37156335  1
  In  In43  1  0.32394797  0.17577084  0.88860799  1
  In  In44  1  0.32618636  0.49652385  0.37816158  1
  In  In45  1  0.32947202  0.50502387  0.86174415  1
  In  In46  1  0.33805188  0.82164087  0.37860240  1
  In  In47  1  0.32122350  0.81359457  0.87605808  1
  In  In48  1  0.66619981  0.16602893  0.36137765  1
  In  In49  1  0.67572437  0.16382631  0.89170573  1
  In  In50  1  0.64985088  0.49029776  0.35883593  1
  In  In51  1  0.65475295  0.50898617  0.87350589  1
  In  In52  1  0.65431053  0.81681382  0.36017040  1
  In  In53  1  0.67025802  0.83240643  0.87499030  1
  In  In54  1  0.15349678  -0.01407190  0.12043446  1
  In  In55  1  0.17513805  -0.00332856  0.62428711  1
  In  In56  1  0.17463272  0.32997198  0.12816274  1
  In  In57  1  0.16535512  0.34327683  0.63256838  1
  In  In58  1  0.16420823  0.67650371  0.13817927  1
  In  In59  1  0.17094100  0.66319239  0.62579181  1
  In  In60  1  0.49814836  0.01881755  0.12615120  1
  In  In61  1  0.51082671  -0.00867476  0.61984657  1
  In  In62  1  0.50664242  0.33239027  0.13845368  1
  In  In63  1  0.47489720  0.34166298  0.62680907  1
  In  In64  1  0.48848488  0.66731342  0.13810982  1
  In  In65  1  0.49618388  0.66259590  0.61599682  1
  In  In66  1  0.83629527  0.00066575  0.12530901  1
  In  In67  1  0.82669101  -0.01092471  0.62620115  1
  In  In68  1  0.84204766  0.32427948  0.12978140  1
  In  In69  1  0.84115535  0.34650676  0.62503639  1
  In  In70  1  0.82981062  0.67868363  0.12515416  1
  In  In71  1  0.83866415  0.66267400  0.63559520  1
  In  In72  1  0.17043267  0.50470638  0.00208404  1
  In  In73  1  0.84122463  0.82818718  0.49381819  1
  In  In74  1  0.67058097  0.33828255  0.75529859  1
  In  In75  1  0.16965230  0.16872400  0.49834307  1
  In  In76  1  0.83752595  0.50440021  0.49856075  1
  In  In77  1  0.83467986  0.16827565  0.48300130  1
  In  In78  1  0.34000234  -0.00173621  0.74951631  1
  In  In79  1  0.66585569  -0.00521726  0.74991315  1
  In  In80  1  0.00063722  -0.00242609  0.76105381  1
  In  In81  1  0.49360613  0.50153451  0.00014686  1
  In  In82  1  0.32913454  0.00020935  0.24685491  1
  In  In83  1  0.49353476  0.83703168  0.00773770  1
  In  In84  1  0.49545761  0.17156942  0.49036297  1
  In  In85  1  0.82991537  0.49220432  0.00287219  1
  Cu  Cu86  1  0.00386408  -0.01819230  0.49788178  1
  Cu  Cu87  1  0.49482192  0.17387947  0.75941580  1
  Cu  Cu88  1  0.83295610  0.16603567  0.24446073  1
  Cu  Cu89  1  0.66348399  0.67045385  0.00143009  1
  Cu  Cu90  1  0.33569918  -0.00130376  0.49497303  1
  Cu  Cu91  1  0.66834995  0.00367230  0.00705450  1
  Cu  Cu92  1  0.16442414  0.83372818  0.74700484  1
  Cu  Cu93  1  0.84347287  0.16659632  0.75554279  1
  Cu  Cu94  1  0.66870985  0.32875171  0.01430768  1
  Cu  Cu95  1  0.33000729  -0.00266534  0.00560481  1
  Cu  Cu96  1  0.66548910  -0.01300024  0.49272911  1
  Cu  Cu97  1  0.49958688  0.50476792  0.74426502  1
  Cu  Cu98  1  0.00105799  0.33235022  -0.00255033  1
  Cu  Cu99  1  0.48853594  0.82074917  0.73961829  1
  Cu  Cu100  1  0.84254606  0.83689627  0.24721971  1
  Cu  Cu101  1  -0.00136397  -0.00080868  0.00390879  1
  Cu  Cu102  1  0.50589358  0.83547337  0.25000230  1
  Cu  Cu103  1  0.17242905  0.18327311  0.75390075  1
  Cu  Cu104  1  0.66436713  0.66634303  0.49158893  1
  Cu  Cu105  1  0.64709106  0.34022118  0.49669043  1
  Cu  Cu106  1  0.33252951  0.66081363  0.49573337  1
  Cu  Cu107  1  0.16243992  0.50272213  0.25407435  1
  Cu  Cu108  1  0.00393449  0.33625517  0.49986730  1
  Cu  Cu109  1  0.16421939  0.16734576  0.24259773  1
  Cu  Cu110  1  0.33600572  0.33417267  0.00399571  1
  Cu  Cu111  1  0.83353204  0.50104206  0.24929221  1
  Cu  Cu112  1  0.83824370  0.50141536  0.74953678  1
  Cu  Cu113  1  -0.00148074  0.67437907  0.00451113  1
  Cu  Cu114  1  0.49767161  0.17361260  0.24695311  1
  Se  Se115  1  0.08465301  0.08303865  0.05418233  1
  Se  Se116  1  0.07529972  0.07414509  0.55586080  1
  Se  Se117  1  0.07728134  0.41327061  0.05897452  1
  Se  Se118  1  0.08104838  0.41656265  0.55906527  1
  Se  Se119  1  0.08480296  0.74926566  0.06117431  1
  Se  Se120  1  0.10673959  0.76494052  0.55724632  1
  Se  Se121  1  0.41830370  0.08474566  0.04781200  1
  Se  Se122  1  0.41185930  0.07900502  0.55852190  1
  Se  Se123  1  0.41096321  0.41421510  0.06661062  1
  Se  Se124  1  0.42782402  0.42873993  0.54823670  1
  Se  Se125  1  0.40811185  0.73574811  0.05718679  1
  Se  Se126  1  0.41799783  0.74877054  0.54534679  1
  Se  Se127  1  0.75185625  0.08710998  0.05879394  1
  Se  Se128  1  0.74860645  0.07242268  0.54875489  1
  Se  Se129  1  0.73901037  0.41783812  0.07257116  1
  Se  Se130  1  0.74087521  0.40908828  0.55453695  1
  Se  Se131  1  0.75198532  0.75345052  0.04846786  1
  Se  Se132  1  0.74958775  0.73802731  0.55520150  1
  Se  Se133  1  0.24679731  0.25093855  0.05139065  1
  Se  Se134  1  0.25585611  0.25907531  0.55838696  1
  Se  Se135  1  0.25523476  0.58850035  0.06833117  1
  Se  Se136  1  0.25059154  0.58266160  0.55351516  1
  Se  Se137  1  0.24942839  0.91013415  0.05599548  1
  Se  Se138  1  0.24617420  0.92068286  0.54688977  1
  Se  Se139  1  0.57706252  0.25016696  0.06257796  1
  Se  Se140  1  0.58406899  0.25234456  0.56242407  1
  Se  Se141  1  0.58329902  0.59198944  0.06069098  1
  Se  Se142  1  0.58202501  0.58184184  0.54525153  1
  Se  Se143  1  0.58868823  0.92245215  0.06701379  1
  Se  Se144  1  0.58102064  0.90711719  0.54612929  1
  Se  Se145  1  0.91646348  0.25152153  0.05126577  1
  Se  Se146  1  0.92060867  0.25212684  0.55529200  1
  Se  Se147  1  0.92233548  0.58409940  0.05990068  1
  Se  Se148  1  0.92550858  0.59080327  0.56066747  1
  Se  Se149  1  0.91652170  0.91407305  0.05691730  1
  Se  Se150  1  0.92490070  0.91205475  0.56453361  1
  Se  Se151  1  0.07752499  0.25295578  0.43690686  1
  Se  Se152  1  0.08967654  0.25261611  0.94518839  1
  Se  Se153  1  0.09357475  0.56693923  0.45170370  1
  Se  Se154  1  0.07693117  0.59328476  0.94367567  1
  Se  Se155  1  0.08831377  0.90525854  0.44268278  1
  Se  Se156  1  0.08223834  0.91389743  0.95166815  1
  Se  Se157  1  0.39916958  0.26674043  0.44525091  1
  Se  Se158  1  0.42210845  0.25225579  0.95091159  1
  Se  Se159  1  0.41693074  0.58150115  0.44093831  1
  Se  Se160  1  0.40310529  0.58920183  0.94050267  1
  Se  Se161  1  0.41898218  0.91198409  0.44557498  1
  Se  Se162  1  0.40561279  0.92006361  0.93826220  1
  Se  Se163  1  0.73256935  0.26177611  0.43814405  1
  Se  Se164  1  0.75524765  0.25399826  0.95600459  1
  Se  Se165  1  0.74553018  0.58413872  0.43400237  1
  Se  Se166  1  0.74304238  0.58604129  0.94401661  1
  Se  Se167  1  0.74835742  0.91347438  0.43121727  1
  Se  Se168  1  0.74073478  0.91591081  0.94902079  1
  Se  Se169  1  0.25391248  0.07505326  0.43394955  1
  Se  Se170  1  0.24687003  0.08368631  0.95308274  1
  Se  Se171  1  0.23464376  0.42129510  0.44687862  1
  Se  Se172  1  0.26043580  0.41521289  0.94117391  1
  Se  Se173  1  0.24808809  0.74654409  0.44557534  1
  Se  Se174  1  0.24062870  0.74756897  0.95161781  1
  Se  Se175  1  0.58906814  0.07654662  0.43660316  1
  Se  Se176  1  0.58214254  0.08412852  0.95348703  1
  Se  Se177  1  0.57286429  0.42400769  0.44000595  1
  Se  Se178  1  0.59553793  0.40958706  0.94859831  1
  Se  Se179  1  0.58036576  0.75317410  0.44262722  1
  Se  Se180  1  0.57614395  0.74437068  0.94157808  1
  Se  Se181  1  0.92879452  0.06780255  0.43796191  1
  Se  Se182  1  0.91663268  0.08620955  0.95148688  1
  Se  Se183  1  0.92164923  0.41104210  0.43704664  1
  Se  Se184  1  0.93072494  0.42143545  0.93699689  1
  Se  Se185  1  0.93462512  0.73136144  0.44638394  1
  Se  Se186  1  0.91192732  0.75264199  0.94990182  1
  Se  Se187  1  0.24692883  0.24982817  0.29660511  1
  Se  Se188  1  0.26121851  0.25677552  0.80913368  1
  Se  Se189  1  0.24763194  0.58317059  0.30758258  1
  Se  Se190  1  0.23027490  0.57655094  0.80331427  1
  Se  Se191  1  0.24846832  0.90573753  0.30761018  1
  Se  Se192  1  0.24137892  0.91656724  0.80902173  1
  Se  Se193  1  0.57955339  0.25520204  0.30298960  1
  Se  Se194  1  0.58629799  0.24408740  0.81733647  1
  Se  Se195  1  0.60767265  0.61144285  0.30685938  1
  Se  Se196  1  0.58368385  0.58755680  0.79749040  1
  Se  Se197  1  0.59056906  0.92280098  0.29732949  1
  Se  Se198  1  0.56656581  0.90230265  0.80246463  1
  Se  Se199  1  0.91431421  0.24888098  0.30086618  1
  Se  Se200  1  0.92461890  0.25274243  0.80658066  1
  Se  Se201  1  0.91723644  0.58185117  0.30427016  1
  Se  Se202  1  0.91975534  0.58773419  0.80200522  1
  Se  Se203  1  0.92776301  0.91799339  0.30057596  1
  Se  Se204  1  0.90023113  0.91103468  0.81162226  1
  Se  Se205  1  0.08429352  0.08106798  0.29583221  1
  Se  Se206  1  0.09550942  0.09431224  0.81080969  1
  Se  Se207  1  0.07449398  0.41131195  0.29790820  1
  Se  Se208  1  0.09680994  0.42196123  0.79699324  1
  Se  Se209  1  0.07616971  0.73459272  0.30749982  1
  Se  Se210  1  0.07817786  0.75964631  0.80618545  1
  Se  Se211  1  0.42098076  0.09044713  0.30977336  1
  Se  Se212  1  0.42155467  0.08674435  0.81778081  1
  Se  Se213  1  0.40442618  0.41608696  0.30433776  1
  Se  Se214  1  0.42467131  0.42103723  0.80391683  1
  Se  Se215  1  0.42114573  0.75337632  0.30252577  1
  Se  Se216  1  0.40685307  0.74612775  0.80136762  1
  Se  Se217  1  0.74894085  0.08094863  0.29661073  1
  Se  Se218  1  0.75619051  0.08761096  0.81112817  1
  Se  Se219  1  0.74711607  0.41451090  0.29715867  1
  Se  Se220  1  0.76199127  0.42559866  0.81768393  1
  Se  Se221  1  0.75909144  0.75188472  0.29972815  1
  Se  Se222  1  0.73265060  0.73379684  0.81076463  1
  Se  Se223  1  0.24503206  0.08716606  0.18153599  1
  Se  Se224  1  0.24534543  0.09564758  0.69403645  1
  Se  Se225  1  0.24488272  0.41868224  0.19964556  1
  Se  Se226  1  0.27263534  0.40356947  0.69094985  1
  Se  Se227  1  0.27099453  0.73259035  0.20301065  1
  Se  Se228  1  0.25226624  0.75302478  0.69536046  1
  Se  Se229  1  0.58328804  0.08653830  0.20019866  1
  Se  Se230  1  0.57126606  0.09262571  0.69601532  1
  Se  Se231  1  0.57526312  0.42294388  0.20774546  1
  Se  Se232  1  0.58325677  0.42009411  0.68742745  1
  Se  Se233  1  0.58540246  0.75128743  0.19391385  1
  Se  Se234  1  0.57960241  0.74523354  0.68728580  1
  Se  Se235  1  0.91974778  0.08398629  0.19366969  1
  Se  Se236  1  0.91393583  0.08586487  0.68893041  1
  Se  Se237  1  0.91681683  0.41482205  0.19773274  1
  Se  Se238  1  0.92114425  0.41452986  0.70050118  1
  Se  Se239  1  0.92117158  0.74917640  0.19417546  1
  Se  Se240  1  0.90145084  0.76210657  0.70224114  1
  Se  Se241  1  0.07972818  0.25196690  0.19075232  1
  Se  Se242  1  0.08150201  0.25826653  0.70131493  1
  Se  Se243  1  0.07939289  0.58862745  0.20197785  1
  Se  Se244  1  0.06813178  0.60684085  0.69343264  1
  Se  Se245  1  0.09175785  0.91113822  0.20121646  1
  Se  Se246  1  0.08297117  0.91439464  0.68867336  1
  Se  Se247  1  0.40726518  0.25129566  0.19575081  1
  Se  Se248  1  0.41346830  0.25646584  0.70565611  1
  Se  Se249  1  0.43923440  0.56472320  0.20682262  1
  Se  Se250  1  0.41581897  0.58614649  0.69045404  1
  Se  Se251  1  0.42434351  0.91259416  0.18709494  1
  Se  Se252  1  0.41530621  0.90848974  0.68059394  1
  Se  Se253  1  0.74773407  0.25378529  0.19745589  1
  Se  Se254  1  0.76040785  0.24417701  0.69309243  1
  Se  Se255  1  0.75544523  0.58801291  0.19426475  1
  Se  Se256  1  0.74855321  0.57965932  0.69862124  1
  Se  Se257  1  0.75382597  0.91878096  0.19655817  1
  Se  Se258  1  0.75388592  0.89784520  0.69680412  1
