# generated using pymatgen
data_In86Cu29Se144
_symmetry_space_group_name_H-M   'P 1'
_cell_length_a   17.58884562
_cell_length_b   17.58812753
_cell_length_c   23.44897330
_cell_angle_alpha   90.00502493
_cell_angle_beta   90.00149197
_cell_angle_gamma   89.98067174
_symmetry_Int_Tables_number   1
_chemical_formula_structural   In86Cu29Se144
_chemical_formula_sum   'In86 Cu29 Se144'
_cell_volume   7254.05340856
_cell_formula_units_Z   1
loop_
 _symmetry_equiv_pos_site_id
 _symmetry_equiv_pos_as_xyz
  1  'x, y, z'
loop_
 _atom_site_type_symbol
 _atom_site_label
 _atom_site_symmetry_multiplicity
 _atom_site_fract_x
 _atom_site_fract_y
 _atom_site_fract_z
 _atom_site_occupancy
  In  In0  1  -0.00279158  0.17929808  0.13361823  1
  In  In1  1  -0.01127640  0.18694265  0.63980196  1
  In  In2  1  0.00477857  0.49932450  0.13935246  1
  In  In3  1  0.00670321  0.49337674  0.62042977  1
  In  In4  1  0.00711675  0.82042102  0.14162068  1
  In  In5  1  0.00878212  0.82183991  0.62774697  1
  In  In6  1  0.33896275  0.17169350  0.12093755  1
  In  In7  1  0.33007903  0.17624424  0.63157963  1
  In  In8  1  0.32992194  0.49830683  0.13166683  1
  In  In9  1  0.32636836  0.49604163  0.62104149  1
  In  In10  1  0.31384228  0.83506050  0.12185667  1
  In  In11  1  0.32505932  0.82333761  0.60723138  1
  In  In12  1  0.65931188  0.16145405  0.11897405  1
  In  In13  1  0.67991437  0.16853451  0.62066941  1
  In  In14  1  0.67028025  0.50587934  0.12267556  1
  In  In15  1  0.66461513  0.48435276  0.62916379  1
  In  In16  1  0.68265091  0.82833558  0.13967275  1
  In  In17  1  0.66395129  0.84447741  0.61779413  1
  In  In18  1  0.14895722  0.00519488  0.37544879  1
  In  In19  1  0.14933562  0.00108574  0.88003091  1
  In  In20  1  0.16271547  0.33876422  0.36193449  1
  In  In21  1  0.17505675  0.33586818  0.86254655  1
  In  In22  1  0.17046870  0.66216001  0.37125525  1
  In  In23  1  0.15923301  0.66611355  0.88419982  1
  In  In24  1  0.49313402  -0.01338328  0.37071502  1
  In  In25  1  0.51719126  0.00536281  0.87463080  1
  In  In26  1  0.49050836  0.34238987  0.37681838  1
  In  In27  1  0.49481193  0.33495586  0.88232932  1
  In  In28  1  0.50451212  0.67013004  0.36760270  1
  In  In29  1  0.48198171  0.65979627  0.87763883  1
  In  In30  1  0.84755388  0.00490688  0.35848338  1
  In  In31  1  0.84764765  0.01197068  0.87190317  1
  In  In32  1  0.85252645  0.31650361  0.39625606  1
  In  In33  1  0.83336642  0.32795318  0.86988120  1
  In  In34  1  0.82296198  0.66042778  0.36981932  1
  In  In35  1  0.84536736  0.65141528  0.87633949  1
  In  In36  1  0.00355998  0.16386183  0.36564348  1
  In  In37  1  -0.00039022  0.15919711  0.87003664  1
  In  In38  1  0.00067560  0.49610717  0.37249827  1
  In  In39  1  0.01085323  0.50851434  0.87110575  1
  In  In40  1  0.00517848  0.84130848  0.36973516  1
  In  In41  1  0.00673294  0.83768574  0.87309478  1
  In  In42  1  0.31779327  0.18684993  0.37085826  1
  In  In43  1  0.32845892  0.19154661  0.87543214  1
  In  In44  1  0.29998356  0.47814185  0.34373402  1
  In  In45  1  0.33990718  0.48904731  0.88619290  1
  In  In46  1  0.34048475  0.82370110  0.37900826  1
  In  In47  1  0.32824932  0.81648985  0.87806898  1
  In  In48  1  0.68601268  0.17553685  0.37456246  1
  In  In49  1  0.65044725  0.19555399  0.90566034  1
  In  In50  1  0.67207023  0.51011837  0.37176321  1
  In  In51  1  0.67178963  0.47224601  0.88129150  1
  In  In52  1  0.66085325  0.82648248  0.36142606  1
  In  In53  1  0.66504021  0.84177625  0.87633707  1
  In  In54  1  0.16890049  -0.01255431  0.12226983  1
  In  In55  1  0.15981020  -0.01385322  0.61939808  1
  In  In56  1  0.14760427  0.35182540  0.14954495  1
  In  In57  1  0.16142484  0.34168044  0.62674276  1
  In  In58  1  0.16426414  0.66220427  0.13529138  1
  In  In59  1  0.15985879  0.65253339  0.61121509  1
  In  In60  1  0.50388839  0.01563952  0.12254666  1
  In  In61  1  0.50830327  -0.00022418  0.61738756  1
  In  In62  1  0.49409709  0.32129028  0.11557607  1
  In  In63  1  0.50006499  0.34079006  0.63623890  1
  In  In64  1  0.50401876  0.65558553  0.13060287  1
  In  In65  1  0.48721405  0.66526176  0.61819112  1
  In  In66  1  0.82728793  0.00578936  0.13532213  1
  In  In67  1  0.83781778  0.01358651  0.62046489  1
  In  In68  1  0.84011108  0.33814462  0.12066275  1
  In  In69  1  0.83799888  0.33275627  0.62066483  1
  In  In70  1  0.84067701  0.66552559  0.14885193  1
  In  In71  1  0.85491736  0.66533618  0.61986670  1
  In  In72  1  0.33510627  0.00210005  0.24820096  1
  In  In73  1  0.83765129  0.83447653  0.01278221  1
  In  In74  1  0.67370802  0.66218699  0.75498063  1
  In  In75  1  0.83408925  0.49519125  0.00554256  1
  In  In76  1  0.16886603  0.17201986  -0.00001484  1
  In  In77  1  0.15713791  0.17180428  0.50503168  1
  In  In78  1  0.33052563  0.00099420  0.75043574  1
  In  In79  1  0.49931950  0.50696922  0.49620966  1
  In  In80  1  0.49565604  0.83749206  0.00777501  1
  In  In81  1  0.49907828  0.16140716  0.49532616  1
  In  In82  1  0.83444479  0.83283457  0.48817851  1
  In  In83  1  0.67790746  0.01055596  0.74335266  1
  In  In84  1  0.32669546  0.65734165  0.74280155  1
  In  In85  1  0.66614560  0.33741501  0.24931404  1
  Cu  Cu86  1  0.83105724  0.17132270  0.75054660  1
  Cu  Cu87  1  0.66579677  0.67374087  0.49242716  1
  Cu  Cu88  1  0.67077382  0.33263528  0.50379212  1
  Cu  Cu89  1  0.65887734  0.66577777  0.00437047  1
  Cu  Cu90  1  0.33724834  0.66697028  0.48737976  1
  Cu  Cu91  1  0.00946242  0.65917857  0.49671758  1
  Cu  Cu92  1  0.50163591  0.17644685  0.75793632  1
  Cu  Cu93  1  0.50293044  0.16631255  0.24788254  1
  Cu  Cu94  1  0.32434691  0.33930867  0.00408887  1
  Cu  Cu95  1  0.16746252  0.50181162  0.74543254  1
  Cu  Cu96  1  0.00500116  0.66815837  0.00862296  1
  Cu  Cu97  1  0.49892007  0.83315743  0.73529035  1
  Cu  Cu98  1  0.83570167  0.16912671  0.25114805  1
  Cu  Cu99  1  0.00700064  0.33892389  0.00441889  1
  Cu  Cu100  1  0.49615244  0.49981966  0.25151747  1
  Cu  Cu101  1  0.84580848  0.83138788  0.75097365  1
  Cu  Cu102  1  0.33660233  0.00060186  0.00100835  1
  Cu  Cu103  1  0.32715963  -0.00291131  0.49509736  1
  Cu  Cu104  1  0.67434256  0.00634809  0.00594609  1
  Cu  Cu105  1  0.83592146  0.49035249  0.25555928  1
  Cu  Cu106  1  0.50222675  0.83408566  0.24467743  1
  Cu  Cu107  1  0.66333023  -0.00728560  0.49174446  1
  Cu  Cu108  1  0.16964145  0.83475346  0.25287708  1
  Cu  Cu109  1  0.31938276  0.65972637  0.00602124  1
  Cu  Cu110  1  -0.00563805  0.00246643  0.49421532  1
  Cu  Cu111  1  0.84485613  0.49832896  0.74679863  1
  Cu  Cu112  1  0.50206855  0.48798061  0.76194591  1
  Cu  Cu113  1  -0.00136137  0.00004992  0.00014544  1
  Cu  Cu114  1  0.16084740  0.83079497  0.75035624  1
  Se  Se115  1  0.07952529  0.08179691  0.06073729  1
  Se  Se116  1  0.06832342  0.07885978  0.56167107  1
  Se  Se117  1  0.08251587  0.42116792  0.06443601  1
  Se  Se118  1  0.10202972  0.42857402  0.55054987  1
  Se  Se119  1  0.08529864  0.75080492  0.06372718  1
  Se  Se120  1  0.08510809  0.75120093  0.54901688  1
  Se  Se121  1  0.41773286  0.08710379  0.05030200  1
  Se  Se122  1  0.40362392  0.07737307  0.55815092  1
  Se  Se123  1  0.41083091  0.41756716  0.05849484  1
  Se  Se124  1  0.41770764  0.40968703  0.55625089  1
  Se  Se125  1  0.40619243  0.74140897  0.06223977  1
  Se  Se126  1  0.42059404  0.74905506  0.54310019  1
  Se  Se127  1  0.76016154  0.08711222  0.05738150  1
  Se  Se128  1  0.74259792  0.07383345  0.54946727  1
  Se  Se129  1  0.73590102  0.40317089  0.05485566  1
  Se  Se130  1  0.75134759  0.42004229  0.55508233  1
  Se  Se131  1  0.74899562  0.73356993  0.06407270  1
  Se  Se132  1  0.74830055  0.74629502  0.55848003  1
  Se  Se133  1  0.24324088  0.26447950  0.06760193  1
  Se  Se134  1  0.25687354  0.25893292  0.55685107  1
  Se  Se135  1  0.24143874  0.57772764  0.06311445  1
  Se  Se136  1  0.26176353  0.58545414  0.54830082  1
  Se  Se137  1  0.24727262  0.91610840  0.04429114  1
  Se  Se138  1  0.24182947  0.91312526  0.54534726  1
  Se  Se139  1  0.58638855  0.24866708  0.04944602  1
  Se  Se140  1  0.58231308  0.25557944  0.55988534  1
  Se  Se141  1  0.57876218  0.57813586  0.05378593  1
  Se  Se142  1  0.59464203  0.59089551  0.56002012  1
  Se  Se143  1  0.59735964  0.91885658  0.06390204  1
  Se  Se144  1  0.57764823  0.91277760  0.54447943  1
  Se  Se145  1  0.92350531  0.25304038  0.05442781  1
  Se  Se146  1  0.91651607  0.24224965  0.55492720  1
  Se  Se147  1  0.91656062  0.59145706  0.06610414  1
  Se  Se148  1  0.92321680  0.57774135  0.54906608  1
  Se  Se149  1  0.92867980  0.92355294  0.06991169  1
  Se  Se150  1  0.92028457  0.91648940  0.55691036  1
  Se  Se151  1  0.07559660  0.25731053  0.43719953  1
  Se  Se152  1  0.07881008  0.25870064  0.93817818  1
  Se  Se153  1  0.09002014  0.57769946  0.44035939  1
  Se  Se154  1  0.08085932  0.57951374  0.95359664  1
  Se  Se155  1  0.08097563  0.91610122  0.44762608  1
  Se  Se156  1  0.08180730  0.91170479  0.95188816  1
  Se  Se157  1  0.40597572  0.25804850  0.44625432  1
  Se  Se158  1  0.40975895  0.25372980  0.95349951  1
  Se  Se159  1  0.41130492  0.58197495  0.42744495  1
  Se  Se160  1  0.41130126  0.58316847  0.95421299  1
  Se  Se161  1  0.41658176  0.91535853  0.44740486  1
  Se  Se162  1  0.41345458  0.92167688  0.93496367  1
  Se  Se163  1  0.75353811  0.24196674  0.45856264  1
  Se  Se164  1  0.77133344  0.24888907  0.94980269  1
  Se  Se165  1  0.74979724  0.58383492  0.44835252  1
  Se  Se166  1  0.74172294  0.58721699  0.94264880  1
  Se  Se167  1  0.74663047  0.92234081  0.42789922  1
  Se  Se168  1  0.75192973  0.92393422  0.94401607  1
  Se  Se169  1  0.25009958  0.08378723  0.43975035  1
  Se  Se170  1  0.25769326  0.08026669  0.93690836  1
  Se  Se171  1  0.24979476  0.41311702  0.43322636  1
  Se  Se172  1  0.23907928  0.41364749  0.94484297  1
  Se  Se173  1  0.24542301  0.75069820  0.44378857  1
  Se  Se174  1  0.24416763  0.74920020  0.95239479  1
  Se  Se175  1  0.58992331  0.07852853  0.43103451  1
  Se  Se176  1  0.58092069  0.08161337  0.95501601  1
  Se  Se177  1  0.59416569  0.41127447  0.44133862  1
  Se  Se178  1  0.56782469  0.42886881  0.94886712  1
  Se  Se179  1  0.58205918  0.75466615  0.43978699  1
  Se  Se180  1  0.58397403  0.74677368  0.94130256  1
  Se  Se181  1  0.91617275  0.08421220  0.43650125  1
  Se  Se182  1  0.91999111  0.08831174  0.94904462  1
  Se  Se183  1  0.90554920  0.43445561  0.44530801  1
  Se  Se184  1  0.92633548  0.41532960  0.94054050  1
  Se  Se185  1  0.92647158  0.73836744  0.43614801  1
  Se  Se186  1  0.92168259  0.74358665  0.94652111  1
  Se  Se187  1  0.23622360  0.24506354  0.29320762  1
  Se  Se188  1  0.23949878  0.23580809  0.79684737  1
  Se  Se189  1  0.26685785  0.60620580  0.29772724  1
  Se  Se190  1  0.24589698  0.57591658  0.81426071  1
  Se  Se191  1  0.24906847  0.91668447  0.31416042  1
  Se  Se192  1  0.24486589  0.90565609  0.81131591  1
  Se  Se193  1  0.57674908  0.24636012  0.31277228  1
  Se  Se194  1  0.58494351  0.25220583  0.81641540  1
  Se  Se195  1  0.58486870  0.58099079  0.30083550  1
  Se  Se196  1  0.57942911  0.57720984  0.81658691  1
  Se  Se197  1  0.58077065  0.92108111  0.29778329  1
  Se  Se198  1  0.58028595  0.91163152  0.79605405  1
  Se  Se199  1  0.91369361  0.25491014  0.30665915  1
  Se  Se200  1  0.92115510  0.24917164  0.80297924  1
  Se  Se201  1  0.91400875  0.58146055  0.30497712  1
  Se  Se202  1  0.92480168  0.58586647  0.79893467  1
  Se  Se203  1  0.90805607  0.89849774  0.29716630  1
  Se  Se204  1  0.92081020  0.91926218  0.80590752  1
  Se  Se205  1  0.08213929  0.07843650  0.29643799  1
  Se  Se206  1  0.08436777  0.07752355  0.80274538  1
  Se  Se207  1  0.08229890  0.42593687  0.29628147  1
  Se  Se208  1  0.08430628  0.42028367  0.80110142  1
  Se  Se209  1  0.08649733  0.75163173  0.30585351  1
  Se  Se210  1  0.08496502  0.74535974  0.80807578  1
  Se  Se211  1  0.41870536  0.09595839  0.31258353  1
  Se  Se212  1  0.42369222  0.08849035  0.81251069  1
  Se  Se213  1  0.41572400  0.40758880  0.29720817  1
  Se  Se214  1  0.40895982  0.40965498  0.80841528  1
  Se  Se215  1  0.41898055  0.75505439  0.30060505  1
  Se  Se216  1  0.42161315  0.75421305  0.79895438  1
  Se  Se217  1  0.74875006  0.08650029  0.30099936  1
  Se  Se218  1  0.74877127  0.09768804  0.81586079  1
  Se  Se219  1  0.75880421  0.40972968  0.31753041  1
  Se  Se220  1  0.75886244  0.41937534  0.80166220  1
  Se  Se221  1  0.74369761  0.74014203  0.29889254  1
  Se  Se222  1  0.76209316  0.75899635  0.81473539  1
  Se  Se223  1  0.24712913  0.08700341  0.18508277  1
  Se  Se224  1  0.23977511  0.08197480  0.68683163  1
  Se  Se225  1  0.25321289  0.41939117  0.20601711  1
  Se  Se226  1  0.25393541  0.41764423  0.69599134  1
  Se  Se227  1  0.25250293  0.75139709  0.19937675  1
  Se  Se228  1  0.24013234  0.75391584  0.68634655  1
  Se  Se229  1  0.58809463  0.08319631  0.19799697  1
  Se  Se230  1  0.57413998  0.09698810  0.69036556  1
  Se  Se231  1  0.57447353  0.42094421  0.18750819  1
  Se  Se232  1  0.59045615  0.41100947  0.70692433  1
  Se  Se233  1  0.58438600  0.74653689  0.19482133  1
  Se  Se234  1  0.58373889  0.74754931  0.68576631  1
  Se  Se235  1  0.91983664  0.08595336  0.19854902  1
  Se  Se236  1  0.91302733  0.08411557  0.69834398  1
  Se  Se237  1  0.91619303  0.40913582  0.19830256  1
  Se  Se238  1  0.92242281  0.41362848  0.69061831  1
  Se  Se239  1  0.89670956  0.77534989  0.20751877  1
  Se  Se240  1  0.92290237  0.74383492  0.69780632  1
  Se  Se241  1  0.08947459  0.24099607  0.20658211  1
  Se  Se242  1  0.09523066  0.24909324  0.69718844  1
  Se  Se243  1  0.06071326  0.60489560  0.20222335  1
  Se  Se244  1  0.08438270  0.58408693  0.69083773  1
  Se  Se245  1  0.08775624  0.91943531  0.19954021  1
  Se  Se246  1  0.08010858  0.91531076  0.69639943  1
  Se  Se247  1  0.41936441  0.24846669  0.19474741  1
  Se  Se248  1  0.41660740  0.25302535  0.70025219  1
  Se  Se249  1  0.41305643  0.58530656  0.19967779  1
  Se  Se250  1  0.43040935  0.56729439  0.69377620  1
  Se  Se251  1  0.42192810  0.91222763  0.18241937  1
  Se  Se252  1  0.41463380  0.91213143  0.68048711  1
  Se  Se253  1  0.75343819  0.24638538  0.18837101  1
  Se  Se254  1  0.75082721  0.25313986  0.69273395  1
  Se  Se255  1  0.75028643  0.57170551  0.20104506  1
  Se  Se256  1  0.76070440  0.57887215  0.68796719  1
  Se  Se257  1  0.74559955  0.92603928  0.20456759  1
  Se  Se258  1  0.76394156  0.90752429  0.68954273  1
