# generated using pymatgen
data_In86Cu29Se144
_symmetry_space_group_name_H-M   'P 1'
_cell_length_a   17.58193238
_cell_length_b   17.58727058
_cell_length_c   23.44321678
_cell_angle_alpha   90.01936164
_cell_angle_beta   90.00362252
_cell_angle_gamma   90.01312217
_symmetry_Int_Tables_number   1
_chemical_formula_structural   In86Cu29Se144
_chemical_formula_sum   'In86 Cu29 Se144'
_cell_volume   7249.06872673
_cell_formula_units_Z   1
loop_
 _symmetry_equiv_pos_site_id
 _symmetry_equiv_pos_as_xyz
  1  'x, y, z'
loop_
 _atom_site_type_symbol
 _atom_site_label
 _atom_site_symmetry_multiplicity
 _atom_site_fract_x
 _atom_site_fract_y
 _atom_site_fract_z
 _atom_site_occupancy
  In  In0  1  0.01072078  0.15299297  0.13056228  1
  In  In1  1  -0.00614293  0.16956437  0.62494225  1
  In  In2  1  0.01403841  0.51022476  0.11795928  1
  In  In3  1  0.00903054  0.50868952  0.61774597  1
  In  In4  1  0.00971782  0.82400175  0.13114088  1
  In  In5  1  0.01133117  0.81609755  0.63912640  1
  In  In6  1  0.32334264  0.15254597  0.11739616  1
  In  In7  1  0.32777252  0.16101536  0.63111285  1
  In  In8  1  0.33159016  0.51824037  0.12308236  1
  In  In9  1  0.33977682  0.50756361  0.62101146  1
  In  In10  1  0.33275055  0.82663474  0.11619907  1
  In  In11  1  0.32372392  0.83679293  0.63211792  1
  In  In12  1  0.65898722  0.16152913  0.12846409  1
  In  In13  1  0.67285022  0.15513972  0.62182134  1
  In  In14  1  0.66556977  0.48655646  0.12664284  1
  In  In15  1  0.67526951  0.50414827  0.61794054  1
  In  In16  1  0.66423671  0.85636917  0.12241518  1
  In  In17  1  0.65472590  0.83077455  0.62806134  1
  In  In18  1  0.16031612  -0.00340997  0.36276001  1
  In  In19  1  0.16587453  -0.01159230  0.87822183  1
  In  In20  1  0.17614375  0.34569601  0.37430331  1
  In  In21  1  0.18022413  0.32854146  0.89264693  1
  In  In22  1  0.16842625  0.67354192  0.37538482  1
  In  In23  1  0.16827613  0.66910755  0.87649999  1
  In  In24  1  0.49835612  0.01327252  0.35048056  1
  In  In25  1  0.48579371  0.00948541  0.88809540  1
  In  In26  1  0.51130246  0.33305060  0.36815553  1
  In  In27  1  0.48407150  0.31787139  0.88481661  1
  In  In28  1  0.48272027  0.67316284  0.37549672  1
  In  In29  1  0.50519916  0.67582109  0.87304995  1
  In  In30  1  0.84085946  0.01037337  0.37161473  1
  In  In31  1  0.83657641  -0.01604205  0.87389873  1
  In  In32  1  0.82790683  0.34192599  0.37771307  1
  In  In33  1  0.84651857  0.33696474  0.87794600  1
  In  In34  1  0.83800330  0.65402116  0.37907495  1
  In  In35  1  0.82499254  0.66625129  0.86518279  1
  In  In36  1  0.00111525  0.14998165  0.37027578  1
  In  In37  1  0.01580188  0.16161161  0.87852417  1
  In  In38  1  -0.00251961  0.51127811  0.37851856  1
  In  In39  1  -0.00658590  0.50696496  0.87841402  1
  In  In40  1  0.01292062  0.84643312  0.36913594  1
  In  In41  1  0.00123421  0.84158564  0.86365604  1
  In  In42  1  0.34142804  0.16219022  0.36173787  1
  In  In43  1  0.34572171  0.14689312  0.89431530  1
  In  In44  1  0.32247839  0.51158129  0.38109586  1
  In  In45  1  0.31904017  0.50360969  0.87996557  1
  In  In46  1  0.32959044  0.82827917  0.36776632  1
  In  In47  1  0.32721934  0.82621576  0.87856177  1
  In  In48  1  0.67033835  0.17941806  0.36240195  1
  In  In49  1  0.64900709  0.15514703  0.88030335  1
  In  In50  1  0.67377501  0.49431963  0.38010057  1
  In  In51  1  0.66247595  0.51788350  0.87840520  1
  In  In52  1  0.65342030  0.83925052  0.37195513  1
  In  In53  1  0.67069757  0.82405679  0.87780434  1
  In  In54  1  0.17172494  -0.00206190  0.12538410  1
  In  In55  1  0.17548618  -0.01306447  0.62930456  1
  In  In56  1  0.17951244  0.33517647  0.11169001  1
  In  In57  1  0.15506774  0.33538387  0.62311820  1
  In  In58  1  0.16760623  0.66834484  0.12005395  1
  In  In59  1  0.16507250  0.66631205  0.62896490  1
  In  In60  1  0.49905349  -0.00823779  0.11646569  1
  In  In61  1  0.49727640  -0.00677598  0.62927685  1
  In  In62  1  0.51564375  0.32976519  0.12824751  1
  In  In63  1  0.48694053  0.34096728  0.62670497  1
  In  In64  1  0.48204735  0.67161484  0.12376534  1
  In  In65  1  0.50618115  0.65970425  0.63529483  1
  In  In66  1  0.83220445  0.00434768  0.13421480  1
  In  In67  1  0.83577843  0.01066715  0.61897053  1
  In  In68  1  0.81860818  0.33223826  0.12579385  1
  In  In69  1  0.83335992  0.33091920  0.61556121  1
  In  In70  1  0.85232928  0.67045230  0.12641718  1
  In  In71  1  0.84672177  0.65633481  0.63480164  1
  In  In72  1  -0.00108367  0.33380750  0.23997180  1
  In  In73  1  0.00385643  0.33573493  0.75009411  1
  In  In74  1  0.32963595  0.33238618  0.75589792  1
  In  In75  1  0.33640474  0.32716453  0.24234871  1
  In  In76  1  0.66274082  -0.00622314  0.75329765  1
  In  In77  1  0.83613115  0.16936221  0.00854675  1
  In  In78  1  0.50469153  0.17145787  0.49276886  1
  In  In79  1  0.66446030  0.33573536  0.76072909  1
  In  In80  1  0.66463388  0.66805239  0.25526330  1
  In  In81  1  0.49289652  0.83448749  0.49934762  1
  In  In82  1  0.83405506  0.83109864  -0.00192129  1
  In  In83  1  0.16534276  0.17259702  0.49256817  1
  In  In84  1  0.83912670  0.83034776  0.50948459  1
  In  In85  1  0.50033063  0.49834142  0.00059271  1
  Cu  Cu86  1  0.67181911  0.66482927  -0.00026079  1
  Cu  Cu87  1  0.32589704  -0.01024027  0.00176886  1
  Cu  Cu88  1  0.16586785  0.51401592  0.24931478  1
  Cu  Cu89  1  0.00395282  0.66446679  -0.00195141  1
  Cu  Cu90  1  0.33346253  0.34428370  0.49879250  1
  Cu  Cu91  1  0.16188368  0.50316741  0.75318122  1
  Cu  Cu92  1  0.00507008  0.67015125  0.50270165  1
  Cu  Cu93  1  0.66596861  0.33274744  0.49510918  1
  Cu  Cu94  1  0.32686872  0.66714524  0.50215782  1
  Cu  Cu95  1  0.83060165  0.16842173  0.24835481  1
  Cu  Cu96  1  0.00277132  0.33859739  0.00081886  1
  Cu  Cu97  1  0.50008598  0.50603615  0.75292701  1
  Cu  Cu98  1  0.16993827  0.82986994  0.75518811  1
  Cu  Cu99  1  0.49528270  0.83756439  0.24270309  1
  Cu  Cu100  1  0.83175604  0.50048880  0.25479221  1
  Cu  Cu101  1  0.00442442  -0.00387120  0.00263991  1
  Cu  Cu102  1  0.48917790  0.83444142  0.75474504  1
  Cu  Cu103  1  0.17231982  0.14832655  0.75713233  1
  Cu  Cu104  1  -0.00569754  0.33880780  0.49774903  1
  Cu  Cu105  1  0.83892984  0.83551766  0.25146093  1
  Cu  Cu106  1  0.49663687  0.49942431  0.24641302  1
  Cu  Cu107  1  0.67225258  0.33181686  0.00263128  1
  Cu  Cu108  1  0.16933099  0.83202034  0.24423032  1
  Cu  Cu109  1  0.83394181  0.50870421  0.74537656  1
  Cu  Cu110  1  0.33407338  -0.00236478  0.49734123  1
  Cu  Cu111  1  0.00993623  -0.00248946  0.49564499  1
  Cu  Cu112  1  0.67579518  0.00671716  0.49268424  1
  Cu  Cu113  1  0.66460145  0.65689164  0.50550366  1
  Cu  Cu114  1  0.83310916  0.16021416  0.74609276  1
  Se  Se115  1  0.08737584  0.08172667  0.05378929  1
  Se  Se116  1  0.08611083  0.08135749  0.55953964  1
  Se  Se117  1  0.08989893  0.42066660  0.05101208  1
  Se  Se118  1  0.08337726  0.41732128  0.54967899  1
  Se  Se119  1  0.08144852  0.75210220  0.05168791  1
  Se  Se120  1  0.08720574  0.75265903  0.55719999  1
  Se  Se121  1  0.41253346  0.07547221  0.04989008  1
  Se  Se122  1  0.41426739  0.08023659  0.55568919  1
  Se  Se123  1  0.41745618  0.41425407  0.06849017  1
  Se  Se124  1  0.42059742  0.42339640  0.55108324  1
  Se  Se125  1  0.41621016  0.74682167  0.04559032  1
  Se  Se126  1  0.41136112  0.74390577  0.56383009  1
  Se  Se127  1  0.74526321  0.07279106  0.05754481  1
  Se  Se128  1  0.75703763  0.09066692  0.54561755  1
  Se  Se129  1  0.75277767  0.42074638  0.05122661  1
  Se  Se130  1  0.75063163  0.41542012  0.54969226  1
  Se  Se131  1  0.74601165  0.74534501  0.06531518  1
  Se  Se132  1  0.74224617  0.74093729  0.56390719  1
  Se  Se133  1  0.26500484  0.25241105  0.04727626  1
  Se  Se134  1  0.25867270  0.25791766  0.55862085  1
  Se  Se135  1  0.24492343  0.58213879  0.05012935  1
  Se  Se136  1  0.24552042  0.58327533  0.55721533  1
  Se  Se137  1  0.23939657  0.90780895  0.05292151  1
  Se  Se138  1  0.25426910  0.91457847  0.55244596  1
  Se  Se139  1  0.58855208  0.24774293  0.05355095  1
  Se  Se140  1  0.58871612  0.25813061  0.56252449  1
  Se  Se141  1  0.58999758  0.58899192  0.06339849  1
  Se  Se142  1  0.57502530  0.57932222  0.55748790  1
  Se  Se143  1  0.56768561  0.89544475  0.04727582  1
  Se  Se144  1  0.59207758  0.92914331  0.55264436  1
  Se  Se145  1  0.92871545  0.25888047  0.06669720  1
  Se  Se146  1  0.91871831  0.24769831  0.54994732  1
  Se  Se147  1  0.91792823  0.58418802  0.05192646  1
  Se  Se148  1  0.91681204  0.58672505  0.55254842  1
  Se  Se149  1  0.92027924  0.92010295  0.06324430  1
  Se  Se150  1  0.93414095  0.92133493  0.56254245  1
  Se  Se151  1  0.07260109  0.26153897  0.43303155  1
  Se  Se152  1  0.08265386  0.24844379  0.95139597  1
  Se  Se153  1  0.08706856  0.58818877  0.44534665  1
  Se  Se154  1  0.08642185  0.58013987  0.94424880  1
  Se  Se155  1  0.09595192  0.91775126  0.44406255  1
  Se  Se156  1  0.07663530  0.90777629  0.94539305  1
  Se  Se157  1  0.40582889  0.25905690  0.43699658  1
  Se  Se158  1  0.39670211  0.25663885  0.95903545  1
  Se  Se159  1  0.41438011  0.58721111  0.44899577  1
  Se  Se160  1  0.41534586  0.58976685  0.94026656  1
  Se  Se161  1  0.41809990  0.92854713  0.43234219  1
  Se  Se162  1  0.41177971  0.90975302  0.94757139  1
  Se  Se163  1  0.74776965  0.24873429  0.44142069  1
  Se  Se164  1  0.74744180  0.25159707  0.93757581  1
  Se  Se165  1  0.75121763  0.58100473  0.44948002  1
  Se  Se166  1  0.75722989  0.58599464  0.94576676  1
  Se  Se167  1  0.75061661  0.91453305  0.44004655  1
  Se  Se168  1  0.73913026  0.92610943  0.94673612  1
  Se  Se169  1  0.25818431  0.08151644  0.43698888  1
  Se  Se170  1  0.24028319  0.07568938  0.95028781  1
  Se  Se171  1  0.24373175  0.42571705  0.45116628  1
  Se  Se172  1  0.25797920  0.41893387  0.95599117  1
  Se  Se173  1  0.25316079  0.75554326  0.44557681  1
  Se  Se174  1  0.23528811  0.75845426  0.94894984  1
  Se  Se175  1  0.58739006  0.07644934  0.43244101  1
  Se  Se176  1  0.57685671  0.08330022  0.95660776  1
  Se  Se177  1  0.58027317  0.41540861  0.44418405  1
  Se  Se178  1  0.59081262  0.40654434  0.93791879  1
  Se  Se179  1  0.58939522  0.74083104  0.44466583  1
  Se  Se180  1  0.58698416  0.74785446  0.94906656  1
  Se  Se181  1  0.92201490  0.08159287  0.44840150  1
  Se  Se182  1  0.92038334  0.07562089  0.94375000  1
  Se  Se183  1  0.91388241  0.42433119  0.44367316  1
  Se  Se184  1  0.91640090  0.42075612  0.95061634  1
  Se  Se185  1  0.92627257  0.74975572  0.44015341  1
  Se  Se186  1  0.92224678  0.74327625  0.93648880  1
  Se  Se187  1  0.23920654  0.24692537  0.30551189  1
  Se  Se188  1  0.24459099  0.23843790  0.81502698  1
  Se  Se189  1  0.25254533  0.59129518  0.30462351  1
  Se  Se190  1  0.24881669  0.58449699  0.80445785  1
  Se  Se191  1  0.25130373  0.91515920  0.29986614  1
  Se  Se192  1  0.25315985  0.91514953  0.80666463  1
  Se  Se193  1  0.56021183  0.23058528  0.30048918  1
  Se  Se194  1  0.56860404  0.24138606  0.80852427  1
  Se  Se195  1  0.57330205  0.57753438  0.31355946  1
  Se  Se196  1  0.58634696  0.59043531  0.80244954  1
  Se  Se197  1  0.58365694  0.91663917  0.29530452  1
  Se  Se198  1  0.57097575  0.91189027  0.81664723  1
  Se  Se199  1  0.91233226  0.24944743  0.30819197  1
  Se  Se200  1  0.91404614  0.23928283  0.80752726  1
  Se  Se201  1  0.91838921  0.58549079  0.30184560  1
  Se  Se202  1  0.91942828  0.58503687  0.80263560  1
  Se  Se203  1  0.92002738  0.92258485  0.30452522  1
  Se  Se204  1  0.91007676  0.91563280  0.79616935  1
  Se  Se205  1  0.08859307  0.09013999  0.29655357  1
  Se  Se206  1  0.08077612  0.07153615  0.80707765  1
  Se  Se207  1  0.08622075  0.42599058  0.30411193  1
  Se  Se208  1  0.09385624  0.41567447  0.81616860  1
  Se  Se209  1  0.08613119  0.75270257  0.30335589  1
  Se  Se210  1  0.08268807  0.74620833  0.80430217  1
  Se  Se211  1  0.39638544  0.07247565  0.28615293  1
  Se  Se212  1  0.41685450  0.08791089  0.81033635  1
  Se  Se213  1  0.41377226  0.42305489  0.30967717  1
  Se  Se214  1  0.42427352  0.42296752  0.81429430  1
  Se  Se215  1  0.41626704  0.75121824  0.29720591  1
  Se  Se216  1  0.41005311  0.74569551  0.80613463  1
  Se  Se217  1  0.74963019  0.08226308  0.30284989  1
  Se  Se218  1  0.75320208  0.08933074  0.81220251  1
  Se  Se219  1  0.74598649  0.41558322  0.30269952  1
  Se  Se220  1  0.76127653  0.42888327  0.81130174  1
  Se  Se221  1  0.75875625  0.75748962  0.31477425  1
  Se  Se222  1  0.75365656  0.76266624  0.80119679  1
  Se  Se223  1  0.24824323  0.08404475  0.19612073  1
  Se  Se224  1  0.25606679  0.07208633  0.69917879  1
  Se  Se225  1  0.24386577  0.42728704  0.19167276  1
  Se  Se226  1  0.24087313  0.42053623  0.69182155  1
  Se  Se227  1  0.25158025  0.74783550  0.19069310  1
  Se  Se228  1  0.25047793  0.74513704  0.69917662  1
  Se  Se229  1  0.59228945  0.05896005  0.18747460  1
  Se  Se230  1  0.57684346  0.09106016  0.69302313  1
  Se  Se231  1  0.58609229  0.41479170  0.20295036  1
  Se  Se232  1  0.57897516  0.42285011  0.69383693  1
  Se  Se233  1  0.58125248  0.75405222  0.18780522  1
  Se  Se234  1  0.57804068  0.75431994  0.70213493  1
  Se  Se235  1  0.91901539  0.08524750  0.20044364  1
  Se  Se236  1  0.91984963  0.08095615  0.69440483  1
  Se  Se237  1  0.90859976  0.42865621  0.18549625  1
  Se  Se238  1  0.91119040  0.42076998  0.68819554  1
  Se  Se239  1  0.92234998  0.74904680  0.20284534  1
  Se  Se240  1  0.90475221  0.75763208  0.69977060  1
  Se  Se241  1  0.09959294  0.25042144  0.18702075  1
  Se  Se242  1  0.09647885  0.23557034  0.69700080  1
  Se  Se243  1  0.08064625  0.59289039  0.19438987  1
  Se  Se244  1  0.07809554  0.58337013  0.69749434  1
  Se  Se245  1  0.08349372  0.91879693  0.19550407  1
  Se  Se246  1  0.08756498  0.91423536  0.69954066  1
  Se  Se247  1  0.42299914  0.23639633  0.18388233  1
  Se  Se248  1  0.42263124  0.24220890  0.69561402  1
  Se  Se249  1  0.41409924  0.58759540  0.19954781  1
  Se  Se250  1  0.41099531  0.58350300  0.69968072  1
  Se  Se251  1  0.41007869  0.91424186  0.18650756  1
  Se  Se252  1  0.41180121  0.91931857  0.69838580  1
  Se  Se253  1  0.74359407  0.24802263  0.19591201  1
  Se  Se254  1  0.75321445  0.24758164  0.69305111  1
  Se  Se255  1  0.75360660  0.58178479  0.19119415  1
  Se  Se256  1  0.74228602  0.58589118  0.69513492  1
  Se  Se257  1  0.75195407  0.91525166  0.19984004  1
  Se  Se258  1  0.75254024  0.91666053  0.68473047  1
