# generated using pymatgen
data_In86Cu29Se144
_symmetry_space_group_name_H-M   'P 1'
_cell_length_a   17.58465159
_cell_length_b   17.58565910
_cell_length_c   23.45149531
_cell_angle_alpha   90.00107535
_cell_angle_beta   90.00495172
_cell_angle_gamma   90.01418293
_symmetry_Int_Tables_number   1
_chemical_formula_structural   In86Cu29Se144
_chemical_formula_sum   'In86 Cu29 Se144'
_cell_volume   7252.08594625
_cell_formula_units_Z   1
loop_
 _symmetry_equiv_pos_site_id
 _symmetry_equiv_pos_as_xyz
  1  'x, y, z'
loop_
 _atom_site_type_symbol
 _atom_site_label
 _atom_site_symmetry_multiplicity
 _atom_site_fract_x
 _atom_site_fract_y
 _atom_site_fract_z
 _atom_site_occupancy
  In  In0  1  0.00629895  0.15566946  0.12704134  1
  In  In1  1  -0.00276721  0.18237521  0.62753009  1
  In  In2  1  0.00682612  0.48957368  0.12206330  1
  In  In3  1  -0.00562457  0.49319431  0.61863900  1
  In  In4  1  0.00811594  0.84007429  0.11859448  1
  In  In5  1  -0.00662438  0.84356449  0.62270040  1
  In  In6  1  0.33416761  0.16716473  0.12153809  1
  In  In7  1  0.34107432  0.15900273  0.62496923  1
  In  In8  1  0.33689125  0.49410521  0.11776753  1
  In  In9  1  0.33802260  0.53263775  0.61746925  1
  In  In10  1  0.34593232  0.84532144  0.12332670  1
  In  In11  1  0.34258048  0.81255553  0.62825570  1
  In  In12  1  0.66570415  0.18134071  0.12987422  1
  In  In13  1  0.66075832  0.15980051  0.61848080  1
  In  In14  1  0.64308985  0.51840580  0.14324170  1
  In  In15  1  0.67483635  0.49828622  0.62804965  1
  In  In16  1  0.65646875  0.82540268  0.12243250  1
  In  In17  1  0.66348697  0.83442958  0.62244666  1
  In  In18  1  0.16780533  0.00505374  0.36189966  1
  In  In19  1  0.17119231  -0.00779327  0.88464936  1
  In  In20  1  0.18277986  0.33296281  0.37095277  1
  In  In21  1  0.16448344  0.34077841  0.88204557  1
  In  In22  1  0.15876328  0.66634943  0.37819126  1
  In  In23  1  0.17956065  0.65218064  0.88488545  1
  In  In24  1  0.49522088  0.00287062  0.37537913  1
  In  In25  1  0.50424732  -0.00471738  0.88301043  1
  In  In26  1  0.48720491  0.33202445  0.36336117  1
  In  In27  1  0.48846296  0.34442788  0.89708109  1
  In  In28  1  0.51257715  0.66111313  0.37138147  1
  In  In29  1  0.50437126  0.66629121  0.87096004  1
  In  In30  1  0.83691929  -0.01247126  0.37857518  1
  In  In31  1  0.81295915  0.00464877  0.87165892  1
  In  In32  1  0.81857086  0.34604822  0.38588450  1
  In  In33  1  0.84306100  0.31408204  0.86648496  1
  In  In34  1  0.81727923  0.67841591  0.38631774  1
  In  In35  1  0.82927164  0.68400387  0.87348591  1
  In  In36  1  -0.00160532  0.15215490  0.37237130  1
  In  In37  1  -0.01039812  0.17954157  0.87139506  1
  In  In38  1  0.00076922  0.49681267  0.38262888  1
  In  In39  1  0.01256113  0.49634253  0.87350261  1
  In  In40  1  -0.01509788  0.83758012  0.37090365  1
  In  In41  1  -0.00379541  0.83502317  0.88410225  1
  In  In42  1  0.33930631  0.17269359  0.36656975  1
  In  In43  1  0.33420353  0.17535720  0.89520565  1
  In  In44  1  0.34308224  0.48664934  0.37318071  1
  In  In45  1  0.32970058  0.50301653  0.88022187  1
  In  In46  1  0.33059047  0.84361010  0.37165325  1
  In  In47  1  0.35022565  0.81643573  0.88730343  1
  In  In48  1  0.65531783  0.17568545  0.38148354  1
  In  In49  1  0.66612365  0.15879392  0.87534728  1
  In  In50  1  0.66378216  0.50961090  0.36978649  1
  In  In51  1  0.65337833  0.50329614  0.87217319  1
  In  In52  1  0.67292707  0.82128768  0.37448496  1
  In  In53  1  0.66194746  0.83548832  0.87434044  1
  In  In54  1  0.17013604  0.00399421  0.12299186  1
  In  In55  1  0.16497707  -0.00448625  0.62526343  1
  In  In56  1  0.19373974  0.34753595  0.10151209  1
  In  In57  1  0.15639014  0.33599610  0.62851804  1
  In  In58  1  0.16852317  0.66484563  0.11531744  1
  In  In59  1  0.18524489  0.66012969  0.62606897  1
  In  In60  1  0.48923085  -0.01550705  0.12373453  1
  In  In61  1  0.51298147  0.01018863  0.61648844  1
  In  In62  1  0.49932191  0.33462722  0.12042096  1
  In  In63  1  0.51013585  0.33442136  0.62381172  1
  In  In64  1  0.50630589  0.67805139  0.12171905  1
  In  In65  1  0.48693597  0.67664677  0.63717066  1
  In  In66  1  0.84736122  -0.00068309  0.13009484  1
  In  In67  1  0.82196672  -0.01220922  0.61192632  1
  In  In68  1  0.82567984  0.32510905  0.13024118  1
  In  In69  1  0.83537453  0.34118253  0.61751202  1
  In  In70  1  0.81353772  0.67173719  0.12971340  1
  In  In71  1  0.82336495  0.65944824  0.62026361  1
  In  In72  1  0.50152006  0.50269267  0.49780980  1
  In  In73  1  -0.00664845  0.00231041  0.74522656  1
  In  In74  1  0.00061612  0.32320140  0.24555611  1
  In  In75  1  0.66607770  0.33183109  0.75148457  1
  In  In76  1  0.33196376  0.34272397  0.76068281  1
  In  In77  1  0.83355180  0.50251612  0.00342568  1
  In  In78  1  -0.00224664  0.66466412  0.75067618  1
  In  In79  1  0.83250927  0.16261951  -0.00049434  1
  In  In80  1  0.16799089  0.83048823  0.50303008  1
  In  In81  1  0.66683917  -0.00443812  0.25179688  1
  In  In82  1  0.34157301  -0.00371245  0.75487330  1
  In  In83  1  0.16523815  0.16948213  0.49917920  1
  In  In84  1  0.33734228  0.66483374  0.24835338  1
  In  In85  1  -0.00643073  0.67063962  0.25318234  1
  Cu  Cu86  1  0.50849256  0.83823643  0.75408397  1
  Cu  Cu87  1  0.66452946  0.32941238  0.50072106  1
  Cu  Cu88  1  0.66606862  0.66661779  0.50124023  1
  Cu  Cu89  1  0.17031856  0.49640165  0.75450741  1
  Cu  Cu90  1  0.66063030  0.67050540  0.00077622  1
  Cu  Cu91  1  0.33260903  -0.00212421  0.00523222  1
  Cu  Cu92  1  0.17294818  0.82054415  0.75777605  1
  Cu  Cu93  1  -0.00514256  -0.00253215  0.49519147  1
  Cu  Cu94  1  0.50262203  0.16878674  0.75377119  1
  Cu  Cu95  1  -0.00204507  0.66308069  0.50071476  1
  Cu  Cu96  1  0.66322033  -0.00409763  0.49339053  1
  Cu  Cu97  1  0.82602629  0.50116402  0.25740878  1
  Cu  Cu98  1  0.00715595  0.33163087  -0.00259412  1
  Cu  Cu99  1  0.66605265  -0.00319775  0.00151704  1
  Cu  Cu100  1  0.16804837  0.84418108  0.24174896  1
  Cu  Cu101  1  0.16156954  0.16544326  0.75549502  1
  Cu  Cu102  1  0.66361469  0.34117398  0.00550389  1
  Cu  Cu103  1  0.33593501  0.33486871  0.49479021  1
  Cu  Cu104  1  0.17346520  0.16992063  0.24218408  1
  Cu  Cu105  1  0.83631622  0.49673323  0.74421769  1
  Cu  Cu106  1  0.17243961  0.49471228  0.24363856  1
  Cu  Cu107  1  -0.00157437  0.33404941  0.50045356  1
  Cu  Cu108  1  0.81987671  0.83875500  0.74658919  1
  Cu  Cu109  1  0.49511159  0.16441870  0.24797018  1
  Cu  Cu110  1  0.00292273  -0.00436746  0.00290504  1
  Cu  Cu111  1  0.33650126  0.66631983  0.00215922  1
  Cu  Cu112  1  0.34198314  0.00083164  0.49835105  1
  Cu  Cu113  1  -0.00210518  0.66802229  -0.00220155  1
  Cu  Cu114  1  0.82983279  0.16652949  0.25539815  1
  Se  Se115  1  0.08473994  0.08385165  0.05128290  1
  Se  Se116  1  0.07418172  0.07596116  0.55845817  1
  Se  Se117  1  0.08734966  0.42182842  0.04610774  1
  Se  Se118  1  0.08574522  0.41527765  0.55199369  1
  Se  Se119  1  0.08352955  0.74961627  0.05113036  1
  Se  Se120  1  0.07628536  0.74123884  0.56517257  1
  Se  Se121  1  0.42021442  0.07953396  0.05628142  1
  Se  Se122  1  0.42137672  0.08949880  0.55024800  1
  Se  Se123  1  0.41485468  0.40954266  0.04871314  1
  Se  Se124  1  0.40918090  0.41427354  0.56141126  1
  Se  Se125  1  0.41729670  0.75357580  0.05357854  1
  Se  Se126  1  0.41995960  0.74267278  0.55270350  1
  Se  Se127  1  0.74418865  0.07738433  0.06435980  1
  Se  Se128  1  0.74523232  0.08149284  0.54775750  1
  Se  Se129  1  0.74447628  0.41821662  0.06670488  1
  Se  Se130  1  0.74515763  0.41910316  0.55101040  1
  Se  Se131  1  0.74799907  0.75213821  0.05152017  1
  Se  Se132  1  0.75002819  0.75198900  0.55393804  1
  Se  Se133  1  0.23696526  0.22745564  0.05027360  1
  Se  Se134  1  0.25780970  0.25686146  0.56076828  1
  Se  Se135  1  0.25191903  0.57951881  0.05117314  1
  Se  Se136  1  0.24083931  0.58071589  0.54449610  1
  Se  Se137  1  0.24832761  0.91268869  0.05653145  1
  Se  Se138  1  0.26342203  0.92192383  0.56157307  1
  Se  Se139  1  0.58557273  0.24735422  0.05249398  1
  Se  Se140  1  0.57773930  0.24757377  0.55164744  1
  Se  Se141  1  0.58243428  0.58377150  0.05534111  1
  Se  Se142  1  0.58670901  0.58847474  0.56383596  1
  Se  Se143  1  0.58085325  0.91360873  0.05329575  1
  Se  Se144  1  0.58059087  0.91362891  0.55012640  1
  Se  Se145  1  0.92355371  0.25635999  0.05926538  1
  Se  Se146  1  0.91509492  0.24930045  0.55134525  1
  Se  Se147  1  0.92213405  0.59258037  0.06585324  1
  Se  Se148  1  0.91271499  0.58103574  0.55396659  1
  Se  Se149  1  0.91316530  0.91661724  0.05286346  1
  Se  Se150  1  0.91349766  0.90975883  0.54546320  1
  Se  Se151  1  0.07719789  0.25762100  0.43536447  1
  Se  Se152  1  0.08207746  0.24443720  0.94180330  1
  Se  Se153  1  0.08395466  0.58195597  0.44882554  1
  Se  Se154  1  0.08028547  0.58006224  0.94824743  1
  Se  Se155  1  0.08493135  0.92315996  0.43851218  1
  Se  Se156  1  0.08635627  0.90979964  0.95118607  1
  Se  Se157  1  0.41677359  0.25111026  0.44124147  1
  Se  Se158  1  0.42734095  0.24380866  0.96107362  1
  Se  Se159  1  0.40965496  0.59039623  0.43820407  1
  Se  Se160  1  0.41829318  0.58859342  0.94244034  1
  Se  Se161  1  0.41791254  0.91293438  0.44474911  1
  Se  Se162  1  0.41769309  0.91677145  0.95038299  1
  Se  Se163  1  0.75035320  0.24572200  0.44956915  1
  Se  Se164  1  0.74403147  0.26146054  0.94368007  1
  Se  Se165  1  0.74523325  0.57810277  0.44757843  1
  Se  Se166  1  0.74526641  0.59141766  0.94116853  1
  Se  Se167  1  0.74862068  0.90964144  0.44509539  1
  Se  Se168  1  0.74823256  0.91643568  0.94487603  1
  Se  Se169  1  0.25459670  0.07817278  0.44022393  1
  Se  Se170  1  0.24934337  0.08002747  0.95115534  1
  Se  Se171  1  0.25075641  0.41870532  0.44489441  1
  Se  Se172  1  0.26440647  0.40433414  0.94576750  1
  Se  Se173  1  0.25713808  0.74470345  0.44062374  1
  Se  Se174  1  0.24833618  0.74944652  0.95043028  1
  Se  Se175  1  0.57777121  0.08285903  0.44577519  1
  Se  Se176  1  0.58584273  0.08422104  0.94899602  1
  Se  Se177  1  0.58466610  0.40808335  0.43715950  1
  Se  Se178  1  0.58549070  0.42889299  0.95259659  1
  Se  Se179  1  0.58381312  0.74643212  0.44474222  1
  Se  Se180  1  0.57969290  0.75298318  0.94371137  1
  Se  Se181  1  0.91201402  0.08319948  0.44496844  1
  Se  Se182  1  0.92236003  0.07262934  0.93826707  1
  Se  Se183  1  0.91347400  0.41987862  0.45058409  1
  Se  Se184  1  0.91856887  0.40761929  0.93988684  1
  Se  Se185  1  0.92082451  0.75008711  0.44587356  1
  Se  Se186  1  0.91069875  0.75176929  0.95008322  1
  Se  Se187  1  0.25537259  0.25347523  0.29685370  1
  Se  Se188  1  0.24713708  0.24039621  0.81356531  1
  Se  Se189  1  0.24210029  0.57804432  0.30876281  1
  Se  Se190  1  0.25301169  0.58239982  0.80464109  1
  Se  Se191  1  0.25393811  0.92191294  0.29721664  1
  Se  Se192  1  0.25282139  0.90465003  0.81385787  1
  Se  Se193  1  0.57877543  0.24606566  0.30298220  1
  Se  Se194  1  0.57208312  0.25374206  0.81788683  1
  Se  Se195  1  0.57219416  0.57199355  0.29765325  1
  Se  Se196  1  0.59543172  0.59566498  0.80061785  1
  Se  Se197  1  0.57794865  0.90768905  0.31163420  1
  Se  Se198  1  0.58580874  0.92787717  0.80557163  1
  Se  Se199  1  0.90851033  0.25065141  0.31526042  1
  Se  Se200  1  0.91669284  0.24205098  0.78919642  1
  Se  Se201  1  0.90956493  0.57907140  0.31567999  1
  Se  Se202  1  0.90824390  0.57576793  0.81287633  1
  Se  Se203  1  0.92323559  0.92945785  0.30044604  1
  Se  Se204  1  0.90834640  0.90974802  0.80756490  1
  Se  Se205  1  0.08561318  0.09106921  0.29578041  1
  Se  Se206  1  0.08671250  0.07921786  0.81284327  1
  Se  Se207  1  0.08698411  0.42039979  0.30520111  1
  Se  Se208  1  0.08545818  0.41014305  0.80249815  1
  Se  Se209  1  0.09271327  0.76360295  0.30599815  1
  Se  Se210  1  0.08621463  0.74808634  0.81666186  1
  Se  Se211  1  0.41426390  0.07913164  0.30136738  1
  Se  Se212  1  0.41869059  0.09518021  0.81619439  1
  Se  Se213  1  0.41414982  0.41930484  0.29354052  1
  Se  Se214  1  0.43133414  0.42774266  0.81273941  1
  Se  Se215  1  0.42227830  0.75495552  0.30949099  1
  Se  Se216  1  0.42034257  0.75374681  0.80283931  1
  Se  Se217  1  0.74987283  0.08773843  0.31590681  1
  Se  Se218  1  0.75967533  0.10326234  0.80237703  1
  Se  Se219  1  0.74327502  0.41405452  0.30637572  1
  Se  Se220  1  0.75973526  0.42072374  0.81221273  1
  Se  Se221  1  0.76188115  0.75262364  0.30255206  1
  Se  Se222  1  0.74224199  0.75262268  0.80152308  1
  Se  Se223  1  0.25581337  0.08123093  0.19348966  1
  Se  Se224  1  0.24257051  0.08754903  0.69581730  1
  Se  Se225  1  0.25401067  0.41342334  0.18973048  1
  Se  Se226  1  0.25134899  0.42414781  0.68800542  1
  Se  Se227  1  0.24429423  0.75356499  0.18786456  1
  Se  Se228  1  0.25592736  0.74247285  0.70150198  1
  Se  Se229  1  0.57851602  0.08488203  0.18888198  1
  Se  Se230  1  0.58138582  0.08744239  0.69616631  1
  Se  Se231  1  0.59901520  0.39479431  0.18978348  1
  Se  Se232  1  0.57492611  0.42709446  0.69655132  1
  Se  Se233  1  0.58709260  0.74583788  0.19854675  1
  Se  Se234  1  0.58544992  0.75325117  0.69599002  1
  Se  Se235  1  0.91664610  0.09052446  0.20041676  1
  Se  Se236  1  0.90673237  0.08367539  0.67979177  1
  Se  Se237  1  0.90797140  0.42551336  0.19486736  1
  Se  Se238  1  0.91902345  0.41297373  0.69323132  1
  Se  Se239  1  0.91314024  0.75800371  0.18719570  1
  Se  Se240  1  0.90831722  0.75829324  0.69156546  1
  Se  Se241  1  0.09841159  0.25380171  0.18009988  1
  Se  Se242  1  0.08375972  0.25097521  0.70084690  1
  Se  Se243  1  0.08757002  0.57948483  0.19240417  1
  Se  Se244  1  0.08942265  0.57551883  0.69170038  1
  Se  Se245  1  0.07993649  0.92493957  0.19184508  1
  Se  Se246  1  0.09380525  0.90241025  0.69812132  1
  Se  Se247  1  0.41774846  0.24910305  0.19065779  1
  Se  Se248  1  0.42024441  0.24925113  0.69575812  1
  Se  Se249  1  0.42386328  0.57857220  0.18540527  1
  Se  Se250  1  0.41829695  0.57763248  0.70075976  1
  Se  Se251  1  0.41998777  0.91172424  0.20333931  1
  Se  Se252  1  0.42767471  0.91380244  0.68798250  1
  Se  Se253  1  0.74680611  0.25261473  0.20601369  1
  Se  Se254  1  0.74999474  0.24918899  0.68376810  1
  Se  Se255  1  0.74571416  0.58771796  0.20444091  1
  Se  Se256  1  0.75103182  0.58416939  0.69892868  1
  Se  Se257  1  0.75423546  0.91012640  0.18814768  1
  Se  Se258  1  0.74200316  0.92400585  0.69181929  1
