# generated using pymatgen
data_In86Cu29Se144
_symmetry_space_group_name_H-M   'P 1'
_cell_length_a   17.57525115
_cell_length_b   17.57968742
_cell_length_c   23.43897555
_cell_angle_alpha   89.98983826
_cell_angle_beta   89.99573955
_cell_angle_gamma   90.00318189
_symmetry_Int_Tables_number   1
_chemical_formula_structural   In86Cu29Se144
_chemical_formula_sum   'In86 Cu29 Se144'
_cell_volume   7241.87968998
_cell_formula_units_Z   1
loop_
 _symmetry_equiv_pos_site_id
 _symmetry_equiv_pos_as_xyz
  1  'x, y, z'
loop_
 _atom_site_type_symbol
 _atom_site_label
 _atom_site_symmetry_multiplicity
 _atom_site_fract_x
 _atom_site_fract_y
 _atom_site_fract_z
 _atom_site_occupancy
  In  In0  1  -0.02155558  0.16597083  0.12426820  1
  In  In1  1  -0.00359529  0.14545864  0.62258651  1
  In  In2  1  0.00523262  0.50599510  0.12547057  1
  In  In3  1  0.00946245  0.51251844  0.62499545  1
  In  In4  1  0.00557378  0.83368987  0.13652079  1
  In  In5  1  -0.00798890  0.83834693  0.62721686  1
  In  In6  1  0.35418279  0.16416125  0.12556169  1
  In  In7  1  0.33264119  0.15850491  0.62179750  1
  In  In8  1  0.33869285  0.49564368  0.13475167  1
  In  In9  1  0.35355699  0.49498670  0.62467779  1
  In  In10  1  0.33277072  0.82302924  0.12866450  1
  In  In11  1  0.36090230  0.81493572  0.64380161  1
  In  In12  1  0.66852887  0.16648011  0.13182300  1
  In  In13  1  0.65943996  0.17089707  0.62683214  1
  In  In14  1  0.65494700  0.50660782  0.13186417  1
  In  In15  1  0.66270131  0.50531744  0.62784862  1
  In  In16  1  0.66143327  0.83616373  0.13233451  1
  In  In17  1  0.66200129  0.83436569  0.62093677  1
  In  In18  1  0.17215447  0.00934809  0.37240809  1
  In  In19  1  0.16131670  -0.00893746  0.86575171  1
  In  In20  1  0.17106002  0.31366708  0.37398144  1
  In  In21  1  0.17429633  0.34246355  0.87724557  1
  In  In22  1  0.16629335  0.67580934  0.36560150  1
  In  In23  1  0.17159125  0.67616245  0.87173867  1
  In  In24  1  0.52479719  -0.00709940  0.39899448  1
  In  In25  1  0.51127565  0.00918574  0.84731968  1
  In  In26  1  0.50133666  0.33593012  0.37736013  1
  In  In27  1  0.51308295  0.32170385  0.88409650  1
  In  In28  1  0.50146587  0.66542372  0.37572769  1
  In  In29  1  0.49426940  0.66275347  0.87014725  1
  In  In30  1  0.80621731  -0.01802435  0.37397906  1
  In  In31  1  0.82899131  0.00176238  0.86988258  1
  In  In32  1  0.82782162  0.34493535  0.37086479  1
  In  In33  1  0.80889837  0.33103991  0.87587406  1
  In  In34  1  0.83614969  0.67548554  0.36989292  1
  In  In35  1  0.83431239  0.67458484  0.87143159  1
  In  In36  1  0.01514896  0.16129380  0.37703943  1
  In  In37  1  -0.00814102  0.14664468  0.87337494  1
  In  In38  1  -0.01129899  0.51075110  0.37129817  1
  In  In39  1  -0.00332966  0.51080209  0.87503937  1
  In  In40  1  -0.01344265  0.82406072  0.36755117  1
  In  In41  1  -0.00512352  0.83380215  0.87010075  1
  In  In42  1  0.33237465  0.16082745  0.37603854  1
  In  In43  1  0.35086581  0.17371922  0.87418072  1
  In  In44  1  0.34446738  0.51250539  0.37043736  1
  In  In45  1  0.35181689  0.52318947  0.87416091  1
  In  In46  1  0.35138066  0.83896084  0.37656257  1
  In  In47  1  0.33626390  0.83008070  0.86469353  1
  In  In48  1  0.65836404  0.16747805  0.37673004  1
  In  In49  1  0.65859981  0.16193114  0.87204092  1
  In  In50  1  0.65088973  0.49053535  0.36929038  1
  In  In51  1  0.65614830  0.48878348  0.87080953  1
  In  In52  1  0.66870180  0.83449066  0.38022590  1
  In  In53  1  0.65889372  0.84415223  0.85729141  1
  In  In54  1  0.16033684  -0.01801565  0.12890571  1
  In  In55  1  0.16729486  -0.00160393  0.62351910  1
  In  In56  1  0.17115169  0.34602665  0.12849051  1
  In  In57  1  0.18370022  0.32943674  0.62140891  1
  In  In58  1  0.16833342  0.66910799  0.13622213  1
  In  In59  1  0.16507694  0.67633226  0.63190404  1
  In  In60  1  0.50747428  0.01425052  0.12319095  1
  In  In61  1  0.50577385  -0.00462769  0.62243268  1
  In  In62  1  0.50261655  0.33109516  0.13304302  1
  In  In63  1  0.51712648  0.33725860  0.60520349  1
  In  In64  1  0.50414092  0.66029127  0.12842963  1
  In  In65  1  0.50760375  0.66520434  0.62484598  1
  In  In66  1  0.82206615  0.00720919  0.13520783  1
  In  In67  1  0.83990902  -0.00837095  0.62847280  1
  In  In68  1  0.83168236  0.31282458  0.12542042  1
  In  In69  1  0.82167762  0.32499077  0.62525417  1
  In  In70  1  0.83297144  0.66540015  0.12721459  1
  In  In71  1  0.81566272  0.68171212  0.63391996  1
  In  In72  1  0.33766365  0.33363887  0.74949999  1
  In  In73  1  0.16719191  0.16743987  -0.00183559  1
  In  In74  1  0.82631502  0.50470529  0.50418218  1
  In  In75  1  0.83055988  0.84014611  -0.01043089  1
  In  In76  1  0.82605846  0.49647464  0.00648864  1
  In  In77  1  0.50327999  0.83845888  -0.00197379  1
  In  In78  1  0.17367568  0.50155821  0.49769813  1
  In  In79  1  0.16923015  0.82932122  -0.00070282  1
  In  In80  1  0.17728647  0.84301264  0.49539056  1
  In  In81  1  -0.01054128  0.33152066  0.74299029  1
  In  In82  1  0.17472892  0.50255825  0.00056380  1
  In  In83  1  0.83007458  0.16287258  0.49300955  1
  In  In84  1  0.33939986  -0.00225617  0.25072525  1
  In  In85  1  -0.00094337  0.33552825  0.24645364  1
  Cu  Cu86  1  0.83119858  0.16261870  0.25399492  1
  Cu  Cu87  1  0.00491481  0.32592107  0.49679827  1
  Cu  Cu88  1  0.16326472  0.51043804  0.75328277  1
  Cu  Cu89  1  0.16996252  0.16400149  0.24951451  1
  Cu  Cu90  1  0.33727346  0.32584706  0.49704810  1
  Cu  Cu91  1  0.16996836  0.49998342  0.25302446  1
  Cu  Cu92  1  0.66648308  0.66737029  -0.00055298  1
  Cu  Cu93  1  0.82540360  0.50748983  0.24967798  1
  Cu  Cu94  1  0.16690588  0.83649199  0.74700958  1
  Cu  Cu95  1  0.33880161  -0.00183210  0.50364447  1
  Cu  Cu96  1  0.50596776  0.83134093  0.25772263  1
  Cu  Cu97  1  0.00009329  -0.00276382  0.50118142  1
  Cu  Cu98  1  -0.00635328  0.67741523  0.49663532  1
  Cu  Cu99  1  0.16038702  0.16089783  0.74704560  1
  Cu  Cu100  1  0.34463748  0.66353840  0.50352284  1
  Cu  Cu101  1  0.49889750  0.50140072  0.25217498  1
  Cu  Cu102  1  0.50130011  0.16891620  0.74540501  1
  Cu  Cu103  1  0.34755608  0.33590991  0.00766574  1
  Cu  Cu104  1  0.33999971  0.00354389  -0.00596531  1
  Cu  Cu105  1  0.82401706  0.16219316  0.74761286  1
  Cu  Cu106  1  0.66413515  0.66687488  0.50058335  1
  Cu  Cu107  1  0.83004072  0.50519658  0.75465596  1
  Cu  Cu108  1  0.65728810  0.32372219  0.00190625  1
  Cu  Cu109  1  0.82878798  0.83406971  0.25036392  1
  Cu  Cu110  1  -0.00917431  0.32624307  -0.00217244  1
  Cu  Cu111  1  0.50191089  0.16630071  0.25506618  1
  Cu  Cu112  1  0.50561131  0.50044827  0.74690125  1
  Cu  Cu113  1  0.83391962  0.83339156  0.74756995  1
  Cu  Cu114  1  -0.01256709  0.00228695  0.00414454  1
  Se  Se115  1  0.07813507  0.07708346  0.06053407  1
  Se  Se116  1  0.08690143  0.07982828  0.55045656  1
  Se  Se117  1  0.07347195  0.40721034  0.05346171  1
  Se  Se118  1  0.08028522  0.40992291  0.55840797  1
  Se  Se119  1  0.07842015  0.74412552  0.06146248  1
  Se  Se120  1  0.08315426  0.75144609  0.55399489  1
  Se  Se121  1  0.42258785  0.08471317  0.04856334  1
  Se  Se122  1  0.42235595  0.08348780  0.55461779  1
  Se  Se123  1  0.42404961  0.42024837  0.06376775  1
  Se  Se124  1  0.41799392  0.41560522  0.54645501  1
  Se  Se125  1  0.41592307  0.74478422  0.05713285  1
  Se  Se126  1  0.42377289  0.75095200  0.55633496  1
  Se  Se127  1  0.75653756  0.09192299  0.06135411  1
  Se  Se128  1  0.75151499  0.08110290  0.56416742  1
  Se  Se129  1  0.73788614  0.40371857  0.06436535  1
  Se  Se130  1  0.73786582  0.40683726  0.55573276  1
  Se  Se131  1  0.74494272  0.75013720  0.05704272  1
  Se  Se132  1  0.74954567  0.75096897  0.55129290  1
  Se  Se133  1  0.25629775  0.25730617  0.06058535  1
  Se  Se134  1  0.25267211  0.24378803  0.54983988  1
  Se  Se135  1  0.25816281  0.59014406  0.06514850  1
  Se  Se136  1  0.25705978  0.59072478  0.56330989  1
  Se  Se137  1  0.26263065  0.92450143  0.05615821  1
  Se  Se138  1  0.26784708  0.91249014  0.56661728  1
  Se  Se139  1  0.57883013  0.24386030  0.06251579  1
  Se  Se140  1  0.57997735  0.23107940  0.54425883  1
  Se  Se141  1  0.58488185  0.58421102  0.05351967  1
  Se  Se142  1  0.58366573  0.57954884  0.55232292  1
  Se  Se143  1  0.59609977  0.92765048  0.05643479  1
  Se  Se144  1  0.59103411  0.92256278  0.54900989  1
  Se  Se145  1  0.90662325  0.24154685  0.04594207  1
  Se  Se146  1  0.92254705  0.25217672  0.55907437  1
  Se  Se147  1  0.92437942  0.59045586  0.05377427  1
  Se  Se148  1  0.91899534  0.59658969  0.56056307  1
  Se  Se149  1  0.91567484  0.91666282  0.06458345  1
  Se  Se150  1  0.91522017  0.91404795  0.55146684  1
  Se  Se151  1  0.09161114  0.24193300  0.45036000  1
  Se  Se152  1  0.07524748  0.25491573  0.93464464  1
  Se  Se153  1  0.07619033  0.59262236  0.44251391  1
  Se  Se154  1  0.08233398  0.59312508  0.94368018  1
  Se  Se155  1  0.07722382  0.91995996  0.43504139  1
  Se  Se156  1  0.07246659  0.92409861  0.94542265  1
  Se  Se157  1  0.41829609  0.24440013  0.44134930  1
  Se  Se158  1  0.42225005  0.24684955  0.95286522  1
  Se  Se159  1  0.42418990  0.57925200  0.44856867  1
  Se  Se160  1  0.43247461  0.58434017  0.95201504  1
  Se  Se161  1  0.42349948  0.91258534  0.45406635  1
  Se  Se162  1  0.41553221  0.92293535  0.93274676  1
  Se  Se163  1  0.74520992  0.26454804  0.44171985  1
  Se  Se164  1  0.74017655  0.24291706  0.94628104  1
  Se  Se165  1  0.74329358  0.58851449  0.43612555  1
  Se  Se166  1  0.74542750  0.58591266  0.93877971  1
  Se  Se167  1  0.73308544  0.92273736  0.45713723  1
  Se  Se168  1  0.73101418  0.92576828  0.93729617  1
  Se  Se169  1  0.25310203  0.07788600  0.44866481  1
  Se  Se170  1  0.25295683  0.07777866  0.93477861  1
  Se  Se171  1  0.25759550  0.40892306  0.43660133  1
  Se  Se172  1  0.27163141  0.41422871  0.94286852  1
  Se  Se173  1  0.26233829  0.74046588  0.44179411  1
  Se  Se174  1  0.26649518  0.74282954  0.94482262  1
  Se  Se175  1  0.58075548  0.10472682  0.45871968  1
  Se  Se176  1  0.56626147  0.07993235  0.93356231  1
  Se  Se177  1  0.58084501  0.41927688  0.44812240  1
  Se  Se178  1  0.58270098  0.41805652  0.95116165  1
  Se  Se179  1  0.58099399  0.74937934  0.44559437  1
  Se  Se180  1  0.59384587  0.74982389  0.93637480  1
  Se  Se181  1  0.92104418  0.07234928  0.43518303  1
  Se  Se182  1  0.90515992  0.08074650  0.94718018  1
  Se  Se183  1  0.92499708  0.41279607  0.44463372  1
  Se  Se184  1  0.91546689  0.41081542  0.93743274  1
  Se  Se185  1  0.90624355  0.75772287  0.44672625  1
  Se  Se186  1  0.92786207  0.74194633  0.94594278  1
  Se  Se187  1  0.25663585  0.24391442  0.30095249  1
  Se  Se188  1  0.23939194  0.24360382  0.80710040  1
  Se  Se189  1  0.25143689  0.58680878  0.30441934  1
  Se  Se190  1  0.25166779  0.58529471  0.80759385  1
  Se  Se191  1  0.24843683  0.90831525  0.31047566  1
  Se  Se192  1  0.25269455  0.91790716  0.79993040  1
  Se  Se193  1  0.58407094  0.25431346  0.30565840  1
  Se  Se194  1  0.58247312  0.25248487  0.80194823  1
  Se  Se195  1  0.58383605  0.58745259  0.30250008  1
  Se  Se196  1  0.58574642  0.58328188  0.80398254  1
  Se  Se197  1  0.58228435  0.91975309  0.31235963  1
  Se  Se198  1  0.55187002  0.89082765  0.78946848  1
  Se  Se199  1  0.91484283  0.24462061  0.31227657  1
  Se  Se200  1  0.90571072  0.24331283  0.80925085  1
  Se  Se201  1  0.91426768  0.58960126  0.29808295  1
  Se  Se202  1  0.91653721  0.58815018  0.80376450  1
  Se  Se203  1  0.90680493  0.91964367  0.30670362  1
  Se  Se204  1  0.91445682  0.91868492  0.80327067  1
  Se  Se205  1  0.08488577  0.08104695  0.29987497  1
  Se  Se206  1  0.07744916  0.07787109  0.80062130  1
  Se  Se207  1  0.08815754  0.42030358  0.31401437  1
  Se  Se208  1  0.08446785  0.42017989  0.80566126  1
  Se  Se209  1  0.07321367  0.74636603  0.30106576  1
  Se  Se210  1  0.08432970  0.75456715  0.80447954  1
  Se  Se211  1  0.43184771  0.07669569  0.31567429  1
  Se  Se212  1  0.40831531  0.09106306  0.79465464  1
  Se  Se213  1  0.41682798  0.41644897  0.30592958  1
  Se  Se214  1  0.42830722  0.41925742  0.81145446  1
  Se  Se215  1  0.41711427  0.74825568  0.30508182  1
  Se  Se216  1  0.41845021  0.74615753  0.79937847  1
  Se  Se217  1  0.74433086  0.08574923  0.30973503  1
  Se  Se218  1  0.74081402  0.07878111  0.80155640  1
  Se  Se219  1  0.74516401  0.41922947  0.29963353  1
  Se  Se220  1  0.74571928  0.41554661  0.79969996  1
  Se  Se221  1  0.74398076  0.75246785  0.30505882  1
  Se  Se222  1  0.74970174  0.75248317  0.80246849  1
  Se  Se223  1  0.24821586  0.08526774  0.18551740  1
  Se  Se224  1  0.24763060  0.08344394  0.69340576  1
  Se  Se225  1  0.25321005  0.41321765  0.20370801  1
  Se  Se226  1  0.24401920  0.42958673  0.69344216  1
  Se  Se227  1  0.23993972  0.76547950  0.19977430  1
  Se  Se228  1  0.25337440  0.74762667  0.70194393  1
  Se  Se229  1  0.58536171  0.08205257  0.20155881  1
  Se  Se230  1  0.58431618  0.08142698  0.69511580  1
  Se  Se231  1  0.58436821  0.41592806  0.20162485  1
  Se  Se232  1  0.57928161  0.41231767  0.68945995  1
  Se  Se233  1  0.58262495  0.74768724  0.19761947  1
  Se  Se234  1  0.59288160  0.74465343  0.69217458  1
  Se  Se235  1  0.91763100  0.08168808  0.20173454  1
  Se  Se236  1  0.91514090  0.08074334  0.69980447  1
  Se  Se237  1  0.90443686  0.42475142  0.18720988  1
  Se  Se238  1  0.90498038  0.43015394  0.68532587  1
  Se  Se239  1  0.91169004  0.75063291  0.19588538  1
  Se  Se240  1  0.91933796  0.74775507  0.69649518  1
  Se  Se241  1  0.08851478  0.24165567  0.18603240  1
  Se  Se242  1  0.08775437  0.24591765  0.68612000  1
  Se  Se243  1  0.08330316  0.57996893  0.19946534  1
  Se  Se244  1  0.07997243  0.59313211  0.69980091  1
  Se  Se245  1  0.07906770  0.92112535  0.20589654  1
  Se  Se246  1  0.08254065  0.91763110  0.69217879  1
  Se  Se247  1  0.41639866  0.24830541  0.20225099  1
  Se  Se248  1  0.42508172  0.25179540  0.68320524  1
  Se  Se249  1  0.41571731  0.58775697  0.20007838  1
  Se  Se250  1  0.42019523  0.58357257  0.69585175  1
  Se  Se251  1  0.43152285  0.90921747  0.18877509  1
  Se  Se252  1  0.41232333  0.93215485  0.69551359  1
  Se  Se253  1  0.74953169  0.25071813  0.20364216  1
  Se  Se254  1  0.74274096  0.25114601  0.69903361  1
  Se  Se255  1  0.74361540  0.59078772  0.19506151  1
  Se  Se256  1  0.74519034  0.58477140  0.69837759  1
  Se  Se257  1  0.74252851  0.91876521  0.20120516  1
  Se  Se258  1  0.74884015  0.91348146  0.69315923  1
