# generated using pymatgen
data_In86Cu29Se144
_symmetry_space_group_name_H-M   'P 1'
_cell_length_a   17.57947722
_cell_length_b   17.57532989
_cell_length_c   23.43835407
_cell_angle_alpha   90.01764885
_cell_angle_beta   89.99977208
_cell_angle_gamma   90.00508436
_symmetry_Int_Tables_number   1
_chemical_formula_structural   In86Cu29Se144
_chemical_formula_sum   'In86 Cu29 Se144'
_cell_volume   7241.63330817
_cell_formula_units_Z   1
loop_
 _symmetry_equiv_pos_site_id
 _symmetry_equiv_pos_as_xyz
  1  'x, y, z'
loop_
 _atom_site_type_symbol
 _atom_site_label
 _atom_site_symmetry_multiplicity
 _atom_site_fract_x
 _atom_site_fract_y
 _atom_site_fract_z
 _atom_site_occupancy
  In  In0  1  -0.01122904  0.15368702  0.12621574  1
  In  In1  1  -0.00928471  0.16512239  0.62550343  1
  In  In2  1  0.01406483  0.52387180  0.09281649  1
  In  In3  1  0.00178722  0.48542978  0.62727406  1
  In  In4  1  -0.00537391  0.83689504  0.11673475  1
  In  In5  1  0.00564716  0.84008306  0.62221998  1
  In  In6  1  0.33439736  0.16760412  0.12767930  1
  In  In7  1  0.32567943  0.17360524  0.62367999  1
  In  In8  1  0.34455195  0.52012022  0.11482409  1
  In  In9  1  0.32783796  0.50922746  0.62958529  1
  In  In10  1  0.32500967  0.82101776  0.12110099  1
  In  In11  1  0.32670751  0.82487871  0.61766946  1
  In  In12  1  0.66418649  0.16079556  0.12680498  1
  In  In13  1  0.68109382  0.14537045  0.64076031  1
  In  In14  1  0.69027085  0.51654297  0.09876960  1
  In  In15  1  0.66085427  0.50581336  0.63770778  1
  In  In16  1  0.66606126  0.83679750  0.11973230  1
  In  In17  1  0.67042082  0.83206648  0.62377480  1
  In  In18  1  0.16131565  0.00131964  0.39034019  1
  In  In19  1  0.15416329  -0.00689387  0.87076687  1
  In  In20  1  0.15946965  0.33203524  0.38749014  1
  In  In21  1  0.16510529  0.34890112  0.87006608  1
  In  In22  1  0.17258013  0.66114596  0.37606742  1
  In  In23  1  0.16595835  0.66274378  0.87900342  1
  In  In24  1  0.49880197  -0.02831549  0.37910378  1
  In  In25  1  0.50678783  -0.01294363  0.87281322  1
  In  In26  1  0.50102742  0.34402349  0.37814981  1
  In  In27  1  0.53215657  0.34346095  0.87215786  1
  In  In28  1  0.51326234  0.68095093  0.36074275  1
  In  In29  1  0.50013649  0.66821593  0.87479088  1
  In  In30  1  0.83418303  -0.00549681  0.37215553  1
  In  In31  1  0.83487955  -0.00304696  0.87247666  1
  In  In32  1  0.82731360  0.33092739  0.38261570  1
  In  In33  1  0.83201837  0.33302160  0.86886048  1
  In  In34  1  0.83587198  0.68089788  0.36827015  1
  In  In35  1  0.83316961  0.68622709  0.88841759  1
  In  In36  1  0.01459275  0.14959181  0.38833629  1
  In  In37  1  -0.00768728  0.16199381  0.86349989  1
  In  In38  1  0.00738456  0.50931940  0.37727677  1
  In  In39  1  0.00557906  0.49714480  0.87939841  1
  In  In40  1  -0.01712477  0.84502400  0.38240710  1
  In  In41  1  -0.00800557  0.84496146  0.89483538  1
  In  In42  1  0.31938404  0.14582455  0.38364893  1
  In  In43  1  0.33382781  0.16874437  0.87412152  1
  In  In44  1  0.32518350  0.50401246  0.37199140  1
  In  In45  1  0.32434527  0.51656049  0.87689793  1
  In  In46  1  0.34231888  0.82955359  0.38389249  1
  In  In47  1  0.34514691  0.82087209  0.87942298  1
  In  In48  1  0.68741773  0.16360112  0.38470818  1
  In  In49  1  0.66818238  0.16828239  0.85969943  1
  In  In50  1  0.65973699  0.50348161  0.37142244  1
  In  In51  1  0.66500638  0.50262131  0.87914058  1
  In  In52  1  0.66754094  0.83234085  0.37205839  1
  In  In53  1  0.66943064  0.83149011  0.87348163  1
  In  In54  1  0.16041913  -0.01787449  0.12374887  1
  In  In55  1  0.15830119  -0.01595050  0.61696753  1
  In  In56  1  0.15319237  0.33814146  0.12509949  1
  In  In57  1  0.14045943  0.31572262  0.60554681  1
  In  In58  1  0.16554684  0.68350011  0.11599093  1
  In  In59  1  0.17363689  0.67126369  0.62046824  1
  In  In60  1  0.52075692  -0.00078093  0.12864111  1
  In  In61  1  0.51968538  0.00108755  0.62623670  1
  In  In62  1  0.49746387  0.34081884  0.11718429  1
  In  In63  1  0.50168869  0.33217183  0.63453407  1
  In  In64  1  0.50226805  0.67250478  0.12203719  1
  In  In65  1  0.49283297  0.66769024  0.63472426  1
  In  In66  1  0.84792639  -0.01933735  0.14260616  1
  In  In67  1  0.83180953  -0.00156494  0.62541965  1
  In  In68  1  0.82928465  0.34790883  0.11909508  1
  In  In69  1  0.84579510  0.32052530  0.63620546  1
  In  In70  1  0.82970134  0.66537811  0.11513266  1
  In  In71  1  0.81890320  0.66619297  0.62696128  1
  In  In72  1  0.49764461  0.50367451  0.50535973  1
  In  In73  1  0.33246600  -0.00898369  0.25899893  1
  In  In74  1  0.33817483  -0.00359672  0.74414621  1
  In  In75  1  -0.00261090  0.67027505  0.76247151  1
  In  In76  1  0.83236030  0.16485297  -0.01015827  1
  In  In77  1  0.32974211  0.33929081  0.74492603  1
  In  In78  1  -0.00575125  0.33405172  0.25163863  1
  In  In79  1  0.84007843  0.50234449  0.50353986  1
  In  In80  1  0.49931619  0.16430724  0.50634147  1
  In  In81  1  0.67069581  0.33584351  0.23977128  1
  In  In82  1  0.17079329  0.16863845  0.00409770  1
  In  In83  1  0.50089570  0.16824846  -0.00001848  1
  In  In84  1  0.33387010  0.33488786  0.25449759  1
  In  In85  1  -0.00202149  0.67527622  0.23986513  1
  Cu  Cu86  1  0.32705101  0.33216677  0.49868880  1
  Cu  Cu87  1  0.83364385  0.16639655  0.74779182  1
  Cu  Cu88  1  0.67138367  -0.00415941  0.50113858  1
  Cu  Cu89  1  0.50209784  0.83148487  0.24683829  1
  Cu  Cu90  1  0.17701151  0.50693483  0.24686931  1
  Cu  Cu91  1  0.83947827  0.15630009  0.25656976  1
  Cu  Cu92  1  0.16198283  0.50217108  0.75063975  1
  Cu  Cu93  1  0.15758640  0.83119553  0.24983856  1
  Cu  Cu94  1  0.17055588  0.82941910  0.74604373  1
  Cu  Cu95  1  0.83430371  0.50372270  0.23655461  1
  Cu  Cu96  1  0.65713687  0.67500797  -0.00268942  1
  Cu  Cu97  1  0.33315281  0.66905564  -0.00098121  1
  Cu  Cu98  1  0.00649127  0.67181080  0.49972567  1
  Cu  Cu99  1  0.34010516  0.66521820  0.50107309  1
  Cu  Cu100  1  0.67336988  -0.00588512  -0.00081695  1
  Cu  Cu101  1  0.50907480  0.82854378  0.75187285  1
  Cu  Cu102  1  0.66700876  0.67746408  0.49487712  1
  Cu  Cu103  1  0.15564621  0.16560813  0.74471048  1
  Cu  Cu104  1  0.83513342  0.83626263  0.75249398  1
  Cu  Cu105  1  0.67882718  0.33012884  0.51298939  1
  Cu  Cu106  1  0.50630301  0.51885570  0.23714918  1
  Cu  Cu107  1  0.00223063  0.33112842  -0.00624248  1
  Cu  Cu108  1  0.33537840  0.34823791  -0.00770899  1
  Cu  Cu109  1  0.15994165  0.15135215  0.25908336  1
  Cu  Cu110  1  0.50005815  0.49999474  0.75756653  1
  Cu  Cu111  1  0.33184970  -0.01016810  0.00026875  1
  Cu  Cu112  1  0.82509673  0.50129654  0.75451496  1
  Cu  Cu113  1  -0.01034425  -0.00072803  0.50346996  1
  Cu  Cu114  1  0.51151370  0.16751187  0.25930728  1
  Se  Se115  1  0.07787789  0.07593532  0.05719542  1
  Se  Se116  1  0.07476603  0.07889796  0.55836047  1
  Se  Se117  1  0.08996281  0.41401533  0.04442167  1
  Se  Se118  1  0.09162902  0.43280314  0.55087796  1
  Se  Se119  1  0.05304335  0.73066642  0.05333646  1
  Se  Se120  1  0.08792087  0.75427044  0.55508264  1
  Se  Se121  1  0.41033508  0.07383075  0.06041960  1
  Se  Se122  1  0.41144834  0.07462039  0.56616204  1
  Se  Se123  1  0.41895928  0.42579002  0.04959109  1
  Se  Se124  1  0.40783601  0.40681171  0.56222937  1
  Se  Se125  1  0.41721679  0.75299544  0.05171575  1
  Se  Se126  1  0.42387697  0.74532489  0.55599493  1
  Se  Se127  1  0.75039928  0.07850918  0.05844938  1
  Se  Se128  1  0.74893303  0.08303576  0.55528841  1
  Se  Se129  1  0.74338175  0.40279588  0.04188049  1
  Se  Se130  1  0.75016898  0.41986610  0.57034159  1
  Se  Se131  1  0.74715614  0.75358248  0.04987580  1
  Se  Se132  1  0.75453231  0.75231063  0.55136295  1
  Se  Se133  1  0.26350523  0.26578103  0.05899455  1
  Se  Se134  1  0.24562241  0.24447399  0.54816642  1
  Se  Se135  1  0.24420888  0.58985915  0.05243366  1
  Se  Se136  1  0.25377250  0.58299921  0.55196332  1
  Se  Se137  1  0.24605566  0.90950777  0.05298810  1
  Se  Se138  1  0.25486699  0.91711042  0.55212021  1
  Se  Se139  1  0.59592792  0.25681850  0.05687525  1
  Se  Se140  1  0.59131667  0.25115039  0.56741286  1
  Se  Se141  1  0.57780410  0.58679986  0.04972952  1
  Se  Se142  1  0.59302021  0.59393568  0.55841686  1
  Se  Se143  1  0.57944299  0.91757197  0.04863478  1
  Se  Se144  1  0.58622757  0.91352093  0.55252405  1
  Se  Se145  1  0.92384655  0.25494738  0.05702218  1
  Se  Se146  1  0.92044293  0.25795762  0.55611112  1
  Se  Se147  1  0.88757757  0.56054746  0.04854614  1
  Se  Se148  1  0.92723830  0.59485849  0.56490845  1
  Se  Se149  1  0.91028617  0.92501091  0.05371005  1
  Se  Se150  1  0.91008900  0.91148570  0.55607544  1
  Se  Se151  1  0.07649700  0.25086050  0.45234917  1
  Se  Se152  1  0.08176173  0.24948747  0.93500382  1
  Se  Se153  1  0.08871803  0.58461715  0.44918040  1
  Se  Se154  1  0.08543620  0.57923698  0.94743337  1
  Se  Se155  1  0.07519625  0.91310798  0.45255904  1
  Se  Se156  1  0.09511090  0.91743755  0.95251640  1
  Se  Se157  1  0.41186480  0.25417730  0.43972788  1
  Se  Se158  1  0.41452975  0.26157222  0.93792700  1
  Se  Se159  1  0.41968264  0.58970097  0.43505583  1
  Se  Se160  1  0.41673049  0.58644478  0.94520465  1
  Se  Se161  1  0.39823563  0.93251226  0.45120660  1
  Se  Se162  1  0.41989318  0.91607991  0.94477172  1
  Se  Se163  1  0.75987886  0.24710292  0.45855185  1
  Se  Se164  1  0.73630670  0.25457386  0.93739294  1
  Se  Se165  1  0.74550803  0.58685671  0.44080072  1
  Se  Se166  1  0.74451278  0.59438985  0.94530300  1
  Se  Se167  1  0.74948036  0.91367598  0.44251937  1
  Se  Se168  1  0.75506965  0.91368344  0.94268416  1
  Se  Se169  1  0.23906613  0.08412913  0.46093509  1
  Se  Se170  1  0.25677571  0.07573289  0.94098312  1
  Se  Se171  1  0.25158338  0.42085066  0.44419204  1
  Se  Se172  1  0.24434078  0.42525108  0.94265292  1
  Se  Se173  1  0.25331410  0.74456738  0.44577732  1
  Se  Se174  1  0.24863794  0.75098998  0.94502095  1
  Se  Se175  1  0.58658555  0.07619512  0.44057765  1
  Se  Se176  1  0.59429069  0.07918256  0.94014457  1
  Se  Se177  1  0.59818081  0.41002716  0.45178393  1
  Se  Se178  1  0.57860522  0.42845238  0.95196565  1
  Se  Se179  1  0.57765504  0.75533479  0.44322474  1
  Se  Se180  1  0.57701873  0.75906586  0.94237665  1
  Se  Se181  1  0.90853592  0.08035228  0.44553029  1
  Se  Se182  1  0.93167460  0.07381450  0.94218738  1
  Se  Se183  1  0.92758490  0.41273047  0.44164889  1
  Se  Se184  1  0.91571407  0.41005261  0.94049461  1
  Se  Se185  1  0.91407720  0.74541847  0.44810116  1
  Se  Se186  1  0.94225702  0.73215147  0.95540799  1
  Se  Se187  1  0.24217006  0.23978286  0.31212487  1
  Se  Se188  1  0.23809534  0.24342086  0.80509592  1
  Se  Se189  1  0.25707841  0.59190916  0.29907090  1
  Se  Se190  1  0.24427279  0.58869564  0.80087282  1
  Se  Se191  1  0.23669674  0.90529689  0.31524055  1
  Se  Se192  1  0.25206043  0.90869099  0.80864207  1
  Se  Se193  1  0.58942364  0.25376916  0.31555366  1
  Se  Se194  1  0.56969318  0.24257258  0.79966588  1
  Se  Se195  1  0.59340759  0.58910066  0.29726428  1
  Se  Se196  1  0.58449414  0.58502597  0.80702862  1
  Se  Se197  1  0.58326573  0.91539116  0.30062627  1
  Se  Se198  1  0.59181128  0.91602971  0.80012505  1
  Se  Se199  1  0.91473807  0.24186282  0.31666064  1
  Se  Se200  1  0.91620755  0.25357253  0.79896418  1
  Se  Se201  1  0.91460882  0.57714104  0.30293569  1
  Se  Se202  1  0.90450249  0.57936613  0.81758948  1
  Se  Se203  1  0.90607308  0.90525944  0.30168978  1
  Se  Se204  1  0.92304467  0.91011670  0.80938451  1
  Se  Se205  1  0.07975098  0.06683540  0.31044400  1
  Se  Se206  1  0.08005316  0.07790258  0.79996319  1
  Se  Se207  1  0.09617954  0.42447988  0.30607028  1
  Se  Se208  1  0.07546553  0.41790602  0.79936238  1
  Se  Se209  1  0.08001655  0.75277856  0.31402416  1
  Se  Se210  1  0.08847611  0.76441087  0.81514758  1
  Se  Se211  1  0.42483776  0.08737962  0.31515609  1
  Se  Se212  1  0.42278862  0.08517734  0.81023297  1
  Se  Se213  1  0.43248924  0.43375709  0.30144309  1
  Se  Se214  1  0.41565560  0.41880587  0.81526243  1
  Se  Se215  1  0.41234500  0.75680963  0.30204230  1
  Se  Se216  1  0.41857679  0.74802780  0.80075824  1
  Se  Se217  1  0.74601087  0.08095409  0.30559523  1
  Se  Se218  1  0.75457402  0.07831132  0.80122102  1
  Se  Se219  1  0.76195486  0.42480055  0.30508534  1
  Se  Se220  1  0.74169066  0.41630599  0.80641208  1
  Se  Se221  1  0.73428542  0.73652906  0.30308771  1
  Se  Se222  1  0.75671469  0.74943674  0.80605565  1
  Se  Se223  1  0.24505627  0.08307506  0.19387942  1
  Se  Se224  1  0.23982718  0.08553050  0.68931307  1
  Se  Se225  1  0.25079932  0.42141100  0.18544004  1
  Se  Se226  1  0.23179040  0.41797851  0.68496494  1
  Se  Se227  1  0.24242289  0.75019611  0.19657522  1
  Se  Se228  1  0.25484412  0.74593646  0.69530327  1
  Se  Se229  1  0.58990133  0.08440644  0.20343713  1
  Se  Se230  1  0.58155209  0.08052420  0.70501776  1
  Se  Se231  1  0.58329137  0.42874444  0.18197492  1
  Se  Se232  1  0.58137717  0.41584371  0.70273488  1
  Se  Se233  1  0.58614944  0.75272843  0.19139692  1
  Se  Se234  1  0.59011853  0.74610749  0.69431091  1
  Se  Se235  1  0.92708996  0.07491780  0.20616923  1
  Se  Se236  1  0.91503292  0.07892370  0.69654849  1
  Se  Se237  1  0.92455549  0.42885542  0.18162115  1
  Se  Se238  1  0.91195783  0.42223806  0.70096846  1
  Se  Se239  1  0.89853564  0.76038076  0.18809861  1
  Se  Se240  1  0.91355800  0.75266975  0.69164134  1
  Se  Se241  1  0.08818812  0.23757640  0.19494424  1
  Se  Se242  1  0.07639826  0.25292424  0.69267694  1
  Se  Se243  1  0.08785548  0.57640368  0.18505270  1
  Se  Se244  1  0.08220624  0.58711012  0.69159996  1
  Se  Se245  1  0.07433237  0.91113618  0.19490795  1
  Se  Se246  1  0.08457083  0.91501397  0.69809237  1
  Se  Se247  1  0.43115312  0.24381766  0.19545515  1
  Se  Se248  1  0.42016272  0.23615950  0.69773300  1
  Se  Se249  1  0.41167298  0.59778679  0.19372231  1
  Se  Se250  1  0.41462862  0.57876447  0.70192367  1
  Se  Se251  1  0.41876113  0.91374802  0.18727649  1
  Se  Se252  1  0.42738881  0.90403105  0.68690694  1
  Se  Se253  1  0.76922575  0.24020752  0.19022067  1
  Se  Se254  1  0.74517896  0.25330927  0.69997541  1
  Se  Se255  1  0.74613158  0.58441546  0.18735574  1
  Se  Se256  1  0.74543125  0.58981261  0.70382634  1
  Se  Se257  1  0.72248149  0.94020316  0.18804513  1
  Se  Se258  1  0.75031766  0.91492383  0.69548291  1
