# generated using pymatgen
data_In86Cu29Se144
_symmetry_space_group_name_H-M   'P 1'
_cell_length_a   17.57960310
_cell_length_b   17.57670610
_cell_length_c   23.44135015
_cell_angle_alpha   89.98779001
_cell_angle_beta   90.00835781
_cell_angle_gamma   90.01854598
_symmetry_Int_Tables_number   1
_chemical_formula_structural   In86Cu29Se144
_chemical_formula_sum   'In86 Cu29 Se144'
_cell_volume   7243.17772137
_cell_formula_units_Z   1
loop_
 _symmetry_equiv_pos_site_id
 _symmetry_equiv_pos_as_xyz
  1  'x, y, z'
loop_
 _atom_site_type_symbol
 _atom_site_label
 _atom_site_symmetry_multiplicity
 _atom_site_fract_x
 _atom_site_fract_y
 _atom_site_fract_z
 _atom_site_occupancy
  In  In0  1  -0.00674529  0.16006147  0.11762515  1
  In  In1  1  0.00000249  0.16777712  0.61966782  1
  In  In2  1  0.00450778  0.48248816  0.11954463  1
  In  In3  1  0.00432413  0.48566048  0.62479911  1
  In  In4  1  0.00889104  0.83855700  0.13249971  1
  In  In5  1  0.00491041  0.83921834  0.61779246  1
  In  In6  1  0.33580059  0.17005775  0.12830006  1
  In  In7  1  0.32845538  0.17651012  0.62058287  1
  In  In8  1  0.33174620  0.49810433  0.12736926  1
  In  In9  1  0.34041829  0.50656387  0.61793566  1
  In  In10  1  0.34027675  0.83132142  0.14609866  1
  In  In11  1  0.32470742  0.81877989  0.61721869  1
  In  In12  1  0.66820688  0.16612563  0.12481480  1
  In  In13  1  0.67653752  0.15287718  0.64107991  1
  In  In14  1  0.64705319  0.50148191  0.12150503  1
  In  In15  1  0.65638138  0.49979436  0.62585635  1
  In  In16  1  0.65845260  0.86020371  0.13938980  1
  In  In17  1  0.67457654  0.84237020  0.61249027  1
  In  In18  1  0.16566000  0.00016327  0.37769607  1
  In  In19  1  0.17977337  0.00340067  0.87781422  1
  In  In20  1  0.17381339  0.32272573  0.37974294  1
  In  In21  1  0.16464145  0.33682779  0.87555439  1
  In  In22  1  0.18001060  0.65820382  0.38349312  1
  In  In23  1  0.17106726  0.64907006  0.86531332  1
  In  In24  1  0.48845005  -0.02141924  0.35315796  1
  In  In25  1  0.51431374  0.00213962  0.87585233  1
  In  In26  1  0.50333295  0.33823948  0.37184435  1
  In  In27  1  0.50719076  0.32172829  0.88669702  1
  In  In28  1  0.48298927  0.68408167  0.38124506  1
  In  In29  1  0.47981784  0.67549462  0.87356536  1
  In  In30  1  0.83512287  -0.00075002  0.37334822  1
  In  In31  1  0.82745929  0.01921756  0.87731277  1
  In  In32  1  0.81234426  0.33005028  0.37409318  1
  In  In33  1  0.81501730  0.30392960  0.85502336  1
  In  In34  1  0.84207070  0.67460645  0.37993944  1
  In  In35  1  0.82688493  0.66576562  0.86739720  1
  In  In36  1  0.00729447  0.15377537  0.38170750  1
  In  In37  1  -0.00669454  0.17771665  0.87981656  1
  In  In38  1  0.00511052  0.51039189  0.37852850  1
  In  In39  1  0.02779126  0.48173221  0.87587392  1
  In  In40  1  -0.00965538  0.85061058  0.38484458  1
  In  In41  1  -0.00476471  0.82936849  0.87359559  1
  In  In42  1  0.32466645  0.15651296  0.36712733  1
  In  In43  1  0.32975677  0.17088886  0.89225408  1
  In  In44  1  0.33393806  0.50038490  0.37353371  1
  In  In45  1  0.32563021  0.50713191  0.87826142  1
  In  In46  1  0.33570862  0.82909497  0.37373972  1
  In  In47  1  0.34554551  0.82205851  0.86517181  1
  In  In48  1  0.66848885  0.16720948  0.37337863  1
  In  In49  1  0.66357273  0.16241335  0.87857454  1
  In  In50  1  0.65828129  0.48310836  0.37405836  1
  In  In51  1  0.66881207  0.48540703  0.87833861  1
  In  In52  1  0.65888346  0.84599009  0.37494077  1
  In  In53  1  0.65478977  0.86073115  0.87022001  1
  In  In54  1  0.16287162  0.00486173  0.13571948  1
  In  In55  1  0.16479846  -0.00434714  0.61506737  1
  In  In56  1  0.17429982  0.34321301  0.11784976  1
  In  In57  1  0.16117380  0.32874600  0.61705583  1
  In  In58  1  0.17864655  0.66828679  0.12661308  1
  In  In59  1  0.18148544  0.67470766  0.62125189  1
  In  In60  1  0.49086924  0.00825393  0.13523663  1
  In  In61  1  0.51412213  0.00219770  0.62292134  1
  In  In62  1  0.50003001  0.33394278  0.12725091  1
  In  In63  1  0.49951786  0.34496270  0.62576091  1
  In  In64  1  0.49296797  0.65447884  0.12339622  1
  In  In65  1  0.49394995  0.66123865  0.61651494  1
  In  In66  1  0.81601510  0.02688281  0.14797177  1
  In  In67  1  0.82847054  0.00232824  0.61812494  1
  In  In68  1  0.83364472  0.31391435  0.12339767  1
  In  In69  1  0.84074909  0.31870854  0.63653519  1
  In  In70  1  0.83060888  0.67552741  0.12557252  1
  In  In71  1  0.82323141  0.67355016  0.61933445  1
  In  In72  1  0.65778617  0.67414984  0.26061406  1
  In  In73  1  0.00549957  0.67135863  0.25378319  1
  In  In74  1  0.83987997  0.48997098  -0.00991066  1
  In  In75  1  0.83107432  0.84304276  0.00800690  1
  In  In76  1  0.66275423  0.66450170  0.74408868  1
  In  In77  1  0.50022064  0.83826459  0.00494918  1
  In  In78  1  -0.00048627  0.00209843  0.73952687  1
  In  In79  1  0.34066437  -0.00704486  0.74968424  1
  In  In80  1  0.50052308  0.16614247  0.49640803  1
  In  In81  1  0.16959287  0.83556772  0.00323591  1
  In  In82  1  0.00076481  0.32765637  0.24804333  1
  In  In83  1  0.00477276  0.66379435  0.74469964  1
  In  In84  1  0.33280234  0.33768960  0.75151624  1
  In  In85  1  0.83373239  0.50045976  0.50042198  1
  Cu  Cu86  1  0.32742259  0.65837578  -0.00031640  1
  Cu  Cu87  1  0.66680707  0.00407513  0.49489377  1
  Cu  Cu88  1  0.17218835  0.16724784  0.25057843  1
  Cu  Cu89  1  0.66864064  0.32865859  0.00103616  1
  Cu  Cu90  1  0.00868889  0.67175851  0.49987203  1
  Cu  Cu91  1  0.84513145  0.49250846  0.75260962  1
  Cu  Cu92  1  0.49153258  0.49879319  0.24846054  1
  Cu  Cu93  1  0.65781371  0.67227069  0.00331485  1
  Cu  Cu94  1  -0.00316238  0.00272378  0.49947894  1
  Cu  Cu95  1  0.17261308  0.49841011  0.25075934  1
  Cu  Cu96  1  0.00026718  0.65785255  -0.00478402  1
  Cu  Cu97  1  0.33402865  -0.00406019  0.49085093  1
  Cu  Cu98  1  0.50497708  0.16680686  0.75782090  1
  Cu  Cu99  1  0.33608547  0.00129281  0.00753865  1
  Cu  Cu100  1  0.66197911  0.66828049  0.49833895  1
  Cu  Cu101  1  0.16699809  0.83673613  0.26019928  1
  Cu  Cu102  1  0.16241472  0.16466318  0.74627365  1
  Cu  Cu103  1  0.66477394  0.32847310  0.50233765  1
  Cu  Cu104  1  0.32895212  0.33762262  0.49857520  1
  Cu  Cu105  1  -0.00307630  0.32948925  0.50049492  1
  Cu  Cu106  1  0.83291779  0.16381993  0.25145065  1
  Cu  Cu107  1  0.33784713  0.33606051  0.00548058  1
  Cu  Cu108  1  0.81957050  0.50063509  0.24788424  1
  Cu  Cu109  1  0.00137426  0.00735846  0.00431331  1
  Cu  Cu110  1  0.00804816  0.32676064  -0.00562137  1
  Cu  Cu111  1  0.33575831  0.66535600  0.49659433  1
  Cu  Cu112  1  0.50540935  0.17320538  0.24925057  1
  Cu  Cu113  1  0.82699246  0.84478283  0.74344461  1
  Cu  Cu114  1  0.50190177  0.49816149  0.75221391  1
  Se  Se115  1  0.09210076  0.08279012  0.05734644  1
  Se  Se116  1  0.08328251  0.08496627  0.55183415  1
  Se  Se117  1  0.08757078  0.41688532  0.04428058  1
  Se  Se118  1  0.08261772  0.41619329  0.54706485  1
  Se  Se119  1  0.07452239  0.74066061  0.05839934  1
  Se  Se120  1  0.09097676  0.75421702  0.55452316  1
  Se  Se121  1  0.41907203  0.08640035  0.05824421  1
  Se  Se122  1  0.40794896  0.07611399  0.55766954  1
  Se  Se123  1  0.41953013  0.42092517  0.05841122  1
  Se  Se124  1  0.41827042  0.41571391  0.55063537  1
  Se  Se125  1  0.40184402  0.74738427  0.05914310  1
  Se  Se126  1  0.41976754  0.75127034  0.54765582  1
  Se  Se127  1  0.75953525  0.08748647  0.05949969  1
  Se  Se128  1  0.74208809  0.08915862  0.55369254  1
  Se  Se129  1  0.74843966  0.41435164  0.06031342  1
  Se  Se130  1  0.74716884  0.41050045  0.56175075  1
  Se  Se131  1  0.73169915  0.75449598  0.06396257  1
  Se  Se132  1  0.75179534  0.75232879  0.54412368  1
  Se  Se133  1  0.25324193  0.24982840  0.05585442  1
  Se  Se134  1  0.24668833  0.24853243  0.54735703  1
  Se  Se135  1  0.24522406  0.57790938  0.05566711  1
  Se  Se136  1  0.25091013  0.58325943  0.55022301  1
  Se  Se137  1  0.26064936  0.91683286  0.06817418  1
  Se  Se138  1  0.25315094  0.91519473  0.55036038  1
  Se  Se139  1  0.58412248  0.25150384  0.05845703  1
  Se  Se140  1  0.58584365  0.24870297  0.56470400  1
  Se  Se141  1  0.57368961  0.58302669  0.04731671  1
  Se  Se142  1  0.58421760  0.57979500  0.55074208  1
  Se  Se143  1  0.58757812  0.93469146  0.05863519  1
  Se  Se144  1  0.58213610  0.92001964  0.54661280  1
  Se  Se145  1  0.91937193  0.24964708  0.04809065  1
  Se  Se146  1  0.91065152  0.24957921  0.55345242  1
  Se  Se147  1  0.91877678  0.58492647  0.05931790  1
  Se  Se148  1  0.92613013  0.59129897  0.56083757  1
  Se  Se149  1  0.92555045  0.92691378  0.06633894  1
  Se  Se150  1  0.91442218  0.91768716  0.55335177  1
  Se  Se151  1  0.08247859  0.24817527  0.44637866  1
  Se  Se152  1  0.09503001  0.24290097  0.94444027  1
  Se  Se153  1  0.08808724  0.58156538  0.45112481  1
  Se  Se154  1  0.08922480  0.58177219  0.94346403  1
  Se  Se155  1  0.08675161  0.91916915  0.45129676  1
  Se  Se156  1  0.07443514  0.92248615  0.94213207  1
  Se  Se157  1  0.40732240  0.25400144  0.43771022  1
  Se  Se158  1  0.42080977  0.24718090  0.95718257  1
  Se  Se159  1  0.41918207  0.58004362  0.44416159  1
  Se  Se160  1  0.41750985  0.58369333  0.94598245  1
  Se  Se161  1  0.42191252  0.91599730  0.44020758  1
  Se  Se162  1  0.40609767  0.92035927  0.94041730  1
  Se  Se163  1  0.74721668  0.24494045  0.44970219  1
  Se  Se164  1  0.75206990  0.24816772  0.94508447  1
  Se  Se165  1  0.74155162  0.58640997  0.43707430  1
  Se  Se166  1  0.74345826  0.59364208  0.94487018  1
  Se  Se167  1  0.75072030  0.91785028  0.44399115  1
  Se  Se168  1  0.74136640  0.92966150  0.94612632  1
  Se  Se169  1  0.24950836  0.08576706  0.44618477  1
  Se  Se170  1  0.24685959  0.08114033  0.95610631  1
  Se  Se171  1  0.24675826  0.42039403  0.44316613  1
  Se  Se172  1  0.25493813  0.41178481  0.94415985  1
  Se  Se173  1  0.25188223  0.75437697  0.44806128  1
  Se  Se174  1  0.25389413  0.74515322  0.93876426  1
  Se  Se175  1  0.57855396  0.07238822  0.43236478  1
  Se  Se176  1  0.57227116  0.09198636  0.94889722  1
  Se  Se177  1  0.57986093  0.41202126  0.45123266  1
  Se  Se178  1  0.58476148  0.41612306  0.95210557  1
  Se  Se179  1  0.58381732  0.75435611  0.44310241  1
  Se  Se180  1  0.58773262  0.75226653  0.93615009  1
  Se  Se181  1  0.91046675  0.08471876  0.44732076  1
  Se  Se182  1  0.91854274  0.08661462  0.94780387  1
  Se  Se183  1  0.91929812  0.40858889  0.43635372  1
  Se  Se184  1  0.92310608  0.39817162  0.92930551  1
  Se  Se185  1  0.91927141  0.75364930  0.45193001  1
  Se  Se186  1  0.91447497  0.74115313  0.94434157  1
  Se  Se187  1  0.25318329  0.25466923  0.30161474  1
  Se  Se188  1  0.24859632  0.23677095  0.80799920  1
  Se  Se189  1  0.25155058  0.58550854  0.30361978  1
  Se  Se190  1  0.26283750  0.58335221  0.79678818  1
  Se  Se191  1  0.25309028  0.92092656  0.30954629  1
  Se  Se192  1  0.24278719  0.90651072  0.80740810  1
  Se  Se193  1  0.58800637  0.25405651  0.30591667  1
  Se  Se194  1  0.58589394  0.25375853  0.80890066  1
  Se  Se195  1  0.56972303  0.57625108  0.31389789  1
  Se  Se196  1  0.58102979  0.57903661  0.81416856  1
  Se  Se197  1  0.59337029  0.91590284  0.29189409  1
  Se  Se198  1  0.55584221  0.90674657  0.79821600  1
  Se  Se199  1  0.91152835  0.24498486  0.31368427  1
  Se  Se200  1  0.92727839  0.24863408  0.79821598  1
  Se  Se201  1  0.90617669  0.57520448  0.30585824  1
  Se  Se202  1  0.92038890  0.57495243  0.81313751  1
  Se  Se203  1  0.92462785  0.92323806  0.30485017  1
  Se  Se204  1  0.90917952  0.91626668  0.80826313  1
  Se  Se205  1  0.08788896  0.08547276  0.30488236  1
  Se  Se206  1  0.08781060  0.08324009  0.80947625  1
  Se  Se207  1  0.08652115  0.42181897  0.30913856  1
  Se  Se208  1  0.09728818  0.41259163  0.79582280  1
  Se  Se209  1  0.08905418  0.75479842  0.32131309  1
  Se  Se210  1  0.08989102  0.75573782  0.80804518  1
  Se  Se211  1  0.42023771  0.08860673  0.29989990  1
  Se  Se212  1  0.41435787  0.09309690  0.81452936  1
  Se  Se213  1  0.41226666  0.41317714  0.30414813  1
  Se  Se214  1  0.42603889  0.41793601  0.81597345  1
  Se  Se215  1  0.41512185  0.75143787  0.29942339  1
  Se  Se216  1  0.42057860  0.74723890  0.78970176  1
  Se  Se217  1  0.74873803  0.08156722  0.30513318  1
  Se  Se218  1  0.74164626  0.08254688  0.80435237  1
  Se  Se219  1  0.74116656  0.41242066  0.29904189  1
  Se  Se220  1  0.75096772  0.41816027  0.80277202  1
  Se  Se221  1  0.75951753  0.75874722  0.31156374  1
  Se  Se222  1  0.74857631  0.76383621  0.80538880  1
  Se  Se223  1  0.25672035  0.08276078  0.19843845  1
  Se  Se224  1  0.24657595  0.08527023  0.68938461  1
  Se  Se225  1  0.25125069  0.41187716  0.19694509  1
  Se  Se226  1  0.24878362  0.41877479  0.68330450  1
  Se  Se227  1  0.24374193  0.74944613  0.20393713  1
  Se  Se228  1  0.25791887  0.74546980  0.69885081  1
  Se  Se229  1  0.58674254  0.08632096  0.19721829  1
  Se  Se230  1  0.58063528  0.07721292  0.70431534  1
  Se  Se231  1  0.58189960  0.41922480  0.19806987  1
  Se  Se232  1  0.58521480  0.41505666  0.70000138  1
  Se  Se233  1  0.57408316  0.75157901  0.18770573  1
  Se  Se234  1  0.58402516  0.75424650  0.67915022  1
  Se  Se235  1  0.92940595  0.08907781  0.20215288  1
  Se  Se236  1  0.90396039  0.09446541  0.69059256  1
  Se  Se237  1  0.90514022  0.42128862  0.19106095  1
  Se  Se238  1  0.92523948  0.40975659  0.69788233  1
  Se  Se239  1  0.90994715  0.75860909  0.19675798  1
  Se  Se240  1  0.90847502  0.75864026  0.69032300  1
  Se  Se241  1  0.09202771  0.24420746  0.18595893  1
  Se  Se242  1  0.08371901  0.24752937  0.69025264  1
  Se  Se243  1  0.08542283  0.57284865  0.19039780  1
  Se  Se244  1  0.09408712  0.57705108  0.68521027  1
  Se  Se245  1  0.08452697  0.91858213  0.20519451  1
  Se  Se246  1  0.09659166  0.90638150  0.69312883  1
  Se  Se247  1  0.41706987  0.25415768  0.19787168  1
  Se  Se248  1  0.42514112  0.24212139  0.69380641  1
  Se  Se249  1  0.40936701  0.58584023  0.19803394  1
  Se  Se250  1  0.42408127  0.57829233  0.69283273  1
  Se  Se251  1  0.42508208  0.91675741  0.20629845  1
  Se  Se252  1  0.41980745  0.91070866  0.67951855  1
  Se  Se253  1  0.74991021  0.24861344  0.19861262  1
  Se  Se254  1  0.73094180  0.26614304  0.69706997  1
  Se  Se255  1  0.74446905  0.58519035  0.18931592  1
  Se  Se256  1  0.76368713  0.57249518  0.69188699  1
  Se  Se257  1  0.76887736  0.90724417  0.19985686  1
  Se  Se258  1  0.74331450  0.92451182  0.68972186  1
