# generated using pymatgen
data_In86Cu29Se144
_symmetry_space_group_name_H-M   'P 1'
_cell_length_a   17.59505355
_cell_length_b   17.59327036
_cell_length_c   23.45427432
_cell_angle_alpha   89.97938218
_cell_angle_beta   90.00135568
_cell_angle_gamma   89.99455261
_symmetry_Int_Tables_number   1
_chemical_formula_structural   In86Cu29Se144
_chemical_formula_sum   'In86 Cu29 Se144'
_cell_volume   7260.37645577
_cell_formula_units_Z   1
loop_
 _symmetry_equiv_pos_site_id
 _symmetry_equiv_pos_as_xyz
  1  'x, y, z'
loop_
 _atom_site_type_symbol
 _atom_site_label
 _atom_site_symmetry_multiplicity
 _atom_site_fract_x
 _atom_site_fract_y
 _atom_site_fract_z
 _atom_site_occupancy
  In  In0  1  0.01218506  0.18770538  0.10082723  1
  In  In1  1  -0.00242885  0.16829127  0.63789065  1
  In  In2  1  -0.03049124  0.48446173  0.10098745  1
  In  In3  1  -0.00899844  0.50772339  0.63362066  1
  In  In4  1  0.00476384  0.82778768  0.10268769  1
  In  In5  1  -0.00622478  0.84073454  0.64597054  1
  In  In6  1  0.33078434  0.15906618  0.12348699  1
  In  In7  1  0.34473456  0.17395870  0.62849561  1
  In  In8  1  0.34243369  0.49142325  0.14091705  1
  In  In9  1  0.32885448  0.50390194  0.63396054  1
  In  In10  1  0.33012629  0.83890509  0.12562584  1
  In  In11  1  0.31766303  0.83020026  0.63108165  1
  In  In12  1  0.66793291  0.16973855  0.12182099  1
  In  In13  1  0.66919441  0.16858911  0.63700760  1
  In  In14  1  0.67671644  0.49447353  0.13394013  1
  In  In15  1  0.68162899  0.48569298  0.63175195  1
  In  In16  1  0.67397294  0.82690294  0.12640071  1
  In  In17  1  0.67504942  0.82712628  0.63724650  1
  In  In18  1  0.16810321  -0.00773779  0.36943061  1
  In  In19  1  0.15815421  0.00576579  0.88068046  1
  In  In20  1  0.16697780  0.33050204  0.35904501  1
  In  In21  1  0.15452736  0.31951784  0.87322408  1
  In  In22  1  0.16279323  0.66026736  0.37037702  1
  In  In23  1  0.16734261  0.67737172  0.87000689  1
  In  In24  1  0.50520148  0.00570272  0.36399575  1
  In  In25  1  0.51381381  0.00578419  0.87689181  1
  In  In26  1  0.50535707  0.34221520  0.35725007  1
  In  In27  1  0.49639270  0.33028902  0.87529831  1
  In  In28  1  0.49761257  0.65794250  0.36063325  1
  In  In29  1  0.50121943  0.66175063  0.87132246  1
  In  In30  1  0.83477956  0.01022248  0.37004266  1
  In  In31  1  0.83192329  0.00144358  0.87801475  1
  In  In32  1  0.83502565  0.33854458  0.37068069  1
  In  In33  1  0.83820092  0.33858705  0.88469612  1
  In  In34  1  0.81883888  0.66208844  0.37301715  1
  In  In35  1  0.83881282  0.66678075  0.87776222  1
  In  In36  1  -0.01009262  0.16891206  0.37140942  1
  In  In37  1  0.00074127  0.17079142  0.88408279  1
  In  In38  1  0.00007599  0.48868113  0.37509582  1
  In  In39  1  -0.01272117  0.48551811  0.87608734  1
  In  In40  1  0.00738971  0.83359069  0.37825471  1
  In  In41  1  -0.00239855  0.83043524  0.87518143  1
  In  In42  1  0.34060677  0.17907222  0.35594402  1
  In  In43  1  0.32269004  0.17345869  0.88533822  1
  In  In44  1  0.33670027  0.50242609  0.35483774  1
  In  In45  1  0.33621100  0.50090105  0.87279781  1
  In  In46  1  0.33308815  0.83331449  0.36168639  1
  In  In47  1  0.32907200  0.82139558  0.87480815  1
  In  In48  1  0.67376547  0.16790410  0.36151205  1
  In  In49  1  0.66940357  0.17136578  0.87989429  1
  In  In50  1  0.67060304  0.50082706  0.36975499  1
  In  In51  1  0.68176755  0.51046949  0.87169480  1
  In  In52  1  0.66484206  0.82873826  0.36534139  1
  In  In53  1  0.67677207  0.84098250  0.86947317  1
  In  In54  1  0.17398673  0.00559473  0.11625824  1
  In  In55  1  0.15176634  -0.00223347  0.63221493  1
  In  In56  1  0.16728674  0.31612969  0.13337107  1
  In  In57  1  0.16442346  0.33587093  0.63785527  1
  In  In58  1  0.16491908  0.67257844  0.11853818  1
  In  In59  1  0.15913281  0.67881567  0.64945698  1
  In  In60  1  0.49141883  0.01004664  0.12719046  1
  In  In61  1  0.50537197  0.01278965  0.62769812  1
  In  In62  1  0.51227045  0.32879921  0.13210053  1
  In  In63  1  0.50248381  0.33346653  0.63123102  1
  In  In64  1  0.50505572  0.65524346  0.14014956  1
  In  In65  1  0.50051794  0.66513459  0.63361980  1
  In  In66  1  0.83021608  -0.00195423  0.11860206  1
  In  In67  1  0.83643991  -0.00069305  0.63995902  1
  In  In68  1  0.83293651  0.32980719  0.12146706  1
  In  In69  1  0.82438424  0.34478727  0.63396226  1
  In  In70  1  0.83404256  0.66177636  0.10816699  1
  In  In71  1  0.83818470  0.65675617  0.63427364  1
  In  In72  1  0.15781609  0.83103835  0.50950991  1
  In  In73  1  0.83506819  0.16948650  0.49741199  1
  In  In74  1  -0.00018837  0.00850353  0.24239747  1
  In  In75  1  0.50849985  0.17319394  0.50130265  1
  In  In76  1  0.16728610  0.49899418  -0.00247166  1
  In  In77  1  0.49793318  0.83482205  0.00049383  1
  In  In78  1  0.16693595  0.49820816  0.49926201  1
  In  In79  1  0.83437828  0.83526566  0.51342513  1
  In  In80  1  0.16841492  0.16859001  0.50310581  1
  In  In81  1  0.33442092  0.00156650  0.74723804  1
  In  In82  1  -0.00067348  0.66211153  0.23271197  1
  In  In83  1  0.50116561  0.49913831  0.48807685  1
  In  In84  1  0.50552723  0.83150112  0.50036359  1
  In  In85  1  0.50779478  0.49524497  0.01294626  1
  Cu  Cu86  1  0.67535594  0.67055716  -0.00299755  1
  Cu  Cu87  1  0.50290648  0.49640141  0.75216344  1
  Cu  Cu88  1  0.83522631  0.50015300  0.24468008  1
  Cu  Cu89  1  0.83665910  0.16763014  0.76171121  1
  Cu  Cu90  1  0.33113367  0.32274118  0.00097784  1
  Cu  Cu91  1  0.50283672  0.83274243  0.75737735  1
  Cu  Cu92  1  0.32979148  0.00052458  0.48946573  1
  Cu  Cu93  1  0.15978898  0.49994916  0.24338104  1
  Cu  Cu94  1  0.16824681  0.49892728  0.75974843  1
  Cu  Cu95  1  0.67479719  -0.00211224  0.50002767  1
  Cu  Cu96  1  0.66596237  0.65070615  0.49791087  1
  Cu  Cu97  1  0.50116201  0.16008336  0.24312306  1
  Cu  Cu98  1  0.83072383  0.16988114  0.24222047  1
  Cu  Cu99  1  0.66969656  0.33847870  0.00235890  1
  Cu  Cu100  1  0.32735030  -0.00254175  0.00191215  1
  Cu  Cu101  1  0.82782981  0.83260944  0.76040425  1
  Cu  Cu102  1  0.32410251  0.66780436  0.50297836  1
  Cu  Cu103  1  0.33746837  0.34003846  0.49392528  1
  Cu  Cu104  1  0.33404002  0.66567585  0.00381868  1
  Cu  Cu105  1  -0.01436383  0.66573212  0.50773308  1
  Cu  Cu106  1  0.66531066  0.00745458  0.00008993  1
  Cu  Cu107  1  0.50334483  0.17073609  0.75377611  1
  Cu  Cu108  1  -0.00523160  0.33694833  0.49879595  1
  Cu  Cu109  1  0.16446715  0.17195795  0.76028659  1
  Cu  Cu110  1  0.50431705  0.83797661  0.24385966  1
  Cu  Cu111  1  0.83210691  0.83498005  0.24566422  1
  Cu  Cu112  1  0.83183114  0.49731201  0.75550431  1
  Cu  Cu113  1  0.16836248  0.83645792  0.24154488  1
  Cu  Cu114  1  -0.00566743  -0.00387344  -0.00514937  1
  Se  Se115  1  0.07959121  0.07612870  0.04935348  1
  Se  Se116  1  0.07346500  0.08211247  0.56003312  1
  Se  Se117  1  0.08501021  0.40642272  0.05960692  1
  Se  Se118  1  0.07750917  0.41132314  0.56168228  1
  Se  Se119  1  0.08612820  0.73822762  0.04095430  1
  Se  Se120  1  0.06680853  0.74213667  0.56906986  1
  Se  Se121  1  0.41481270  0.08155291  0.04964396  1
  Se  Se122  1  0.40915102  0.07791728  0.55230515  1
  Se  Se123  1  0.40814637  0.40452249  0.06107205  1
  Se  Se124  1  0.41177002  0.41744912  0.55897537  1
  Se  Se125  1  0.41905474  0.73954001  0.06491056  1
  Se  Se126  1  0.40705938  0.74731422  0.55956318  1
  Se  Se127  1  0.75094578  0.08789995  0.05235698  1
  Se  Se128  1  0.74936923  0.07748641  0.56317677  1
  Se  Se129  1  0.75215706  0.42285704  0.05587363  1
  Se  Se130  1  0.75289064  0.41298386  0.55339308  1
  Se  Se131  1  0.75405527  0.75951162  0.04840079  1
  Se  Se132  1  0.73934363  0.73597802  0.55962468  1
  Se  Se133  1  0.24643303  0.24417610  0.05584074  1
  Se  Se134  1  0.26061227  0.26434566  0.55920962  1
  Se  Se135  1  0.26388365  0.57665873  0.06304774  1
  Se  Se136  1  0.24326562  0.59421220  0.56524691  1
  Se  Se137  1  0.24650697  0.90829469  0.05059419  1
  Se  Se138  1  0.25419708  0.93007429  0.55858628  1
  Se  Se139  1  0.58370675  0.25498556  0.05313412  1
  Se  Se140  1  0.59868443  0.25986470  0.56158243  1
  Se  Se141  1  0.59773081  0.59490972  0.06155538  1
  Se  Se142  1  0.58278845  0.57995038  0.56136203  1
  Se  Se143  1  0.58693449  0.92342876  0.06069811  1
  Se  Se144  1  0.59392241  0.92206125  0.56232716  1
  Se  Se145  1  0.89974893  0.24417314  0.04572604  1
  Se  Se146  1  0.92269832  0.25487658  0.56242430  1
  Se  Se147  1  0.94393720  0.60838635  0.04671572  1
  Se  Se148  1  0.90713496  0.57578149  0.55667023  1
  Se  Se149  1  0.91036601  0.91452148  0.04851640  1
  Se  Se150  1  0.92818074  0.92755754  0.56529616  1
  Se  Se151  1  0.07820010  0.25884064  0.44007116  1
  Se  Se152  1  0.09160284  0.24386149  0.95333785  1
  Se  Se153  1  0.07025064  0.59330537  0.44531344  1
  Se  Se154  1  0.08229236  0.58189346  0.93163138  1
  Se  Se155  1  0.07666833  0.92927320  0.44757079  1
  Se  Se156  1  0.08206064  0.91327743  0.94569033  1
  Se  Se157  1  0.41698655  0.25776472  0.43673793  1
  Se  Se158  1  0.42151625  0.24693975  0.94835940  1
  Se  Se159  1  0.40036931  0.59174231  0.43736624  1
  Se  Se160  1  0.41785356  0.58473123  0.94874716  1
  Se  Se161  1  0.41466355  0.91886727  0.43665243  1
  Se  Se162  1  0.40996043  0.92382860  0.93763730  1
  Se  Se163  1  0.74186483  0.25415089  0.43852890  1
  Se  Se164  1  0.75100214  0.25302274  0.95020983  1
  Se  Se165  1  0.75336677  0.57296840  0.44591204  1
  Se  Se166  1  0.75796644  0.58131763  0.94950981  1
  Se  Se167  1  0.75005364  0.91656094  0.43883380  1
  Se  Se168  1  0.74406818  0.92061526  0.94699453  1
  Se  Se169  1  0.25501219  0.08672262  0.43289639  1
  Se  Se170  1  0.24433993  0.08352231  0.95037240  1
  Se  Se171  1  0.25499888  0.41451256  0.43283199  1
  Se  Se172  1  0.25873723  0.40696602  0.93959962  1
  Se  Se173  1  0.24856558  0.74888536  0.43997771  1
  Se  Se174  1  0.25126398  0.74538907  0.94906058  1
  Se  Se175  1  0.59465472  0.07757842  0.44058751  1
  Se  Se176  1  0.58076695  0.09206279  0.95025330  1
  Se  Se177  1  0.59211895  0.40287975  0.43786360  1
  Se  Se178  1  0.59072691  0.41861203  0.94015232  1
  Se  Se179  1  0.58878524  0.73611860  0.43902385  1
  Se  Se180  1  0.58885621  0.74589631  0.94040202  1
  Se  Se181  1  0.92776060  0.07200096  0.44550464  1
  Se  Se182  1  0.91184085  0.08543020  0.94767396  1
  Se  Se183  1  0.91165452  0.41892167  0.44608495  1
  Se  Se184  1  0.92133379  0.41370321  0.95826992  1
  Se  Se185  1  0.91634431  0.74695689  0.44183265  1
  Se  Se186  1  0.90270357  0.76478488  0.94484005  1
  Se  Se187  1  0.24426491  0.24595445  0.29214136  1
  Se  Se188  1  0.25537966  0.25354676  0.80639803  1
  Se  Se189  1  0.24080583  0.58576040  0.29687620  1
  Se  Se190  1  0.25240422  0.58529341  0.80810987  1
  Se  Se191  1  0.25027172  0.91911324  0.29641272  1
  Se  Se192  1  0.24818680  0.91859576  0.81264493  1
  Se  Se193  1  0.58378639  0.24605783  0.29665756  1
  Se  Se194  1  0.58604903  0.25253099  0.80834730  1
  Se  Se195  1  0.58539589  0.57623561  0.29974304  1
  Se  Se196  1  0.58552642  0.58038002  0.80484310  1
  Se  Se197  1  0.58846854  0.91909514  0.29996396  1
  Se  Se198  1  0.58514747  0.92090509  0.80454538  1
  Se  Se199  1  0.91163486  0.24943352  0.30163163  1
  Se  Se200  1  0.91820482  0.25309307  0.81365495  1
  Se  Se201  1  0.91583003  0.58142571  0.30678048  1
  Se  Se202  1  0.91675669  0.57953127  0.80771961  1
  Se  Se203  1  0.91684804  0.90951037  0.30729147  1
  Se  Se204  1  0.91357160  0.91865802  0.80806506  1
  Se  Se205  1  0.08896995  0.09092771  0.30812574  1
  Se  Se206  1  0.07992799  0.08771734  0.80968006  1
  Se  Se207  1  0.07771637  0.41785919  0.29915858  1
  Se  Se208  1  0.08206193  0.41413395  0.80816835  1
  Se  Se209  1  0.08517848  0.75665084  0.30053566  1
  Se  Se210  1  0.07942687  0.75349833  0.80237840  1
  Se  Se211  1  0.41508355  0.07877587  0.29698339  1
  Se  Se212  1  0.41899649  0.09012570  0.81193937  1
  Se  Se213  1  0.39991323  0.39905140  0.29530639  1
  Se  Se214  1  0.41775297  0.41598675  0.80607873  1
  Se  Se215  1  0.42087081  0.75307262  0.29811948  1
  Se  Se216  1  0.41822994  0.74805046  0.80619712  1
  Se  Se217  1  0.75327659  0.07961547  0.29534419  1
  Se  Se218  1  0.74735581  0.08491816  0.80930280  1
  Se  Se219  1  0.75234837  0.41752554  0.29971145  1
  Se  Se220  1  0.75193537  0.41052681  0.80911738  1
  Se  Se221  1  0.75233488  0.74829727  0.29901363  1
  Se  Se222  1  0.74651743  0.74100314  0.80703460  1
  Se  Se223  1  0.25079981  0.07459587  0.19286851  1
  Se  Se224  1  0.24061551  0.09740402  0.69055972  1
  Se  Se225  1  0.24428694  0.41089770  0.19736414  1
  Se  Se226  1  0.25145334  0.41752363  0.70237296  1
  Se  Se227  1  0.24833876  0.74792363  0.19060695  1
  Se  Se228  1  0.26117111  0.74671850  0.70886299  1
  Se  Se229  1  0.58945626  0.08046473  0.19136689  1
  Se  Se230  1  0.58527838  0.08301596  0.70271016  1
  Se  Se231  1  0.56663420  0.43879821  0.19234921  1
  Se  Se232  1  0.58702371  0.41368436  0.69880869  1
  Se  Se233  1  0.58863204  0.75063960  0.19704319  1
  Se  Se234  1  0.58374188  0.74823913  0.70042465  1
  Se  Se235  1  0.91390797  0.09594750  0.18009827  1
  Se  Se236  1  0.91938006  0.08266617  0.70643166  1
  Se  Se237  1  0.91698882  0.41621854  0.19029141  1
  Se  Se238  1  0.91832841  0.41548965  0.70130274  1
  Se  Se239  1  0.91218682  0.76160830  0.18195900  1
  Se  Se240  1  0.90889113  0.74929321  0.70332743  1
  Se  Se241  1  0.06749630  0.24199570  0.19315578  1
  Se  Se242  1  0.08004925  0.25391708  0.70359402  1
  Se  Se243  1  0.08252056  0.56758732  0.17458419  1
  Se  Se244  1  0.08159822  0.57828598  0.70427008  1
  Se  Se245  1  0.08080198  0.90902261  0.18269413  1
  Se  Se246  1  0.09885362  0.90487715  0.70510015  1
  Se  Se247  1  0.41886220  0.24347016  0.18976640  1
  Se  Se248  1  0.41841345  0.25404389  0.70138524  1
  Se  Se249  1  0.40497930  0.59297166  0.20352893  1
  Se  Se250  1  0.41763139  0.58176324  0.70022140  1
  Se  Se251  1  0.41593526  0.91799863  0.19383574  1
  Se  Se252  1  0.42774015  0.90868291  0.68851405  1
  Se  Se253  1  0.74534312  0.25589087  0.19349559  1
  Se  Se254  1  0.75612997  0.24882762  0.70209243  1
  Se  Se255  1  0.76208242  0.59157334  0.18976146  1
  Se  Se256  1  0.74724660  0.58111533  0.70102127  1
  Se  Se257  1  0.75052375  0.91974748  0.19301892  1
  Se  Se258  1  0.74743953  0.91856442  0.70386284  1
