# generated using pymatgen
data_In86Cu29Se144
_symmetry_space_group_name_H-M   'P 1'
_cell_length_a   17.57907740
_cell_length_b   17.58638665
_cell_length_c   23.43806214
_cell_angle_alpha   90.00066511
_cell_angle_beta   90.00984148
_cell_angle_gamma   90.02627180
_symmetry_Int_Tables_number   1
_chemical_formula_structural   In86Cu29Se144
_chemical_formula_sum   'In86 Cu29 Se144'
_cell_volume   7245.93351340
_cell_formula_units_Z   1
loop_
 _symmetry_equiv_pos_site_id
 _symmetry_equiv_pos_as_xyz
  1  'x, y, z'
loop_
 _atom_site_type_symbol
 _atom_site_label
 _atom_site_symmetry_multiplicity
 _atom_site_fract_x
 _atom_site_fract_y
 _atom_site_fract_z
 _atom_site_occupancy
  In  In0  1  -0.00391108  0.16673162  0.13114304  1
  In  In1  1  0.00321139  0.16108636  0.62685244  1
  In  In2  1  -0.00924076  0.48822258  0.11919955  1
  In  In3  1  0.00615759  0.49235429  0.63604154  1
  In  In4  1  -0.01090699  0.84279587  0.12312446  1
  In  In5  1  -0.01429689  0.84169016  0.63402462  1
  In  In6  1  0.30946802  0.16802723  0.13270606  1
  In  In7  1  0.31791471  0.17967499  0.61986621  1
  In  In8  1  0.33796981  0.50384736  0.11699633  1
  In  In9  1  0.32526830  0.48436968  0.60726327  1
  In  In10  1  0.34295236  0.83787361  0.12523479  1
  In  In11  1  0.33901594  0.82339488  0.62061813  1
  In  In12  1  0.69252181  0.17300332  0.12548612  1
  In  In13  1  0.66335854  0.15953915  0.63082262  1
  In  In14  1  0.66646506  0.50067450  0.13037001  1
  In  In15  1  0.67340174  0.51168651  0.62662881  1
  In  In16  1  0.66026812  0.82355560  0.10894287  1
  In  In17  1  0.66859709  0.82912226  0.62436949  1
  In  In18  1  0.16850996  0.01632947  0.36422139  1
  In  In19  1  0.15815107  0.01818385  0.87907590  1
  In  In20  1  0.16485777  0.33329139  0.37718790  1
  In  In21  1  0.15705335  0.34188207  0.88242187  1
  In  In22  1  0.16583182  0.64618645  0.37937783  1
  In  In23  1  0.15322289  0.66344124  0.87290157  1
  In  In24  1  0.49233899  0.00180606  0.37510864  1
  In  In25  1  0.50802708  -0.03203798  0.88554352  1
  In  In26  1  0.50680452  0.33899520  0.37046642  1
  In  In27  1  0.51467174  0.34192461  0.88086015  1
  In  In28  1  0.51464291  0.65672217  0.37884944  1
  In  In29  1  0.51693499  0.65822935  0.88828810  1
  In  In30  1  0.83657711  -0.00981751  0.37372163  1
  In  In31  1  0.83309079  0.00406792  0.87224514  1
  In  In32  1  0.84155601  0.33813522  0.36441649  1
  In  In33  1  0.85049166  0.32078039  0.88591096  1
  In  In34  1  0.83175879  0.67900845  0.37358096  1
  In  In35  1  0.82984738  0.66271631  0.88323610  1
  In  In36  1  0.01620873  0.18928159  0.34349415  1
  In  In37  1  -0.00549521  0.17174673  0.87107567  1
  In  In38  1  0.01289023  0.49085041  0.37942818  1
  In  In39  1  -0.00112013  0.49629986  0.87911823  1
  In  In40  1  -0.01411230  0.83212056  0.37729733  1
  In  In41  1  -0.01516048  0.82294560  0.86847475  1
  In  In42  1  0.33258448  0.15534020  0.37046066  1
  In  In43  1  0.32298079  0.15613091  0.87992769  1
  In  In44  1  0.33695028  0.49230741  0.38302291  1
  In  In45  1  0.33784468  0.49885411  0.88242118  1
  In  In46  1  0.33496439  0.84943544  0.37860793  1
  In  In47  1  0.34765241  0.83136802  0.87768509  1
  In  In48  1  0.66556195  0.17168275  0.36743373  1
  In  In49  1  0.68908939  0.16797965  0.87562315  1
  In  In50  1  0.65528783  0.50002903  0.35902869  1
  In  In51  1  0.66555167  0.51055672  0.88568316  1
  In  In52  1  0.67637877  0.82264309  0.37829741  1
  In  In53  1  0.66998016  0.83092818  0.87738729  1
  In  In54  1  0.13728333  0.01912814  0.14706476  1
  In  In55  1  0.14797098  0.00372245  0.62571011  1
  In  In56  1  0.15073891  0.31885535  0.12034777  1
  In  In57  1  0.14938280  0.31848490  0.60023468  1
  In  In58  1  0.17461289  0.65718930  0.12328103  1
  In  In59  1  0.16363043  0.65455528  0.62776792  1
  In  In60  1  0.50003676  -0.00898738  0.12839908  1
  In  In61  1  0.51487930  -0.00301798  0.62516706  1
  In  In62  1  0.50860724  0.35288562  0.12779762  1
  In  In63  1  0.48886221  0.33445276  0.61809866  1
  In  In64  1  0.51026519  0.66804794  0.11851995  1
  In  In65  1  0.50546236  0.66751848  0.61965863  1
  In  In66  1  0.84390082  0.00957291  0.11187611  1
  In  In67  1  0.84514101  -0.00718227  0.63283857  1
  In  In68  1  0.83795939  0.33232221  0.13271677  1
  In  In69  1  0.84069677  0.33572638  0.63071667  1
  In  In70  1  0.80690317  0.64573503  0.10033950  1
  In  In71  1  0.81952110  0.67249151  0.63714414  1
  In  In72  1  -0.00593772  0.67318465  0.24881377  1
  In  In73  1  0.16729275  0.83406059  0.50278386  1
  In  In74  1  0.67013748  -0.00002137  0.24205953  1
  In  In75  1  0.84061797  0.16266372  0.50147116  1
  In  In76  1  0.67537728  0.33670287  0.75481896  1
  In  In77  1  0.34326332  0.67093736  0.24468054  1
  In  In78  1  0.49682598  0.16842576  0.49260569  1
  In  In79  1  0.33368518  0.66347796  0.73915575  1
  In  In80  1  0.33370140  0.33516450  0.25027125  1
  In  In81  1  0.49758116  0.16976278  0.00088508  1
  In  In82  1  0.83753815  0.50417746  0.49769139  1
  In  In83  1  0.33022607  0.33365214  0.74246840  1
  In  In84  1  0.33527651  -0.00317049  0.75660302  1
  In  In85  1  0.16793585  0.83469622  0.00326659  1
  Cu  Cu86  1  0.82769946  0.83271240  0.75429066  1
  Cu  Cu87  1  0.66644390  0.33779591  0.49268877  1
  Cu  Cu88  1  0.66459285  0.66744346  0.50222950  1
  Cu  Cu89  1  0.15744260  0.84221281  0.75442854  1
  Cu  Cu90  1  -0.00816460  0.66796429  0.50426682  1
  Cu  Cu91  1  0.33458335  0.00564376  0.49702040  1
  Cu  Cu92  1  0.67496135  0.34168697  0.00530218  1
  Cu  Cu93  1  0.33965875  0.66511432  0.49929671  1
  Cu  Cu94  1  0.50140076  0.17344673  0.25100388  1
  Cu  Cu95  1  0.33557274  0.66229070  0.00180950  1
  Cu  Cu96  1  -0.00142579  0.33081342  0.00232725  1
  Cu  Cu97  1  0.50390362  0.83392794  0.24775677  1
  Cu  Cu98  1  0.66962328  0.00093441  -0.00134500  1
  Cu  Cu99  1  0.00158087  0.00302789  0.50071820  1
  Cu  Cu100  1  0.83657671  0.50461775  0.24411311  1
  Cu  Cu101  1  0.82660409  0.82926716  0.24223611  1
  Cu  Cu102  1  0.67139891  -0.01328609  0.50057592  1
  Cu  Cu103  1  0.83642810  0.50534944  0.75852899  1
  Cu  Cu104  1  0.50548124  0.50362763  0.75016459  1
  Cu  Cu105  1  0.00007499  0.00428322  -0.00096864  1
  Cu  Cu106  1  0.33126509  0.33466598  0.00693762  1
  Cu  Cu107  1  0.32033373  0.00489487  0.00766484  1
  Cu  Cu108  1  0.16411303  0.83706856  0.25612013  1
  Cu  Cu109  1  0.50331472  0.15410242  0.75324131  1
  Cu  Cu110  1  0.15991395  0.17118798  0.74905522  1
  Cu  Cu111  1  0.16616826  0.49203707  0.24952602  1
  Cu  Cu112  1  0.15919981  0.49705203  0.75223741  1
  Cu  Cu113  1  0.51166631  0.82554459  0.75125625  1
  Cu  Cu114  1  0.00128745  0.66271397  -0.00491197  1
  Se  Se115  1  0.07967396  0.08412031  0.05842011  1
  Se  Se116  1  0.08576584  0.08952551  0.54979707  1
  Se  Se117  1  0.08512740  0.41612873  0.05251583  1
  Se  Se118  1  0.08481589  0.43420823  0.55468186  1
  Se  Se119  1  0.07669091  0.74156187  0.06159748  1
  Se  Se120  1  0.07523966  0.74808608  0.56419027  1
  Se  Se121  1  0.40869127  0.08284398  0.06450611  1
  Se  Se122  1  0.41310406  0.08163242  0.56333985  1
  Se  Se123  1  0.42196438  0.41731411  0.05200190  1
  Se  Se124  1  0.42401153  0.41702161  0.54348796  1
  Se  Se125  1  0.41392459  0.74792402  0.05671418  1
  Se  Se126  1  0.42282092  0.75062149  0.54965496  1
  Se  Se127  1  0.75256094  0.08888238  0.04680392  1
  Se  Se128  1  0.74456499  0.07424143  0.55941453  1
  Se  Se129  1  0.75674702  0.41835988  0.06452434  1
  Se  Se130  1  0.74641909  0.41010963  0.55841717  1
  Se  Se131  1  0.76146693  0.76263281  0.04365020  1
  Se  Se132  1  0.75281096  0.74649054  0.55512258  1
  Se  Se133  1  0.24617995  0.24725617  0.05273116  1
  Se  Se134  1  0.26151921  0.26369787  0.54269147  1
  Se  Se135  1  0.24707076  0.57807585  0.04846826  1
  Se  Se136  1  0.25019425  0.58984862  0.55308582  1
  Se  Se137  1  0.24273375  0.92622599  0.07105131  1
  Se  Se138  1  0.25663295  0.92801672  0.56326233  1
  Se  Se139  1  0.59127056  0.25580464  0.06122901  1
  Se  Se140  1  0.59302247  0.25281158  0.55564030  1
  Se  Se141  1  0.60116351  0.58996338  0.05492149  1
  Se  Se142  1  0.58564055  0.57785313  0.55329387  1
  Se  Se143  1  0.58039155  0.92377146  0.05137529  1
  Se  Se144  1  0.58237722  0.90938877  0.55338173  1
  Se  Se145  1  0.91632263  0.25008061  0.05965566  1
  Se  Se146  1  0.92585618  0.25993618  0.55794759  1
  Se  Se147  1  0.91980134  0.57863134  0.04943879  1
  Se  Se148  1  0.91638422  0.58882726  0.56909521  1
  Se  Se149  1  0.91526885  0.91464939  0.04421354  1
  Se  Se150  1  0.91839877  0.91845691  0.55351357  1
  Se  Se151  1  0.07650465  0.24229502  0.43451947  1
  Se  Se152  1  0.07937189  0.24797624  0.94481671  1
  Se  Se153  1  0.07539492  0.58423680  0.45264373  1
  Se  Se154  1  0.08806892  0.57800726  0.94740913  1
  Se  Se155  1  0.08068990  0.92064111  0.43882103  1
  Se  Se156  1  0.07666216  0.91768851  0.93899801  1
  Se  Se157  1  0.40841309  0.25871091  0.43364769  1
  Se  Se158  1  0.40752381  0.25987430  0.93795206  1
  Se  Se159  1  0.42093628  0.58223005  0.44447671  1
  Se  Se160  1  0.42199130  0.57967327  0.94996284  1
  Se  Se161  1  0.42188145  0.91997696  0.45155237  1
  Se  Se162  1  0.40350695  0.91990094  0.95569543  1
  Se  Se163  1  0.74954587  0.25495886  0.43917715  1
  Se  Se164  1  0.75219555  0.25245971  0.95246805  1
  Se  Se165  1  0.74298415  0.58830480  0.43815977  1
  Se  Se166  1  0.73767868  0.59842097  0.95636175  1
  Se  Se167  1  0.75725129  0.90960006  0.44546238  1
  Se  Se168  1  0.75240118  0.91993583  0.94278795  1
  Se  Se169  1  0.24771862  0.08405120  0.44451671  1
  Se  Se170  1  0.23906908  0.08937201  0.95529240  1
  Se  Se171  1  0.23039097  0.43331719  0.44189160  1
  Se  Se172  1  0.25139977  0.41644004  0.94722099  1
  Se  Se173  1  0.25542589  0.74303506  0.43911377  1
  Se  Se174  1  0.25546532  0.74157739  0.93978659  1
  Se  Se175  1  0.59678806  0.07479608  0.44105774  1
  Se  Se176  1  0.58561173  0.08110007  0.93853700  1
  Se  Se177  1  0.58693826  0.42272248  0.43999676  1
  Se  Se178  1  0.58601829  0.42195333  0.95469052  1
  Se  Se179  1  0.58330451  0.75207553  0.44701865  1
  Se  Se180  1  0.55832502  0.77935242  0.94040822  1
  Se  Se181  1  0.92598719  0.07955567  0.43516639  1
  Se  Se182  1  0.91720871  0.08582829  0.94235222  1
  Se  Se183  1  0.92410596  0.40414299  0.44589415  1
  Se  Se184  1  0.91560046  0.41960407  0.95232110  1
  Se  Se185  1  0.91064247  0.75096722  0.45094646  1
  Se  Se186  1  0.91655654  0.75019470  0.94877752  1
  Se  Se187  1  0.24393812  0.24206015  0.30504070  1
  Se  Se188  1  0.24517378  0.24624783  0.80917951  1
  Se  Se189  1  0.25117850  0.57582587  0.30268269  1
  Se  Se190  1  0.24883313  0.57554359  0.80703448  1
  Se  Se191  1  0.25073593  0.91946677  0.30572140  1
  Se  Se192  1  0.24219830  0.91016602  0.81778400  1
  Se  Se193  1  0.58667375  0.25703836  0.29978152  1
  Se  Se194  1  0.57870097  0.24331526  0.81045882  1
  Se  Se195  1  0.58859839  0.59972901  0.29526104  1
  Se  Se196  1  0.58564023  0.58295464  0.80771593  1
  Se  Se197  1  0.58389473  0.91406699  0.30973975  1
  Se  Se198  1  0.58908735  0.91462479  0.80337540  1
  Se  Se199  1  0.89585922  0.24012667  0.29350500  1
  Se  Se200  1  0.91539345  0.25659995  0.80182419  1
  Se  Se201  1  0.91526692  0.57668352  0.31381561  1
  Se  Se202  1  0.91926482  0.58709272  0.81335664  1
  Se  Se203  1  0.91104287  0.90633181  0.29970113  1
  Se  Se204  1  0.91501710  0.91833435  0.80264034  1
  Se  Se205  1  0.06074232  0.06366057  0.29897289  1
  Se  Se206  1  0.07903686  0.08566918  0.80188685  1
  Se  Se207  1  0.08239203  0.41100863  0.30261057  1
  Se  Se208  1  0.07792851  0.41293492  0.80582845  1
  Se  Se209  1  0.09115063  0.75038450  0.31621680  1
  Se  Se210  1  0.08013059  0.74911034  0.80274415  1
  Se  Se211  1  0.42168770  0.08351028  0.29981589  1
  Se  Se212  1  0.42745461  0.08101728  0.81981172  1
  Se  Se213  1  0.42455121  0.43080816  0.30279381  1
  Se  Se214  1  0.42484041  0.41955174  0.80642755  1
  Se  Se215  1  0.42328387  0.75950576  0.31287998  1
  Se  Se216  1  0.42419150  0.74466891  0.80545419  1
  Se  Se217  1  0.75741952  0.08523736  0.30653896  1
  Se  Se218  1  0.74930850  0.08245173  0.80102452  1
  Se  Se219  1  0.75425436  0.42252185  0.30107943  1
  Se  Se220  1  0.75777561  0.42404547  0.82072922  1
  Se  Se221  1  0.74650779  0.74682456  0.29852147  1
  Se  Se222  1  0.75090225  0.74570557  0.80956453  1
  Se  Se223  1  0.25254703  0.07207008  0.20264220  1
  Se  Se224  1  0.24650398  0.08865142  0.69425146  1
  Se  Se225  1  0.24581096  0.41980289  0.18390157  1
  Se  Se226  1  0.23762625  0.42220199  0.68683824  1
  Se  Se227  1  0.24068689  0.75904624  0.19260518  1
  Se  Se228  1  0.23733969  0.76379826  0.69215570  1
  Se  Se229  1  0.58084949  0.09691878  0.18524412  1
  Se  Se230  1  0.58876604  0.07345030  0.70169380  1
  Se  Se231  1  0.59172252  0.41613226  0.20309339  1
  Se  Se232  1  0.57879630  0.41591835  0.68960963  1
  Se  Se233  1  0.58463244  0.75550909  0.19003873  1
  Se  Se234  1  0.58777848  0.74123788  0.69333753  1
  Se  Se235  1  0.91789626  0.07059344  0.19328180  1
  Se  Se236  1  0.91367070  0.09113924  0.69474322  1
  Se  Se237  1  0.92406957  0.41685919  0.20123812  1
  Se  Se238  1  0.91401658  0.41838842  0.70360952  1
  Se  Se239  1  0.90156686  0.74475208  0.18034317  1
  Se  Se240  1  0.91387759  0.74893658  0.70140412  1
  Se  Se241  1  0.08556691  0.24435897  0.19966299  1
  Se  Se242  1  0.08742301  0.25520264  0.68832739  1
  Se  Se243  1  0.08588475  0.57791052  0.19259994  1
  Se  Se244  1  0.07899969  0.58797238  0.70308460  1
  Se  Se245  1  0.07215646  0.90706172  0.20083916  1
  Se  Se246  1  0.07533620  0.92400909  0.69972424  1
  Se  Se247  1  0.42237123  0.24717294  0.18507229  1
  Se  Se248  1  0.42590201  0.23447220  0.69197568  1
  Se  Se249  1  0.42949378  0.57582056  0.18907140  1
  Se  Se250  1  0.41984947  0.56715981  0.68296710  1
  Se  Se251  1  0.41540177  0.91822073  0.20147026  1
  Se  Se252  1  0.42380339  0.90526473  0.69448030  1
  Se  Se253  1  0.75843722  0.24884474  0.20445503  1
  Se  Se254  1  0.75767421  0.24154251  0.69394278  1
  Se  Se255  1  0.75349733  0.59048836  0.19455768  1
  Se  Se256  1  0.74563539  0.58187683  0.70641456  1
  Se  Se257  1  0.75355685  0.91111361  0.17795655  1
  Se  Se258  1  0.74957891  0.91327995  0.69371300  1
