# generated using pymatgen
data_In86Cu29Se144
_symmetry_space_group_name_H-M   'P 1'
_cell_length_a   17.57797913
_cell_length_b   17.58746104
_cell_length_c   23.45179654
_cell_angle_alpha   90.00186485
_cell_angle_beta   89.97397977
_cell_angle_gamma   90.00348371
_symmetry_Int_Tables_number   1
_chemical_formula_structural   In86Cu29Se144
_chemical_formula_sum   'In86 Cu29 Se144'
_cell_volume   7250.16958301
_cell_formula_units_Z   1
loop_
 _symmetry_equiv_pos_site_id
 _symmetry_equiv_pos_as_xyz
  1  'x, y, z'
loop_
 _atom_site_type_symbol
 _atom_site_label
 _atom_site_symmetry_multiplicity
 _atom_site_fract_x
 _atom_site_fract_y
 _atom_site_fract_z
 _atom_site_occupancy
  In  In0  1  0.00074001  0.17646102  0.12447557  1
  In  In1  1  -0.00705302  0.17896883  0.63171555  1
  In  In2  1  -0.00055617  0.50709369  0.12290169  1
  In  In3  1  0.00170298  0.50116070  0.62576206  1
  In  In4  1  -0.01706715  0.83093021  0.12298221  1
  In  In5  1  -0.00065117  0.83145119  0.62760991  1
  In  In6  1  0.34361088  0.17809864  0.13120975  1
  In  In7  1  0.33609667  0.15537508  0.61832915  1
  In  In8  1  0.32997366  0.50220653  0.12570719  1
  In  In9  1  0.33269602  0.52069538  0.62965345  1
  In  In10  1  0.31297466  0.83258258  0.12777811  1
  In  In11  1  0.32166159  0.82176804  0.61475760  1
  In  In12  1  0.67589915  0.15259510  0.13347279  1
  In  In13  1  0.66366437  0.15532774  0.61867369  1
  In  In14  1  0.67413697  0.52100942  0.10696858  1
  In  In15  1  0.67340693  0.48827607  0.62670961  1
  In  In16  1  0.68495361  0.83558252  0.12600028  1
  In  In17  1  0.68392783  0.84655741  0.61826728  1
  In  In18  1  0.14572956  -0.00628333  0.38454304  1
  In  In19  1  0.14226566  -0.00345569  0.86331715  1
  In  In20  1  0.17072507  0.34332478  0.37095139  1
  In  In21  1  0.16363000  0.34373981  0.87461237  1
  In  In22  1  0.16269202  0.66230048  0.37629632  1
  In  In23  1  0.14625300  0.64710948  0.86184302  1
  In  In24  1  0.51150424  -0.00833742  0.38144354  1
  In  In25  1  0.50370858  -0.01454330  0.86841665  1
  In  In26  1  0.49063857  0.33468918  0.37652347  1
  In  In27  1  0.51019946  0.33720586  0.87735987  1
  In  In28  1  0.49698957  0.68192345  0.37623261  1
  In  In29  1  0.49034825  0.66061010  0.86848572  1
  In  In30  1  0.83023640  0.00841907  0.38290050  1
  In  In31  1  0.83697217  0.00369673  0.87242889  1
  In  In32  1  0.84566524  0.32118577  0.37698415  1
  In  In33  1  0.84041418  0.32280051  0.88347344  1
  In  In34  1  0.84437832  0.65543540  0.38256654  1
  In  In35  1  0.85649568  0.64993985  0.89712812  1
  In  In36  1  -0.02503292  0.17001271  0.37284191  1
  In  In37  1  -0.01553978  0.15636580  0.85239365  1
  In  In38  1  0.00022921  0.50014987  0.37397764  1
  In  In39  1  0.00273856  0.49983933  0.87727457  1
  In  In40  1  0.00851033  0.82655284  0.38743112  1
  In  In41  1  -0.01323217  0.82656188  0.87058831  1
  In  In42  1  0.32935810  0.18471889  0.37916629  1
  In  In43  1  0.32812618  0.17070892  0.87499416  1
  In  In44  1  0.32328852  0.49076197  0.36914898  1
  In  In45  1  0.32203652  0.50340851  0.87988696  1
  In  In46  1  0.33406766  0.82780777  0.37826994  1
  In  In47  1  0.34565466  0.82210776  0.87067003  1
  In  In48  1  0.68691667  0.15059498  0.38088668  1
  In  In49  1  0.68302261  0.16888672  0.87391928  1
  In  In50  1  0.67439488  0.51162422  0.37605464  1
  In  In51  1  0.67052360  0.50742335  0.88947519  1
  In  In52  1  0.66175373  0.84110709  0.37992567  1
  In  In53  1  0.67716406  0.84777399  0.86661988  1
  In  In54  1  0.15301208  0.00105367  0.12422627  1
  In  In55  1  0.16578017  -0.00912483  0.62349867  1
  In  In56  1  0.15230895  0.34927066  0.13345929  1
  In  In57  1  0.14328156  0.32995782  0.62522654  1
  In  In58  1  0.17747189  0.65965212  0.13226230  1
  In  In59  1  0.16486083  0.66420324  0.62500254  1
  In  In60  1  0.50495200  0.01511500  0.12888099  1
  In  In61  1  0.50922415  0.00305393  0.61628631  1
  In  In62  1  0.49009939  0.34184979  0.13100241  1
  In  In63  1  0.51295457  0.32832266  0.62275949  1
  In  In64  1  0.50015902  0.65527317  0.12370186  1
  In  In65  1  0.48474226  0.66738518  0.62635060  1
  In  In66  1  0.82931021  -0.00994238  0.12245757  1
  In  In67  1  0.83743779  -0.00357122  0.62689497  1
  In  In68  1  0.84011422  0.34219890  0.12292401  1
  In  In69  1  0.84644967  0.34179699  0.61742537  1
  In  In70  1  0.84344470  0.68171808  0.10803836  1
  In  In71  1  0.84649028  0.67816582  0.62128189  1
  In  In72  1  0.16256811  0.16443737  0.50139395  1
  In  In73  1  0.66539550  0.33747210  0.24544511  1
  In  In74  1  0.50796902  0.82392378  -0.00096452  1
  In  In75  1  -0.00525384  0.00157606  0.25608149  1
  In  In76  1  0.66789607  0.66993193  0.24608452  1
  In  In77  1  0.32827301  0.33639700  0.75600501  1
  In  In78  1  0.33709473  0.00120238  0.25727243  1
  In  In79  1  0.67324201  0.66972819  0.75476966  1
  In  In80  1  0.50297149  0.50058292  0.50273236  1
  In  In81  1  0.15068744  0.81982634  -0.01490960  1
  In  In82  1  0.50656656  0.17180434  0.00515882  1
  In  In83  1  0.15820514  0.17325089  0.00258147  1
  In  In84  1  0.32915957  -0.00681083  0.73596807  1
  In  In85  1  0.67144672  0.33388372  0.75356352  1
  Cu  Cu86  1  0.83326181  0.83051005  0.25081049  1
  Cu  Cu87  1  0.17204296  0.17226642  0.25096615  1
  Cu  Cu88  1  0.49196715  0.50335087  0.24703556  1
  Cu  Cu89  1  0.67385830  0.32683102  0.50147461  1
  Cu  Cu90  1  0.17055290  0.82752596  0.74400830  1
  Cu  Cu91  1  0.84005887  0.50182121  0.75454591  1
  Cu  Cu92  1  0.49666457  0.15745435  0.74326279  1
  Cu  Cu93  1  0.83850308  0.83395119  0.74787696  1
  Cu  Cu94  1  0.49798170  0.83640332  0.25535577  1
  Cu  Cu95  1  0.34002740  -0.00408563  0.49849560  1
  Cu  Cu96  1  0.67093998  0.66834595  0.49943259  1
  Cu  Cu97  1  0.32112470  0.00091816  -0.00320659  1
  Cu  Cu98  1  0.66897588  0.33542833  0.00338519  1
  Cu  Cu99  1  -0.00158359  0.33628640  0.49776375  1
  Cu  Cu100  1  0.33120579  0.34332753  0.00512357  1
  Cu  Cu101  1  0.33282105  0.65876261  -0.00024197  1
  Cu  Cu102  1  0.82730664  0.16447352  0.74672206  1
  Cu  Cu103  1  0.33328573  0.33812323  0.49759780  1
  Cu  Cu104  1  0.00330676  0.66327895  0.50323126  1
  Cu  Cu105  1  0.50686662  0.17116380  0.25395159  1
  Cu  Cu106  1  0.67255312  -0.00198359  0.50127285  1
  Cu  Cu107  1  0.16071511  0.82314660  0.25642733  1
  Cu  Cu108  1  0.50546088  0.82687297  0.74557139  1
  Cu  Cu109  1  0.16521175  0.50166938  0.25019824  1
  Cu  Cu110  1  0.16443874  0.50123671  0.74980385  1
  Cu  Cu111  1  -0.00050506  0.33810381  0.00134590  1
  Cu  Cu112  1  0.84168121  0.49940503  0.24851914  1
  Cu  Cu113  1  0.32792407  0.66626015  0.49847647  1
  Cu  Cu114  1  0.67174328  0.00188289  -0.00221625  1
  Se  Se115  1  0.06591640  0.07445500  0.05307333  1
  Se  Se116  1  0.07366280  0.08100298  0.56429282  1
  Se  Se117  1  0.08378749  0.42170361  0.05329779  1
  Se  Se118  1  0.08156315  0.41903367  0.55158148  1
  Se  Se119  1  0.08245347  0.74406816  0.06606044  1
  Se  Se120  1  0.08411168  0.74943413  0.55716929  1
  Se  Se121  1  0.40405480  0.07842073  0.05607965  1
  Se  Se122  1  0.42219558  0.08345387  0.54791682  1
  Se  Se123  1  0.41927976  0.42297502  0.05629196  1
  Se  Se124  1  0.41117166  0.41304934  0.56419355  1
  Se  Se125  1  0.40297164  0.74889763  0.05917156  1
  Se  Se126  1  0.41674176  0.74748873  0.54874257  1
  Se  Se127  1  0.75200440  0.08367361  0.05488701  1
  Se  Se128  1  0.75732504  0.08066126  0.55436017  1
  Se  Se129  1  0.75391463  0.41969998  0.05320306  1
  Se  Se130  1  0.75277394  0.41735282  0.55118371  1
  Se  Se131  1  0.72935371  0.73914205  0.05261403  1
  Se  Se132  1  0.75493329  0.75049890  0.55286369  1
  Se  Se133  1  0.25345081  0.25889056  0.06409792  1
  Se  Se134  1  0.25312631  0.25848793  0.56060682  1
  Se  Se135  1  0.24617192  0.58053027  0.05389385  1
  Se  Se136  1  0.24763241  0.58199516  0.55280184  1
  Se  Se137  1  0.23997667  0.91891348  0.05226205  1
  Se  Se138  1  0.25020696  0.91863857  0.55057373  1
  Se  Se139  1  0.59273419  0.25846606  0.06984599  1
  Se  Se140  1  0.58503040  0.24513609  0.55060494  1
  Se  Se141  1  0.57546585  0.59091736  0.04444660  1
  Se  Se142  1  0.59246392  0.59038720  0.56381656  1
  Se  Se143  1  0.58668551  0.92702972  0.05886267  1
  Se  Se144  1  0.58596778  0.91217082  0.55022366  1
  Se  Se145  1  0.91690606  0.25293133  0.05357001  1
  Se  Se146  1  0.91821932  0.24772333  0.55023105  1
  Se  Se147  1  0.90719636  0.57424103  0.05219357  1
  Se  Se148  1  0.91665652  0.58095027  0.55596564  1
  Se  Se149  1  0.91108211  0.91260542  0.05131229  1
  Se  Se150  1  0.89999888  0.89537221  0.56144407  1
  Se  Se151  1  0.07879869  0.25447127  0.43690645  1
  Se  Se152  1  0.07166071  0.25548373  0.93646490  1
  Se  Se153  1  0.08307964  0.57863232  0.44672151  1
  Se  Se154  1  0.08446663  0.58304908  0.94686934  1
  Se  Se155  1  0.08004474  0.91328717  0.45970218  1
  Se  Se156  1  0.06527791  0.92694292  0.94198476  1
  Se  Se157  1  0.41946650  0.25150678  0.45179040  1
  Se  Se158  1  0.40877205  0.25883420  0.94565065  1
  Se  Se159  1  0.41193317  0.58504574  0.43916550  1
  Se  Se160  1  0.41786571  0.58002862  0.94414366  1
  Se  Se161  1  0.42016394  0.91058793  0.44423909  1
  Se  Se162  1  0.40970730  0.92081581  0.94457026  1
  Se  Se163  1  0.75873725  0.24546874  0.44716657  1
  Se  Se164  1  0.74923101  0.24745122  0.95190023  1
  Se  Se165  1  0.75403237  0.57990032  0.45220029  1
  Se  Se166  1  0.74966276  0.58940045  0.95690898  1
  Se  Se167  1  0.75430086  0.91386656  0.44704285  1
  Se  Se168  1  0.75429736  0.91973527  0.94358621  1
  Se  Se169  1  0.25635896  0.07586697  0.43897783  1
  Se  Se170  1  0.24193397  0.07755664  0.93619948  1
  Se  Se171  1  0.24683895  0.42000315  0.44792871  1
  Se  Se172  1  0.24371309  0.41774234  0.94927967  1
  Se  Se173  1  0.24490513  0.74969436  0.44432879  1
  Se  Se174  1  0.25710039  0.73763712  0.93528206  1
  Se  Se175  1  0.58900279  0.08256963  0.44704665  1
  Se  Se176  1  0.58469523  0.07691139  0.93864231  1
  Se  Se177  1  0.59444631  0.41053309  0.44107362  1
  Se  Se178  1  0.58378349  0.41653071  0.95070687  1
  Se  Se179  1  0.58456083  0.75032104  0.44783999  1
  Se  Se180  1  0.58980611  0.74816647  0.92646499  1
  Se  Se181  1  0.94256815  0.06339433  0.44209610  1
  Se  Se182  1  0.91116382  0.10014871  0.93632449  1
  Se  Se183  1  0.91427323  0.41826787  0.44316381  1
  Se  Se184  1  0.91477028  0.41898145  0.94592249  1
  Se  Se185  1  0.91690991  0.74554424  0.45135153  1
  Se  Se186  1  0.92176608  0.75721329  0.95405056  1
  Se  Se187  1  0.25429503  0.25769606  0.30248925  1
  Se  Se188  1  0.23502614  0.24070160  0.80630427  1
  Se  Se189  1  0.24871614  0.58454672  0.30483384  1
  Se  Se190  1  0.25277363  0.58248342  0.80127058  1
  Se  Se191  1  0.23652971  0.91539243  0.31134547  1
  Se  Se192  1  0.24841001  0.90816074  0.80866135  1
  Se  Se193  1  0.58752483  0.24893816  0.31613657  1
  Se  Se194  1  0.57468882  0.23705205  0.80666202  1
  Se  Se195  1  0.57391918  0.58105451  0.30815294  1
  Se  Se196  1  0.58510401  0.57167701  0.80848186  1
  Se  Se197  1  0.58637916  0.91809765  0.30284227  1
  Se  Se198  1  0.58636174  0.91580626  0.79431980  1
  Se  Se199  1  0.92085671  0.25723228  0.29569569  1
  Se  Se200  1  0.90541136  0.25794116  0.79675916  1
  Se  Se201  1  0.92002817  0.58609617  0.30335469  1
  Se  Se202  1  0.91920047  0.58684834  0.80934443  1
  Se  Se203  1  0.91287051  0.90516419  0.31538583  1
  Se  Se204  1  0.91936579  0.92147923  0.80169194  1
  Se  Se205  1  0.09124721  0.09415574  0.31104866  1
  Se  Se206  1  0.08610569  0.08887173  0.79150135  1
  Se  Se207  1  0.08127190  0.41738292  0.30263146  1
  Se  Se208  1  0.08029887  0.41808968  0.80241585  1
  Se  Se209  1  0.07424627  0.74459531  0.30914277  1
  Se  Se210  1  0.08385344  0.75547589  0.80414203  1
  Se  Se211  1  0.42457245  0.09350228  0.31652202  1
  Se  Se212  1  0.41535425  0.08264866  0.80696325  1
  Se  Se213  1  0.41729003  0.41616327  0.30295734  1
  Se  Se214  1  0.42235131  0.42256948  0.81287848  1
  Se  Se215  1  0.41208347  0.75139535  0.30203414  1
  Se  Se216  1  0.41817260  0.74471172  0.79418547  1
  Se  Se217  1  0.76224393  0.08205926  0.30267830  1
  Se  Se218  1  0.74654596  0.08005600  0.80106009  1
  Se  Se219  1  0.75640182  0.42424191  0.30839328  1
  Se  Se220  1  0.75699455  0.42530050  0.81530225  1
  Se  Se221  1  0.75455343  0.75091599  0.31447098  1
  Se  Se222  1  0.76944322  0.75065440  0.81427483  1
  Se  Se223  1  0.24533103  0.08681371  0.19063294  1
  Se  Se224  1  0.23876847  0.09461231  0.68981324  1
  Se  Se225  1  0.25157883  0.41810680  0.19734884  1
  Se  Se226  1  0.24345309  0.42087792  0.68758667  1
  Se  Se227  1  0.25175036  0.74796406  0.20423409  1
  Se  Se228  1  0.25489905  0.74366036  0.69394008  1
  Se  Se229  1  0.58682280  0.08189269  0.20512867  1
  Se  Se230  1  0.58516123  0.07783620  0.69370766  1
  Se  Se231  1  0.58420820  0.43739844  0.18664736  1
  Se  Se232  1  0.57443333  0.42294760  0.69739154  1
  Se  Se233  1  0.57474938  0.76061520  0.18766397  1
  Se  Se234  1  0.58948294  0.75230909  0.68382732  1
  Se  Se235  1  0.91254594  0.08544509  0.18810929  1
  Se  Se236  1  0.91555431  0.08437035  0.69548508  1
  Se  Se237  1  0.92435898  0.41750871  0.19433098  1
  Se  Se238  1  0.91723369  0.41809425  0.69585633  1
  Se  Se239  1  0.91044665  0.74492564  0.19514730  1
  Se  Se240  1  0.92284681  0.74533511  0.70107703  1
  Se  Se241  1  0.08368270  0.24964696  0.19746885  1
  Se  Se242  1  0.07676847  0.25501807  0.70321279  1
  Se  Se243  1  0.08223136  0.58503383  0.19625808  1
  Se  Se244  1  0.08145284  0.58511712  0.69620287  1
  Se  Se245  1  0.08433910  0.90640494  0.19516764  1
  Se  Se246  1  0.08595255  0.91392784  0.69638633  1
  Se  Se247  1  0.42082731  0.25530414  0.20500882  1
  Se  Se248  1  0.41836454  0.24518161  0.69026276  1
  Se  Se249  1  0.41047474  0.58946105  0.19560133  1
  Se  Se250  1  0.42571152  0.57927512  0.70103099  1
  Se  Se251  1  0.42013987  0.91296619  0.18808893  1
  Se  Se252  1  0.42446700  0.90461851  0.68129547  1
  Se  Se253  1  0.76109026  0.24716164  0.19327382  1
  Se  Se254  1  0.75252462  0.24877718  0.68446327  1
  Se  Se255  1  0.75887671  0.57967230  0.18962876  1
  Se  Se256  1  0.75954718  0.57776659  0.69121682  1
  Se  Se257  1  0.75109038  0.91902037  0.20192065  1
  Se  Se258  1  0.75140859  0.91849571  0.69996070  1
