# generated using pymatgen
data_In86Cu29Se144
_symmetry_space_group_name_H-M   'P 1'
_cell_length_a   17.58453507
_cell_length_b   17.58527184
_cell_length_c   23.44645407
_cell_angle_alpha   89.98914342
_cell_angle_beta   89.99484787
_cell_angle_gamma   90.03765151
_symmetry_Int_Tables_number   1
_chemical_formula_structural   In86Cu29Se144
_chemical_formula_sum   'In86 Cu29 Se144'
_cell_volume   7250.31782089
_cell_formula_units_Z   1
loop_
 _symmetry_equiv_pos_site_id
 _symmetry_equiv_pos_as_xyz
  1  'x, y, z'
loop_
 _atom_site_type_symbol
 _atom_site_label
 _atom_site_symmetry_multiplicity
 _atom_site_fract_x
 _atom_site_fract_y
 _atom_site_fract_z
 _atom_site_occupancy
  In  In0  1  0.00964811  0.16502652  0.12726660  1
  In  In1  1  -0.00684379  0.15715926  0.61364318  1
  In  In2  1  -0.00471399  0.49589624  0.14170907  1
  In  In3  1  -0.00611177  0.51033918  0.62113439  1
  In  In4  1  -0.01833499  0.83588783  0.12384078  1
  In  In5  1  -0.00495770  0.85040275  0.62461215  1
  In  In6  1  0.33236703  0.16367246  0.12759096  1
  In  In7  1  0.33266125  0.17098912  0.62683993  1
  In  In8  1  0.34143038  0.47637635  0.11910976  1
  In  In9  1  0.33442321  0.47740149  0.62630797  1
  In  In10  1  0.35872105  0.83673229  0.12834571  1
  In  In11  1  0.34627370  0.83891734  0.63030513  1
  In  In12  1  0.64899615  0.17536058  0.12262170  1
  In  In13  1  0.67516007  0.15732800  0.63425379  1
  In  In14  1  0.66391567  0.50162488  0.12716074  1
  In  In15  1  0.66568539  0.50007567  0.62060380  1
  In  In16  1  0.66088474  0.82736935  0.12785550  1
  In  In17  1  0.68224448  0.82578943  0.64226779  1
  In  In18  1  0.17523574  0.00583168  0.37233697  1
  In  In19  1  0.18232412  0.01681821  0.86703489  1
  In  In20  1  0.15921582  0.32377143  0.36380137  1
  In  In21  1  0.17564970  0.30813058  0.88706340  1
  In  In22  1  0.15234238  0.67723877  0.37003123  1
  In  In23  1  0.16601592  0.65421040  0.87704815  1
  In  In24  1  0.50631534  0.00131908  0.36155042  1
  In  In25  1  0.50033635  0.00513409  0.88237997  1
  In  In26  1  0.50133637  0.34703770  0.37050889  1
  In  In27  1  0.50120691  0.33204195  0.87945976  1
  In  In28  1  0.49934156  0.65413085  0.37082896  1
  In  In29  1  0.52327465  0.65701348  0.88190450  1
  In  In30  1  0.82575262  0.01127661  0.38114606  1
  In  In31  1  0.81536374  -0.01850494  0.85708930  1
  In  In32  1  0.83997114  0.32251883  0.38121718  1
  In  In33  1  0.83024849  0.34774926  0.87495698  1
  In  In34  1  0.82873085  0.66421176  0.37831422  1
  In  In35  1  0.81873642  0.68859059  0.87762335  1
  In  In36  1  -0.00577127  0.17473384  0.37537078  1
  In  In37  1  0.01261246  0.16247640  0.88039953  1
  In  In38  1  -0.02230576  0.48363215  0.35943388  1
  In  In39  1  -0.00517380  0.50086694  0.87428843  1
  In  In40  1  -0.01077990  0.81579032  0.36882884  1
  In  In41  1  -0.02041817  0.84063438  0.87659845  1
  In  In42  1  0.32537534  0.16189253  0.36555658  1
  In  In43  1  0.33994254  0.16914507  0.88121007  1
  In  In44  1  0.34857510  0.49552075  0.37252353  1
  In  In45  1  0.35872732  0.48930338  0.88470061  1
  In  In46  1  0.32939799  0.83730779  0.36770605  1
  In  In47  1  0.33664934  0.85323517  0.87849846  1
  In  In48  1  0.68364627  0.16294984  0.36915495  1
  In  In49  1  0.66036658  0.16362391  0.87486718  1
  In  In50  1  0.65681974  0.50642469  0.37976209  1
  In  In51  1  0.65078471  0.48819657  0.85842825  1
  In  In52  1  0.67860521  0.84886937  0.36224314  1
  In  In53  1  0.66857898  0.83345172  0.87578969  1
  In  In54  1  0.17265915  0.02649154  0.12499754  1
  In  In55  1  0.15989868  0.00939205  0.62793603  1
  In  In56  1  0.19205367  0.29548958  0.16142679  1
  In  In57  1  0.18513378  0.32578230  0.62683618  1
  In  In58  1  0.16281435  0.65810137  0.12855829  1
  In  In59  1  0.15371789  0.66375186  0.62365265  1
  In  In60  1  0.50089565  -0.00244805  0.12882334  1
  In  In61  1  0.50479032  -0.00467818  0.63937221  1
  In  In62  1  0.47698718  0.30502455  0.08963317  1
  In  In63  1  0.49475786  0.33538083  0.62745646  1
  In  In64  1  0.51631061  0.67661463  0.11806077  1
  In  In65  1  0.51463845  0.67251860  0.62373666  1
  In  In66  1  0.83288374  -0.01814608  0.12233368  1
  In  In67  1  0.83174757  0.00251598  0.62323467  1
  In  In68  1  0.83251341  0.34489288  0.13568598  1
  In  In69  1  0.82705129  0.32678931  0.61692169  1
  In  In70  1  0.80722417  0.67168294  0.14411199  1
  In  In71  1  0.82427330  0.66393438  0.61470584  1
  In  In72  1  0.66289644  0.33727919  0.24525999  1
  In  In73  1  0.50847958  0.83574639  0.49729065  1
  In  In74  1  0.16970080  0.84233731  -0.00312722  1
  In  In75  1  0.16404169  0.49609043  0.49847763  1
  In  In76  1  -0.00140592  0.32863123  0.74836131  1
  In  In77  1  0.50291140  0.16952981  0.50066238  1
  In  In78  1  0.83086820  0.16296340  -0.00518391  1
  In  In79  1  0.82642603  0.50421499  0.01185471  1
  In  In80  1  0.16509423  0.84129114  0.49191269  1
  In  In81  1  -0.00412878  0.67100867  0.74500002  1
  In  In82  1  -0.00024992  0.00377673  0.24810373  1
  In  In83  1  0.16663315  0.49186055  0.01009046  1
  In  In84  1  0.33340421  0.66408164  0.24691968  1
  In  In85  1  0.34073761  0.67026525  0.75112429  1
  Cu  Cu86  1  0.49887196  0.84167407  0.75851725  1
  Cu  Cu87  1  0.67531860  0.66724078  0.00257710  1
  Cu  Cu88  1  0.49989184  0.49619177  0.24120977  1
  Cu  Cu89  1  0.82712659  0.82818841  0.24894090  1
  Cu  Cu90  1  0.49612370  0.16953761  0.24283392  1
  Cu  Cu91  1  0.66677386  0.67009810  0.49935972  1
  Cu  Cu92  1  -0.01129229  0.66562655  0.49502045  1
  Cu  Cu93  1  -0.00176688  0.00146576  -0.00034148  1
  Cu  Cu94  1  0.33737248  0.65590538  0.49613109  1
  Cu  Cu95  1  0.49633965  0.16945726  0.75720841  1
  Cu  Cu96  1  0.34219553  0.67313642  0.00348054  1
  Cu  Cu97  1  0.17250844  0.16289224  0.75251700  1
  Cu  Cu98  1  0.16120348  0.50296887  0.24943898  1
  Cu  Cu99  1  0.66877484  0.33499221  0.49647461  1
  Cu  Cu100  1  -0.01009264  0.67097440  0.00746897  1
  Cu  Cu101  1  0.33461339  0.32920292  0.49998285  1
  Cu  Cu102  1  0.00354563  0.33516622  0.49342544  1
  Cu  Cu103  1  -0.00215448  0.00380440  0.49970297  1
  Cu  Cu104  1  0.66772171  -0.00885265  0.00112497  1
  Cu  Cu105  1  0.17644658  0.48332794  0.75743005  1
  Cu  Cu106  1  0.83797812  0.16651399  0.74633365  1
  Cu  Cu107  1  0.00535745  0.33245463  0.01234282  1
  Cu  Cu108  1  0.16946122  0.84533230  0.24686927  1
  Cu  Cu109  1  0.16278110  0.83542348  0.75233608  1
  Cu  Cu110  1  0.67152609  0.00265689  0.50350656  1
  Cu  Cu111  1  0.82335773  0.50759671  0.74579428  1
  Cu  Cu112  1  0.33520518  0.00661276  0.00305752  1
  Cu  Cu113  1  0.50263310  0.49680796  0.75164820  1
  Cu  Cu114  1  0.33350142  0.00507029  0.49814296  1
  Se  Se115  1  0.08179111  0.08638794  0.04992404  1
  Se  Se116  1  0.08961230  0.08357496  0.54809231  1
  Se  Se117  1  0.08118586  0.40903071  0.07530951  1
  Se  Se118  1  0.07910498  0.40650315  0.56505942  1
  Se  Se119  1  0.08191283  0.74908388  0.05924029  1
  Se  Se120  1  0.07325188  0.74797140  0.55243827  1
  Se  Se121  1  0.41949001  0.08321011  0.05982010  1
  Se  Se122  1  0.41898819  0.07401603  0.56145059  1
  Se  Se123  1  0.42978508  0.42835496  0.04075627  1
  Se  Se124  1  0.41940855  0.41360226  0.55004449  1
  Se  Se125  1  0.42768986  0.75796467  0.05142793  1
  Se  Se126  1  0.41096578  0.74417499  0.55519143  1
  Se  Se127  1  0.74501641  0.07647823  0.06059884  1
  Se  Se128  1  0.75230112  0.09101886  0.55378445  1
  Se  Se129  1  0.73834796  0.40148204  0.05849854  1
  Se  Se130  1  0.75119970  0.41896967  0.55131367  1
  Se  Se131  1  0.75453925  0.74985176  0.05941896  1
  Se  Se132  1  0.74260027  0.75937847  0.55412080  1
  Se  Se133  1  0.24683213  0.25488327  0.06563203  1
  Se  Se134  1  0.25156476  0.24320811  0.54999198  1
  Se  Se135  1  0.26256415  0.59037442  0.06104727  1
  Se  Se136  1  0.25514017  0.58570918  0.56134011  1
  Se  Se137  1  0.25662332  0.92429259  0.06478898  1
  Se  Se138  1  0.25891389  0.91932056  0.55930431  1
  Se  Se139  1  0.58926955  0.24247142  0.03695626  1
  Se  Se140  1  0.59381207  0.25446588  0.56194925  1
  Se  Se141  1  0.58948788  0.58182375  0.05219069  1
  Se  Se142  1  0.58274225  0.58583546  0.55135544  1
  Se  Se143  1  0.58262720  0.91384463  0.05813386  1
  Se  Se144  1  0.59129273  0.92306648  0.56313728  1
  Se  Se145  1  0.91298906  0.25461499  0.06292867  1
  Se  Se146  1  0.92029990  0.25396616  0.55047703  1
  Se  Se147  1  0.91864306  0.59038749  0.07074258  1
  Se  Se148  1  0.90936921  0.57916259  0.54811563  1
  Se  Se149  1  0.91352091  0.91287487  0.04460150  1
  Se  Se150  1  0.91319932  0.92049547  0.55042448  1
  Se  Se151  1  0.08692077  0.25075222  0.44335925  1
  Se  Se152  1  0.08130668  0.24460770  0.95724214  1
  Se  Se153  1  0.07606513  0.58666719  0.43900306  1
  Se  Se154  1  0.07015503  0.58695167  0.95097075  1
  Se  Se155  1  0.06987949  0.92434004  0.43130382  1
  Se  Se156  1  0.08075755  0.92765686  0.93406918  1
  Se  Se157  1  0.41433442  0.25329735  0.43602433  1
  Se  Se158  1  0.42157965  0.24996982  0.95063906  1
  Se  Se159  1  0.42455230  0.57516015  0.44703756  1
  Se  Se160  1  0.42285062  0.59058419  0.94746424  1
  Se  Se161  1  0.41247334  0.92453391  0.43908066  1
  Se  Se162  1  0.41915902  0.92012560  0.95390668  1
  Se  Se163  1  0.74860079  0.24472886  0.44779701  1
  Se  Se164  1  0.74554642  0.26116827  0.94007043  1
  Se  Se165  1  0.74662563  0.58153693  0.44835955  1
  Se  Se166  1  0.74557205  0.58284185  0.93730124  1
  Se  Se167  1  0.74773323  0.91695230  0.44588962  1
  Se  Se168  1  0.75418541  0.91611726  0.94494606  1
  Se  Se169  1  0.25136842  0.08770024  0.44532637  1
  Se  Se170  1  0.25004170  0.08741130  0.94899698  1
  Se  Se171  1  0.25569379  0.41027986  0.43787364  1
  Se  Se172  1  0.25695997  0.40922062  0.94598257  1
  Se  Se173  1  0.25800456  0.74038334  0.44000780  1
  Se  Se174  1  0.25656238  0.74257044  0.93995256  1
  Se  Se175  1  0.58927885  0.07735902  0.44058418  1
  Se  Se176  1  0.58932149  0.08204802  0.95107080  1
  Se  Se177  1  0.57936644  0.41616152  0.44840256  1
  Se  Se178  1  0.57966330  0.42906610  0.94135695  1
  Se  Se179  1  0.59004261  0.74597277  0.43302303  1
  Se  Se180  1  0.59053345  0.75202343  0.95022170  1
  Se  Se181  1  0.91621938  0.08928470  0.44628774  1
  Se  Se182  1  0.91491243  0.07093266  0.93318796  1
  Se  Se183  1  0.91530487  0.41850266  0.44644713  1
  Se  Se184  1  0.92582626  0.41303354  0.95104750  1
  Se  Se185  1  0.90639170  0.75571440  0.44817609  1
  Se  Se186  1  0.91200931  0.75204257  0.94955381  1
  Se  Se187  1  0.26491582  0.26550628  0.30146085  1
  Se  Se188  1  0.25385477  0.24555075  0.80695419  1
  Se  Se189  1  0.24283164  0.57877823  0.31352028  1
  Se  Se190  1  0.25566727  0.57160083  0.81178710  1
  Se  Se191  1  0.25308724  0.92494546  0.29992800  1
  Se  Se192  1  0.25091449  0.91712086  0.80248819  1
  Se  Se193  1  0.57690832  0.24235026  0.31004897  1
  Se  Se194  1  0.58344704  0.25272364  0.80696896  1
  Se  Se195  1  0.58085752  0.57603818  0.29870290  1
  Se  Se196  1  0.58527868  0.59093142  0.79444385  1
  Se  Se197  1  0.57446781  0.90546760  0.29802163  1
  Se  Se198  1  0.58251388  0.92230059  0.81236572  1
  Se  Se199  1  0.90341460  0.23968764  0.30392102  1
  Se  Se200  1  0.91131920  0.24335909  0.81490960  1
  Se  Se201  1  0.93693714  0.60932650  0.31430790  1
  Se  Se202  1  0.90485022  0.58317614  0.80934090  1
  Se  Se203  1  0.90830893  0.91208076  0.30677519  1
  Se  Se204  1  0.91849973  0.91520659  0.79575581  1
  Se  Se205  1  0.08895603  0.09372785  0.30690127  1
  Se  Se206  1  0.08126779  0.08368642  0.80216543  1
  Se  Se207  1  0.08044920  0.41474804  0.29945589  1
  Se  Se208  1  0.08973133  0.41085155  0.81731383  1
  Se  Se209  1  0.08405586  0.75910936  0.29437770  1
  Se  Se210  1  0.08757339  0.75223780  0.81334778  1
  Se  Se211  1  0.41732323  0.08583952  0.30041971  1
  Se  Se212  1  0.41611839  0.08293790  0.81046449  1
  Se  Se213  1  0.41546783  0.41425387  0.29488419  1
  Se  Se214  1  0.41982983  0.41253562  0.80356946  1
  Se  Se215  1  0.42329063  0.75407769  0.30629312  1
  Se  Se216  1  0.42373308  0.75474083  0.81896723  1
  Se  Se217  1  0.74280669  0.06674935  0.30039213  1
  Se  Se218  1  0.75020606  0.09214478  0.80335168  1
  Se  Se219  1  0.74561010  0.41316818  0.31897944  1
  Se  Se220  1  0.75007680  0.41411582  0.79718190  1
  Se  Se221  1  0.74707286  0.74247045  0.30418976  1
  Se  Se222  1  0.74947607  0.76035276  0.79960778  1
  Se  Se223  1  0.24473216  0.09652140  0.20301519  1
  Se  Se224  1  0.25400266  0.08190999  0.69413022  1
  Se  Se225  1  0.24834460  0.42561440  0.19549560  1
  Se  Se226  1  0.25940428  0.40253733  0.70351133  1
  Se  Se227  1  0.24626633  0.75993237  0.18628242  1
  Se  Se228  1  0.24076666  0.75440292  0.68946284  1
  Se  Se229  1  0.58407460  0.08592312  0.19555888  1
  Se  Se230  1  0.58091752  0.08870583  0.70250527  1
  Se  Se231  1  0.56692822  0.40839552  0.17890295  1
  Se  Se232  1  0.58399911  0.41767524  0.69150428  1
  Se  Se233  1  0.59572893  0.73297582  0.19901415  1
  Se  Se234  1  0.57619532  0.75723656  0.70068364  1
  Se  Se235  1  0.90641110  0.08494199  0.18553901  1
  Se  Se236  1  0.92026101  0.08427807  0.69201390  1
  Se  Se237  1  0.90350488  0.42465721  0.20982374  1
  Se  Se238  1  0.91111157  0.42566440  0.69101170  1
  Se  Se239  1  0.91529474  0.74776434  0.19677082  1
  Se  Se240  1  0.90630915  0.75749336  0.68511717  1
  Se  Se241  1  0.06114438  0.25933721  0.20121575  1
  Se  Se242  1  0.08993972  0.24010412  0.68885937  1
  Se  Se243  1  0.07794273  0.59113237  0.20216528  1
  Se  Se244  1  0.09390852  0.56642299  0.69929985  1
  Se  Se245  1  0.08810256  0.91664375  0.18098910  1
  Se  Se246  1  0.08429191  0.91865492  0.69560165  1
  Se  Se247  1  0.42295429  0.25697799  0.18571531  1
  Se  Se248  1  0.41732518  0.24895997  0.69612750  1
  Se  Se249  1  0.42076536  0.58077527  0.18171140  1
  Se  Se250  1  0.42178078  0.57549742  0.68648107  1
  Se  Se251  1  0.41915951  0.92160090  0.20335614  1
  Se  Se252  1  0.41121180  0.92176150  0.70651819  1
  Se  Se253  1  0.75226205  0.23987073  0.19130305  1
  Se  Se254  1  0.75473675  0.25329391  0.69622560  1
  Se  Se255  1  0.76607158  0.55055755  0.19774275  1
  Se  Se256  1  0.74416823  0.58976809  0.68973242  1
  Se  Se257  1  0.74655889  0.91317328  0.19539894  1
  Se  Se258  1  0.73485941  0.94216335  0.69418817  1
