# generated using pymatgen
data_In86Cu29Se144
_symmetry_space_group_name_H-M   'P 1'
_cell_length_a   17.56886355
_cell_length_b   17.56515580
_cell_length_c   23.42668093
_cell_angle_alpha   90.01185346
_cell_angle_beta   89.97090019
_cell_angle_gamma   89.97811308
_symmetry_Int_Tables_number   1
_chemical_formula_structural   In86Cu29Se144
_chemical_formula_sum   'In86 Cu29 Se144'
_cell_volume   7229.46803178
_cell_formula_units_Z   1
loop_
 _symmetry_equiv_pos_site_id
 _symmetry_equiv_pos_as_xyz
  1  'x, y, z'
loop_
 _atom_site_type_symbol
 _atom_site_label
 _atom_site_symmetry_multiplicity
 _atom_site_fract_x
 _atom_site_fract_y
 _atom_site_fract_z
 _atom_site_occupancy
  In  In0  1  -0.00814884  0.17071473  0.13308943  1
  In  In1  1  -0.01364137  0.16376357  0.62655701  1
  In  In2  1  -0.00246282  0.50648179  0.13173435  1
  In  In3  1  0.00740688  0.50911977  0.61183027  1
  In  In4  1  -0.00059158  0.83428166  0.12639419  1
  In  In5  1  0.01217445  0.81609401  0.63315401  1
  In  In6  1  0.33550247  0.17635217  0.12360077  1
  In  In7  1  0.33262668  0.14937145  0.62553606  1
  In  In8  1  0.36463200  0.50908695  0.11552465  1
  In  In9  1  0.33760125  0.51436680  0.62604617  1
  In  In10  1  0.32243956  0.82010838  0.11672330  1
  In  In11  1  0.33279519  0.82990536  0.62429313  1
  In  In12  1  0.65991535  0.15780788  0.13108507  1
  In  In13  1  0.67285663  0.16928231  0.61567789  1
  In  In14  1  0.68516455  0.53264923  0.10109314  1
  In  In15  1  0.66431074  0.50000920  0.61753766  1
  In  In16  1  0.66823405  0.82812740  0.11824227  1
  In  In17  1  0.65955597  0.84249615  0.62565384  1
  In  In18  1  0.15028854  -0.00370325  0.37822985  1
  In  In19  1  0.15839078  -0.01176551  0.86935551  1
  In  In20  1  0.16951319  0.34804125  0.37446872  1
  In  In21  1  0.15418917  0.34316645  0.87236605  1
  In  In22  1  0.16719851  0.66781113  0.37420955  1
  In  In23  1  0.18230253  0.67131136  0.86419010  1
  In  In24  1  0.51001810  -0.01065854  0.37936794  1
  In  In25  1  0.49425558  -0.00723873  0.87336865  1
  In  In26  1  0.49518963  0.34041969  0.38436910  1
  In  In27  1  0.50397198  0.33381769  0.87609895  1
  In  In28  1  0.49759033  0.66942827  0.37389918  1
  In  In29  1  0.49542415  0.67202613  0.88046601  1
  In  In30  1  0.83969796  0.00174613  0.37146087  1
  In  In31  1  0.82994608  -0.01197581  0.87599184  1
  In  In32  1  0.83766596  0.32844042  0.37647945  1
  In  In33  1  0.84527233  0.34990058  0.88034400  1
  In  In34  1  0.82386632  0.65845752  0.36849906  1
  In  In35  1  0.83735080  0.66043770  0.88732313  1
  In  In36  1  -0.01330540  0.15637705  0.37070252  1
  In  In37  1  0.00675355  0.16974786  0.86958991  1
  In  In38  1  0.00065730  0.50185572  0.37076409  1
  In  In39  1  -0.01049878  0.50392927  0.87521040  1
  In  In40  1  0.00520625  0.83939712  0.37194339  1
  In  In41  1  0.00410236  0.83211676  0.87880378  1
  In  In42  1  0.33662190  0.18149002  0.38025069  1
  In  In43  1  0.34824684  0.15624723  0.86554386  1
  In  In44  1  0.32591924  0.50810582  0.38108317  1
  In  In45  1  0.32811757  0.51427194  0.86899383  1
  In  In46  1  0.34226850  0.82167583  0.38097175  1
  In  In47  1  0.33165422  0.83058303  0.87519310  1
  In  In48  1  0.67850087  0.15757946  0.38059284  1
  In  In49  1  0.66094157  0.15966926  0.87483737  1
  In  In50  1  0.65698603  0.50995069  0.37956460  1
  In  In51  1  0.66109457  0.51293410  0.89099275  1
  In  In52  1  0.65998498  0.82188857  0.36528866  1
  In  In53  1  0.66859662  0.82631771  0.90574218  1
  In  In54  1  0.16578789  -0.01755950  0.12277125  1
  In  In55  1  0.17370052  -0.01425407  0.63236015  1
  In  In56  1  0.16417436  0.33117264  0.12852120  1
  In  In57  1  0.15399724  0.34127891  0.62137798  1
  In  In58  1  0.15694453  0.67344143  0.13291368  1
  In  In59  1  0.16459204  0.66582569  0.62389484  1
  In  In60  1  0.51944686  -0.01037492  0.12818327  1
  In  In61  1  0.48976993  -0.01377507  0.61518598  1
  In  In62  1  0.49767504  0.36145178  0.12342406  1
  In  In63  1  0.50786059  0.34093454  0.61832669  1
  In  In64  1  0.49885799  0.66753190  0.12520380  1
  In  In65  1  0.48134098  0.65358347  0.62036229  1
  In  In66  1  0.83642764  -0.00603044  0.12801631  1
  In  In67  1  0.83743070  0.01196849  0.62752844  1
  In  In68  1  0.83709334  0.34988198  0.12436340  1
  In  In69  1  0.83202897  0.33241380  0.61648001  1
  In  In70  1  0.83610577  0.67188681  0.12462131  1
  In  In71  1  0.84991104  0.66496877  0.62490105  1
  In  In72  1  0.83148708  0.16722709  0.00489441  1
  In  In73  1  0.67196186  0.33888283  0.74055326  1
  In  In74  1  0.16882276  0.50374145  -0.00305293  1
  In  In75  1  0.33191924  0.34076331  0.24739251  1
  In  In76  1  0.16520784  0.16374887  -0.00924613  1
  In  In77  1  0.66707912  0.67053478  0.76146003  1
  In  In78  1  0.66937494  0.33475545  0.24899493  1
  In  In79  1  0.66656129  -0.00504118  0.75573403  1
  In  In80  1  -0.00165981  0.33959449  0.75244277  1
  In  In81  1  0.50095133  0.16119840  -0.00165978  1
  In  In82  1  0.16531349  0.16736397  0.50164263  1
  In  In83  1  0.33023732  0.33460551  0.74679424  1
  In  In84  1  0.33047868  -0.00088790  0.25012863  1
  In  In85  1  0.83119346  0.83058043  0.50116141  1
  Cu  Cu86  1  0.83491785  0.50569204  0.24736195  1
  Cu  Cu87  1  0.66883607  0.33534300  0.49538864  1
  Cu  Cu88  1  0.00269128  0.66317878  0.49717993  1
  Cu  Cu89  1  0.16254363  0.83176931  0.25042977  1
  Cu  Cu90  1  -0.00304081  0.33619972  0.49538999  1
  Cu  Cu91  1  0.83410335  0.50499549  0.75230483  1
  Cu  Cu92  1  0.49679113  0.82863211  0.75161015  1
  Cu  Cu93  1  0.66403239  -0.00046952  0.49930242  1
  Cu  Cu94  1  0.83448299  0.16069591  0.25356968  1
  Cu  Cu95  1  0.33979763  -0.00943745  -0.00147442  1
  Cu  Cu96  1  0.66423780  0.33398817  0.00131296  1
  Cu  Cu97  1  0.50540250  0.16603696  0.25544770  1
  Cu  Cu98  1  0.84374948  0.83098509  0.75736409  1
  Cu  Cu99  1  0.33877573  0.33922823  0.50418923  1
  Cu  Cu100  1  0.16796866  0.83261823  0.75065891  1
  Cu  Cu101  1  0.16900303  0.15807082  0.74975591  1
  Cu  Cu102  1  0.33069843  0.66783661  0.50014685  1
  Cu  Cu103  1  0.00382941  0.67354806  0.00456668  1
  Cu  Cu104  1  0.66086317  0.67017463  0.49512502  1
  Cu  Cu105  1  -0.00057971  -0.00237693  0.00229883  1
  Cu  Cu106  1  0.33554074  -0.00186001  0.50246026  1
  Cu  Cu107  1  0.50517259  0.51559103  0.24963289  1
  Cu  Cu108  1  -0.00270048  -0.00508801  0.50000662  1
  Cu  Cu109  1  0.83230627  0.83160575  0.24616334  1
  Cu  Cu110  1  0.33287905  0.66949740  -0.00283210  1
  Cu  Cu111  1  0.15457349  0.16264588  0.24927851  1
  Cu  Cu112  1  0.50007605  0.82973337  0.24862690  1
  Cu  Cu113  1  0.16860470  0.50583238  0.25194957  1
  Cu  Cu114  1  0.50352643  0.15779325  0.74180927  1
  Se  Se115  1  0.07838780  0.08170475  0.06112578  1
  Se  Se116  1  0.07943589  0.07468154  0.56212688  1
  Se  Se117  1  0.08015535  0.41633074  0.06008129  1
  Se  Se118  1  0.08453100  0.41892929  0.54416837  1
  Se  Se119  1  0.08849339  0.75587944  0.05676189  1
  Se  Se120  1  0.08356579  0.74884468  0.55092249  1
  Se  Se121  1  0.41115352  0.07276670  0.06277028  1
  Se  Se122  1  0.41990608  0.08579868  0.55021651  1
  Se  Se123  1  0.39760616  0.39764721  0.04887539  1
  Se  Se124  1  0.41812781  0.42563799  0.55766384  1
  Se  Se125  1  0.41939394  0.74995994  0.05182068  1
  Se  Se126  1  0.41666707  0.75136462  0.55237845  1
  Se  Se127  1  0.73985864  0.07547706  0.05919956  1
  Se  Se128  1  0.75311899  0.07846918  0.55133528  1
  Se  Se129  1  0.75115010  0.41745546  0.05090798  1
  Se  Se130  1  0.75077627  0.41912351  0.55090603  1
  Se  Se131  1  0.74107946  0.73290521  0.05247232  1
  Se  Se132  1  0.74096251  0.74140754  0.56330813  1
  Se  Se133  1  0.25232846  0.25654367  0.05274330  1
  Se  Se134  1  0.25736809  0.25670282  0.56323899  1
  Se  Se135  1  0.25475800  0.59136775  0.06237098  1
  Se  Se136  1  0.24812508  0.58300033  0.55371354  1
  Se  Se137  1  0.24839005  0.91234894  0.04851464  1
  Se  Se138  1  0.25035067  0.91531885  0.55423574  1
  Se  Se139  1  0.58556533  0.25564785  0.06314006  1
  Se  Se140  1  0.58594216  0.25236059  0.55149804  1
  Se  Se141  1  0.54877232  0.55199673  0.06445129  1
  Se  Se142  1  0.58062890  0.58706697  0.55361532  1
  Se  Se143  1  0.58256251  0.91169978  0.05033080  1
  Se  Se144  1  0.58158148  0.91085314  0.54776518  1
  Se  Se145  1  0.92480077  0.26058618  0.05727504  1
  Se  Se146  1  0.91991604  0.24963780  0.55128524  1
  Se  Se147  1  0.92329324  0.58695063  0.05732996  1
  Se  Se148  1  0.91149293  0.58251621  0.54590716  1
  Se  Se149  1  0.91582522  0.91462004  0.05510760  1
  Se  Se150  1  0.92209125  0.91457160  0.56484913  1
  Se  Se151  1  0.07857237  0.25288065  0.43590522  1
  Se  Se152  1  0.06943137  0.26391418  0.94499836  1
  Se  Se153  1  0.08601164  0.58026015  0.44194869  1
  Se  Se154  1  0.08082764  0.59625500  0.93812376  1
  Se  Se155  1  0.08268876  0.90961300  0.45203537  1
  Se  Se156  1  0.08641673  0.91680504  0.94946751  1
  Se  Se157  1  0.42006261  0.25132052  0.45382787  1
  Se  Se158  1  0.40788048  0.25093346  0.94016294  1
  Se  Se159  1  0.41730322  0.58642695  0.44539668  1
  Se  Se160  1  0.41162310  0.58118928  0.94484200  1
  Se  Se161  1  0.41721421  0.91591823  0.44575133  1
  Se  Se162  1  0.42221526  0.90716121  0.94518784  1
  Se  Se163  1  0.75415116  0.24886609  0.44669234  1
  Se  Se164  1  0.74271972  0.25656322  0.93839427  1
  Se  Se165  1  0.74869435  0.58588287  0.44720070  1
  Se  Se166  1  0.75065905  0.58571531  0.95731554  1
  Se  Se167  1  0.74349033  0.91771471  0.43767812  1
  Se  Se168  1  0.75444514  0.92410971  0.95515761  1
  Se  Se169  1  0.25568296  0.07710460  0.43946142  1
  Se  Se170  1  0.26213460  0.07307127  0.93683638  1
  Se  Se171  1  0.25184260  0.41673244  0.44959123  1
  Se  Se172  1  0.25625678  0.41052632  0.93593281  1
  Se  Se173  1  0.24642075  0.75101831  0.44669183  1
  Se  Se174  1  0.24582645  0.75010332  0.94503585  1
  Se  Se175  1  0.58188181  0.08510794  0.44556902  1
  Se  Se176  1  0.59218321  0.06587974  0.94443381  1
  Se  Se177  1  0.58175665  0.42235432  0.44946637  1
  Se  Se178  1  0.57869842  0.41516765  0.94843568  1
  Se  Se179  1  0.57922558  0.75540372  0.44363430  1
  Se  Se180  1  0.59298664  0.72177622  0.95490933  1
  Se  Se181  1  0.91416355  0.07979654  0.44877974  1
  Se  Se182  1  0.92525312  0.08258114  0.94141770  1
  Se  Se183  1  0.91579789  0.42050391  0.44097058  1
  Se  Se184  1  0.92066069  0.42709967  0.95286523  1
  Se  Se185  1  0.91940301  0.74371832  0.43772496  1
  Se  Se186  1  0.91832665  0.75398532  0.94913947  1
  Se  Se187  1  0.24079668  0.24333922  0.30517499  1
  Se  Se188  1  0.24173568  0.24271472  0.81133741  1
  Se  Se189  1  0.25450984  0.58716154  0.30456308  1
  Se  Se190  1  0.25225117  0.58364783  0.79219796  1
  Se  Se191  1  0.24331587  0.91072096  0.31290945  1
  Se  Se192  1  0.25327246  0.91576098  0.80381475  1
  Se  Se193  1  0.58053229  0.25062951  0.31500076  1
  Se  Se194  1  0.57901794  0.24218252  0.80110354  1
  Se  Se195  1  0.58984116  0.59476355  0.30432579  1
  Se  Se196  1  0.57486154  0.57448949  0.81111014  1
  Se  Se197  1  0.58256925  0.91600618  0.30018706  1
  Se  Se198  1  0.58535833  0.89628277  0.81490155  1
  Se  Se199  1  0.91641876  0.25026025  0.30230583  1
  Se  Se200  1  0.90415049  0.24901676  0.80881612  1
  Se  Se201  1  0.91917550  0.58737942  0.30195763  1
  Se  Se202  1  0.91305377  0.59121928  0.80602569  1
  Se  Se203  1  0.91537167  0.91365405  0.30282057  1
  Se  Se204  1  0.92363342  0.91900209  0.80852691  1
  Se  Se205  1  0.07707722  0.07717015  0.30425611  1
  Se  Se206  1  0.08122570  0.07995266  0.80292264  1
  Se  Se207  1  0.08555076  0.41771706  0.30100266  1
  Se  Se208  1  0.08984176  0.43901167  0.80164890  1
  Se  Se209  1  0.08062933  0.74780023  0.30493567  1
  Se  Se210  1  0.08428498  0.75128626  0.80596790  1
  Se  Se211  1  0.41847108  0.09008942  0.31257148  1
  Se  Se212  1  0.42351741  0.07172722  0.79501939  1
  Se  Se213  1  0.42548503  0.42842385  0.30707855  1
  Se  Se214  1  0.42237087  0.41938750  0.80735616  1
  Se  Se215  1  0.41422337  0.74901918  0.30150719  1
  Se  Se216  1  0.41406884  0.74605587  0.80585586  1
  Se  Se217  1  0.74781263  0.07788005  0.30319902  1
  Se  Se218  1  0.75909786  0.09097007  0.80775693  1
  Se  Se219  1  0.75481191  0.42668981  0.31070495  1
  Se  Se220  1  0.75035025  0.42814211  0.81190506  1
  Se  Se221  1  0.74914138  0.74607429  0.29824897  1
  Se  Se222  1  0.75607910  0.76225973  0.82007464  1
  Se  Se223  1  0.24196008  0.09209698  0.18776432  1
  Se  Se224  1  0.25428899  0.07461725  0.69947736  1
  Se  Se225  1  0.24837847  0.43280354  0.18526795  1
  Se  Se226  1  0.23978049  0.42414876  0.68886962  1
  Se  Se227  1  0.25029789  0.75144455  0.19837808  1
  Se  Se228  1  0.24792312  0.74962504  0.69303502  1
  Se  Se229  1  0.58414680  0.07761175  0.20409951  1
  Se  Se230  1  0.58496808  0.07874600  0.68304848  1
  Se  Se231  1  0.58847256  0.43426254  0.19215164  1
  Se  Se232  1  0.57341414  0.43227107  0.69475536  1
  Se  Se233  1  0.58399505  0.75017342  0.19206743  1
  Se  Se234  1  0.57903088  0.75064012  0.69134451  1
  Se  Se235  1  0.91729074  0.07795463  0.19781201  1
  Se  Se236  1  0.92087184  0.08001080  0.70140563  1
  Se  Se237  1  0.91911002  0.41683416  0.20071157  1
  Se  Se238  1  0.90916928  0.42488123  0.68770657  1
  Se  Se239  1  0.92033566  0.74912116  0.19628494  1
  Se  Se240  1  0.91943561  0.74398025  0.70203611  1
  Se  Se241  1  0.07891293  0.25450433  0.19804097  1
  Se  Se242  1  0.08914181  0.24270455  0.69279009  1
  Se  Se243  1  0.07980628  0.58748923  0.20185448  1
  Se  Se244  1  0.06717618  0.59278209  0.68838605  1
  Se  Se245  1  0.08115353  0.91842648  0.19842700  1
  Se  Se246  1  0.07955445  0.91477912  0.69936067  1
  Se  Se247  1  0.43185288  0.24890428  0.19329740  1
  Se  Se248  1  0.42478247  0.24458141  0.68629250  1
  Se  Se249  1  0.41167762  0.59115019  0.19919716  1
  Se  Se250  1  0.41206121  0.58853146  0.70351956  1
  Se  Se251  1  0.41633462  0.90881181  0.18813572  1
  Se  Se252  1  0.41807726  0.91292840  0.69445777  1
  Se  Se253  1  0.76056461  0.24284948  0.18871280  1
  Se  Se254  1  0.76236540  0.23986161  0.69180189  1
  Se  Se255  1  0.74998027  0.58530814  0.19206238  1
  Se  Se256  1  0.75126008  0.58246803  0.69141163  1
  Se  Se257  1  0.74697514  0.91204225  0.19173630  1
  Se  Se258  1  0.76163598  0.90677253  0.69478297  1
