# generated using pymatgen
data_In86Cu29Se144
_symmetry_space_group_name_H-M   'P 1'
_cell_length_a   17.58300239
_cell_length_b   17.58634471
_cell_length_c   23.43135616
_cell_angle_alpha   89.99475672
_cell_angle_beta   90.00957234
_cell_angle_gamma   90.01049783
_symmetry_Int_Tables_number   1
_chemical_formula_structural   In86Cu29Se144
_chemical_formula_sum   'In86 Cu29 Se144'
_cell_volume   7245.46106196
_cell_formula_units_Z   1
loop_
 _symmetry_equiv_pos_site_id
 _symmetry_equiv_pos_as_xyz
  1  'x, y, z'
loop_
 _atom_site_type_symbol
 _atom_site_label
 _atom_site_symmetry_multiplicity
 _atom_site_fract_x
 _atom_site_fract_y
 _atom_site_fract_z
 _atom_site_occupancy
  In  In0  1  0.00206450  0.17072169  0.13194883  1
  In  In1  1  0.00019968  0.17428228  0.63444276  1
  In  In2  1  0.00247507  0.48778288  0.12453481  1
  In  In3  1  0.00398356  0.49472184  0.62521548  1
  In  In4  1  0.00983430  0.84233602  0.12324276  1
  In  In5  1  -0.01038090  0.84176936  0.62722193  1
  In  In6  1  0.32386524  0.16330835  0.12637657  1
  In  In7  1  0.31134747  0.18247709  0.64380601  1
  In  In8  1  0.33518598  0.49093901  0.11337492  1
  In  In9  1  0.33442600  0.49934290  0.62058253  1
  In  In10  1  0.33816427  0.83756644  0.12586686  1
  In  In11  1  0.33671191  0.83304787  0.62948878  1
  In  In12  1  0.67080631  0.16710099  0.13808971  1
  In  In13  1  0.69535368  0.17548427  0.62717138  1
  In  In14  1  0.66030362  0.50084238  0.12510520  1
  In  In15  1  0.66772264  0.50469047  0.63329102  1
  In  In16  1  0.67516192  0.83438459  0.12857492  1
  In  In17  1  0.66048283  0.83019019  0.61811164  1
  In  In18  1  0.17046992  0.01287062  0.37641982  1
  In  In19  1  0.16134824  -0.00144244  0.86977659  1
  In  In20  1  0.14876722  0.34002452  0.39512887  1
  In  In21  1  0.17748612  0.33060932  0.86087657  1
  In  In22  1  0.15615902  0.65731996  0.37772068  1
  In  In23  1  0.15679232  0.65223432  0.86238721  1
  In  In24  1  0.49459071  -0.00791483  0.37865674  1
  In  In25  1  0.49436247  0.00881211  0.87775272  1
  In  In26  1  0.51333651  0.33370729  0.37934479  1
  In  In27  1  0.50459592  0.34473491  0.86464976  1
  In  In28  1  0.50893278  0.66190359  0.38535463  1
  In  In29  1  0.48140316  0.65297052  0.86368768  1
  In  In30  1  0.83454152  0.00359165  0.37889166  1
  In  In31  1  0.84029056  -0.00168226  0.87234324  1
  In  In32  1  0.83490017  0.33305208  0.38539046  1
  In  In33  1  0.84469350  0.34534796  0.84007502  1
  In  In34  1  0.83430985  0.66389137  0.38870625  1
  In  In35  1  0.83274822  0.65886538  0.84026345  1
  In  In36  1  0.00153487  0.17077752  0.38298178  1
  In  In37  1  -0.00076111  0.16657068  0.85142140  1
  In  In38  1  0.01003850  0.47921000  0.40412209  1
  In  In39  1  0.00728168  0.50435928  0.86241763  1
  In  In40  1  -0.01359999  0.83602569  0.38132058  1
  In  In41  1  0.00414505  0.83382020  0.86317562  1
  In  In42  1  0.32882085  0.15496592  0.37760721  1
  In  In43  1  0.31707187  0.15921943  0.85188568  1
  In  In44  1  0.32871801  0.50215457  0.38171801  1
  In  In45  1  0.33077453  0.49699473  0.86833576  1
  In  In46  1  0.33145618  0.85232000  0.38237467  1
  In  In47  1  0.33988252  0.83649239  0.86911266  1
  In  In48  1  0.67863153  0.18008084  0.37201856  1
  In  In49  1  0.66295951  0.17343260  0.86978594  1
  In  In50  1  0.67783434  0.49035892  0.38851381  1
  In  In51  1  0.65973756  0.49070760  0.86388290  1
  In  In52  1  0.66078472  0.83637072  0.38319617  1
  In  In53  1  0.68200568  0.83220362  0.87367791  1
  In  In54  1  0.16382132  0.00780145  0.13278053  1
  In  In55  1  0.14498422  0.02274386  0.64846381  1
  In  In56  1  0.16131405  0.33327502  0.12173906  1
  In  In57  1  0.15992457  0.33393584  0.62114715  1
  In  In58  1  0.17455608  0.66693573  0.12056234  1
  In  In59  1  0.18136882  0.65674144  0.62998505  1
  In  In60  1  0.49554170  0.00797059  0.13367951  1
  In  In61  1  0.49993491  -0.00747744  0.62267508  1
  In  In62  1  0.50191774  0.34151850  0.12376337  1
  In  In63  1  0.48988219  0.34183402  0.62846025  1
  In  In64  1  0.50695481  0.65642371  0.11825027  1
  In  In65  1  0.50008177  0.66751923  0.62739515  1
  In  In66  1  0.83663425  0.00168484  0.13404490  1
  In  In67  1  0.85465569  0.02008079  0.61133375  1
  In  In68  1  0.84133831  0.33082060  0.13715865  1
  In  In69  1  0.83628151  0.33780116  0.63528256  1
  In  In70  1  0.83185214  0.66200838  0.12549759  1
  In  In71  1  0.82921204  0.66118868  0.62893845  1
  In  In72  1  0.49888940  0.82683622  -0.00417248  1
  In  In73  1  0.49230664  0.18023718  -0.00006386  1
  In  In74  1  0.17253716  0.83034358  0.50592570  1
  In  In75  1  0.33383019  0.66602166  0.25858611  1
  In  In76  1  -0.00370565  0.66959266  0.24916772  1
  In  In77  1  0.16613795  0.16772059  -0.00719828  1
  In  In78  1  0.66833815  -0.00110492  0.74474506  1
  In  In79  1  0.83335257  0.49720008  -0.01106616  1
  In  In80  1  0.33224536  0.32763919  0.24629058  1
  In  In81  1  0.83444244  0.17202001  -0.01558144  1
  In  In82  1  0.66564581  0.66837904  0.24704921  1
  In  In83  1  0.50043165  0.16365436  0.50125396  1
  In  In84  1  0.83951847  0.82740920  0.00301131  1
  In  In85  1  0.17013140  0.83366182  -0.00756493  1
  Cu  Cu86  1  0.16605056  0.82382286  0.74652859  1
  Cu  Cu87  1  0.66543271  0.66466340  0.51009873  1
  Cu  Cu88  1  0.00390521  0.33348935  -0.00423935  1
  Cu  Cu89  1  0.00243227  0.00628079  0.50519772  1
  Cu  Cu90  1  0.82833892  0.84367051  0.25587909  1
  Cu  Cu91  1  0.16948541  0.49449337  0.74411711  1
  Cu  Cu92  1  0.33053016  0.00040593  0.51150805  1
  Cu  Cu93  1  0.50321927  0.16804678  0.74765587  1
  Cu  Cu94  1  0.50191616  0.49635669  0.24993220  1
  Cu  Cu95  1  0.67120870  -0.00159564  0.50110301  1
  Cu  Cu96  1  0.50486510  0.15999093  0.25922798  1
  Cu  Cu97  1  0.16067670  0.17112922  0.25516223  1
  Cu  Cu98  1  0.32650640  0.65193231  -0.00741433  1
  Cu  Cu99  1  0.50446078  0.83050547  0.74864617  1
  Cu  Cu100  1  0.83705564  0.16965598  0.25836577  1
  Cu  Cu101  1  -0.00070285  0.66217546  0.50867079  1
  Cu  Cu102  1  0.67034200  0.33837683  -0.00634673  1
  Cu  Cu103  1  0.66782292  0.33684107  0.50772554  1
  Cu  Cu104  1  0.49479465  0.50111314  0.74487256  1
  Cu  Cu105  1  0.33915626  0.33596988  -0.01453154  1
  Cu  Cu106  1  0.16509860  0.84663146  0.25350282  1
  Cu  Cu107  1  -0.00388710  0.66497111  -0.01496273  1
  Cu  Cu108  1  0.34108539  0.66647752  0.50497647  1
  Cu  Cu109  1  0.32912243  0.33069086  0.50707459  1
  Cu  Cu110  1  0.66683238  0.00615941  0.00967578  1
  Cu  Cu111  1  0.83499044  0.83992902  0.73888702  1
  Cu  Cu112  1  0.49471894  0.84241943  0.25581706  1
  Cu  Cu113  1  0.84055217  0.48943062  0.26509542  1
  Cu  Cu114  1  0.65998076  0.65394555  -0.01115407  1
  Se  Se115  1  0.07693862  0.08288948  0.05751609  1
  Se  Se116  1  0.08270526  0.08821567  0.56197322  1
  Se  Se117  1  0.08536200  0.41735964  0.04926646  1
  Se  Se118  1  0.07842040  0.41380370  0.55128724  1
  Se  Se119  1  0.07330577  0.74143422  0.05144044  1
  Se  Se120  1  0.08144161  0.74423167  0.56679257  1
  Se  Se121  1  0.40914056  0.07939622  0.05583715  1
  Se  Se122  1  0.40754726  0.08868163  0.56785958  1
  Se  Se123  1  0.42209354  0.41079682  0.04645560  1
  Se  Se124  1  0.41806215  0.41674511  0.54978901  1
  Se  Se125  1  0.40406833  0.73480931  0.05519003  1
  Se  Se126  1  0.41837490  0.75404615  0.55756719  1
  Se  Se127  1  0.75305945  0.08854930  0.06006759  1
  Se  Se128  1  0.75262766  0.08834715  0.54868088  1
  Se  Se129  1  0.75174080  0.41089624  0.05976580  1
  Se  Se130  1  0.74886595  0.41767402  0.56500658  1
  Se  Se131  1  0.73569641  0.73418191  0.05333956  1
  Se  Se132  1  0.75403966  0.74929396  0.55629864  1
  Se  Se133  1  0.26121989  0.25981225  0.05140874  1
  Se  Se134  1  0.24733455  0.24437012  0.55637239  1
  Se  Se135  1  0.24437812  0.57559479  0.05207328  1
  Se  Se136  1  0.25152597  0.58268472  0.55008308  1
  Se  Se137  1  0.25153285  0.92397571  0.06060138  1
  Se  Se138  1  0.24448124  0.92618237  0.57121886  1
  Se  Se139  1  0.59877720  0.25541230  0.05810618  1
  Se  Se140  1  0.58751645  0.25209043  0.56539179  1
  Se  Se141  1  0.58161228  0.57244213  0.04694893  1
  Se  Se142  1  0.58059648  0.57969693  0.55969719  1
  Se  Se143  1  0.58542952  0.91932622  0.06141079  1
  Se  Se144  1  0.58186303  0.91793962  0.54940011  1
  Se  Se145  1  0.92143942  0.25691337  0.05546407  1
  Se  Se146  1  0.90512912  0.24334427  0.56726192  1
  Se  Se147  1  0.92151394  0.58849957  0.05359586  1
  Se  Se148  1  0.91493915  0.58001017  0.56045631  1
  Se  Se149  1  0.92307457  0.92872396  0.05600353  1
  Se  Se150  1  0.91662960  0.91455509  0.54751356  1
  Se  Se151  1  0.09238652  0.23444404  0.45680676  1
  Se  Se152  1  0.07546652  0.25310092  0.93036559  1
  Se  Se153  1  0.08884122  0.58335284  0.45738736  1
  Se  Se154  1  0.08289538  0.57783166  0.94095430  1
  Se  Se155  1  0.08136101  0.92131436  0.44494716  1
  Se  Se156  1  0.06985991  0.92119874  0.94230894  1
  Se  Se157  1  0.40939274  0.25606398  0.44062680  1
  Se  Se158  1  0.40593837  0.24836900  0.92346171  1
  Se  Se159  1  0.41887900  0.57990101  0.44762838  1
  Se  Se160  1  0.41608295  0.57310216  0.94247932  1
  Se  Se161  1  0.41602047  0.92019140  0.45715618  1
  Se  Se162  1  0.40747118  0.92553974  0.94737397  1
  Se  Se163  1  0.74731277  0.25059322  0.45355168  1
  Se  Se164  1  0.75036262  0.26969870  0.92845851  1
  Se  Se165  1  0.74947156  0.58274989  0.45530006  1
  Se  Se166  1  0.75051646  0.59120229  0.92703066  1
  Se  Se167  1  0.75376449  0.91470353  0.44662156  1
  Se  Se168  1  0.74649159  0.92757949  0.94890618  1
  Se  Se169  1  0.25017931  0.08255028  0.45414141  1
  Se  Se170  1  0.25869162  0.07646734  0.93733089  1
  Se  Se171  1  0.25047960  0.41798148  0.45111960  1
  Se  Se172  1  0.24651008  0.41295698  0.93717442  1
  Se  Se173  1  0.25889080  0.74074419  0.43905791  1
  Se  Se174  1  0.25499498  0.73895028  0.93282073  1
  Se  Se175  1  0.59236165  0.08009107  0.43875108  1
  Se  Se176  1  0.59102044  0.08393730  0.94681032  1
  Se  Se177  1  0.58130188  0.41772894  0.45415224  1
  Se  Se178  1  0.58280401  0.41801320  0.94221001  1
  Se  Se179  1  0.58477679  0.74933575  0.45309446  1
  Se  Se180  1  0.58678776  0.74181439  0.93088863  1
  Se  Se181  1  0.91600466  0.08472257  0.44946629  1
  Se  Se182  1  0.93288530  0.08171502  0.93620307  1
  Se  Se183  1  0.89410789  0.42981346  0.45710025  1
  Se  Se184  1  0.92144261  0.40529699  0.93062433  1
  Se  Se185  1  0.91949494  0.74819542  0.45407293  1
  Se  Se186  1  0.91186707  0.74111521  0.92768966  1
  Se  Se187  1  0.24484345  0.24919433  0.31443462  1
  Se  Se188  1  0.22708038  0.23259729  0.78524264  1
  Se  Se189  1  0.23687807  0.57163970  0.30550788  1
  Se  Se190  1  0.25212346  0.58129523  0.79714371  1
  Se  Se191  1  0.25113305  0.92435676  0.30805166  1
  Se  Se192  1  0.24343146  0.90870444  0.80593764  1
  Se  Se193  1  0.58432295  0.25269107  0.30430140  1
  Se  Se194  1  0.58466093  0.25367492  0.79965604  1
  Se  Se195  1  0.58359797  0.57479758  0.30993455  1
  Se  Se196  1  0.57927669  0.58338686  0.79986679  1
  Se  Se197  1  0.58529463  0.91756761  0.30884252  1
  Se  Se198  1  0.57880012  0.91305088  0.81299784  1
  Se  Se199  1  0.91733545  0.25295976  0.31361938  1
  Se  Se200  1  0.90952911  0.23881214  0.78410194  1
  Se  Se201  1  0.91636356  0.58194103  0.31636542  1
  Se  Se202  1  0.91163993  0.55881602  0.78737964  1
  Se  Se203  1  0.91816158  0.92111518  0.30712665  1
  Se  Se204  1  0.91525931  0.91733531  0.80000596  1
  Se  Se205  1  0.07950988  0.08665741  0.30884919  1
  Se  Se206  1  0.08700042  0.07624704  0.79587912  1
  Se  Se207  1  0.07821881  0.41797525  0.31844987  1
  Se  Se208  1  0.08581598  0.41213335  0.79830071  1
  Se  Se209  1  0.08805912  0.76109135  0.31135380  1
  Se  Se210  1  0.07681306  0.74127340  0.79692847  1
  Se  Se211  1  0.41697982  0.07998758  0.30908261  1
  Se  Se212  1  0.42217728  0.08066239  0.79948434  1
  Se  Se213  1  0.41981334  0.41929774  0.31030381  1
  Se  Se214  1  0.41099524  0.41484571  0.79700720  1
  Se  Se215  1  0.42358813  0.75736261  0.31721132  1
  Se  Se216  1  0.41323917  0.75029615  0.79845906  1
  Se  Se217  1  0.75133177  0.08439482  0.30742844  1
  Se  Se218  1  0.75529870  0.08788445  0.80798053  1
  Se  Se219  1  0.74808718  0.41088013  0.31169958  1
  Se  Se220  1  0.74385478  0.42417482  0.78917482  1
  Se  Se221  1  0.75563620  0.75115428  0.31157436  1
  Se  Se222  1  0.74666309  0.75996281  0.79163933  1
  Se  Se223  1  0.24796150  0.08891789  0.20177282  1
  Se  Se224  1  0.27535078  0.05550092  0.69193821  1
  Se  Se225  1  0.24609197  0.42381774  0.18969192  1
  Se  Se226  1  0.25146350  0.41398827  0.68747427  1
  Se  Se227  1  0.24299406  0.76020391  0.19621572  1
  Se  Se228  1  0.25685106  0.74645507  0.69759560  1
  Se  Se229  1  0.58742563  0.07929562  0.20110973  1
  Se  Se230  1  0.58288258  0.09271683  0.68379902  1
  Se  Se231  1  0.58651193  0.41439499  0.19667191  1
  Se  Se232  1  0.58093597  0.41576533  0.69666522  1
  Se  Se233  1  0.56744140  0.75938911  0.19087596  1
  Se  Se234  1  0.58782768  0.75054547  0.69443169  1
  Se  Se235  1  0.91785650  0.08869378  0.19893778  1
  Se  Se236  1  0.92349772  0.07575145  0.69718655  1
  Se  Se237  1  0.92430240  0.41749097  0.20203971  1
  Se  Se238  1  0.91374822  0.43186370  0.70214572  1
  Se  Se239  1  0.90409909  0.76434315  0.18947770  1
  Se  Se240  1  0.91721485  0.74742619  0.69428688  1
  Se  Se241  1  0.08536567  0.25673020  0.19716940  1
  Se  Se242  1  0.10387893  0.24035636  0.69829545  1
  Se  Se243  1  0.08842407  0.58250318  0.18876059  1
  Se  Se244  1  0.08657281  0.58162721  0.69377383  1
  Se  Se245  1  0.07759608  0.92421967  0.19898660  1
  Se  Se246  1  0.07931364  0.90978044  0.69962126  1
  Se  Se247  1  0.42953193  0.23716985  0.18984927  1
  Se  Se248  1  0.41679505  0.25372804  0.69967465  1
  Se  Se249  1  0.42053495  0.57620258  0.19097167  1
  Se  Se250  1  0.41120219  0.58476862  0.69250410  1
  Se  Se251  1  0.41095104  0.92107899  0.19829767  1
  Se  Se252  1  0.42234982  0.91645567  0.69779259  1
  Se  Se253  1  0.75307717  0.25291191  0.20305711  1
  Se  Se254  1  0.75085372  0.25763948  0.70674455  1
  Se  Se255  1  0.76246075  0.56786287  0.19792066  1
  Se  Se256  1  0.73357520  0.60183294  0.70112475  1
  Se  Se257  1  0.74498972  0.92244666  0.19869953  1
  Se  Se258  1  0.75722192  0.92093540  0.67786970  1
