# generated using pymatgen
data_In86Cu29Se144
_symmetry_space_group_name_H-M   'P 1'
_cell_length_a   17.60047398
_cell_length_b   17.59462381
_cell_length_c   23.46541844
_cell_angle_alpha   89.98617105
_cell_angle_beta   90.01510429
_cell_angle_gamma   90.00448115
_symmetry_Int_Tables_number   1
_chemical_formula_structural   In86Cu29Se144
_chemical_formula_sum   'In86 Cu29 Se144'
_cell_volume   7266.62290251
_cell_formula_units_Z   1
loop_
 _symmetry_equiv_pos_site_id
 _symmetry_equiv_pos_as_xyz
  1  'x, y, z'
loop_
 _atom_site_type_symbol
 _atom_site_label
 _atom_site_symmetry_multiplicity
 _atom_site_fract_x
 _atom_site_fract_y
 _atom_site_fract_z
 _atom_site_occupancy
  In  In0  1  -0.00164447  0.16766090  0.12380822  1
  In  In1  1  -0.00190534  0.16364541  0.63015762  1
  In  In2  1  -0.00630638  0.48164432  0.12558362  1
  In  In3  1  -0.00832194  0.48534965  0.61361596  1
  In  In4  1  0.01375787  0.83778098  0.12568308  1
  In  In5  1  0.01194993  0.83561071  0.62236389  1
  In  In6  1  0.32426752  0.16606817  0.11675994  1
  In  In7  1  0.33289433  0.17167156  0.61992125  1
  In  In8  1  0.32565471  0.48601347  0.11070791  1
  In  In9  1  0.33937561  0.49975390  0.61857241  1
  In  In10  1  0.33357079  0.83642679  0.12007294  1
  In  In11  1  0.33561757  0.83384298  0.61995105  1
  In  In12  1  0.66063829  0.15011951  0.11000971  1
  In  In13  1  0.67363818  0.17701925  0.62230541  1
  In  In14  1  0.66162447  0.50767474  0.12992218  1
  In  In15  1  0.64594157  0.47419345  0.61198810  1
  In  In16  1  0.65493600  0.84141868  0.13313698  1
  In  In17  1  0.66128676  0.83648185  0.61711494  1
  In  In18  1  0.14909510  0.01455563  0.38473766  1
  In  In19  1  0.16112764  0.01475122  0.88665387  1
  In  In20  1  0.16245747  0.33593403  0.37770712  1
  In  In21  1  0.16220300  0.33492409  0.87812238  1
  In  In22  1  0.17367699  0.66447875  0.37989055  1
  In  In23  1  0.17528258  0.65838811  0.88176541  1
  In  In24  1  0.50574310  -0.00741557  0.37745535  1
  In  In25  1  0.49930013  0.00919802  0.88719490  1
  In  In26  1  0.50083345  0.33134860  0.38432556  1
  In  In27  1  0.50942925  0.33025859  0.88082034  1
  In  In28  1  0.51689382  0.66097770  0.38575775  1
  In  In29  1  0.49978696  0.66741561  0.87963721  1
  In  In30  1  0.84498001  0.01469753  0.36621907  1
  In  In31  1  0.84242294  0.00006993  0.87493253  1
  In  In32  1  0.84469079  0.31968180  0.38524398  1
  In  In33  1  0.81257337  0.30988632  0.84943593  1
  In  In34  1  0.81385088  0.66433924  0.37932376  1
  In  In35  1  0.82882492  0.66786377  0.87257849  1
  In  In36  1  0.00097940  0.16666021  0.37454513  1
  In  In37  1  -0.00236268  0.16975480  0.87369067  1
  In  In38  1  0.00814949  0.48977387  0.38293075  1
  In  In39  1  0.01146671  0.48853291  0.87604819  1
  In  In40  1  -0.00252195  0.85304821  0.37536273  1
  In  In41  1  0.00098684  0.85181041  0.87507331  1
  In  In42  1  0.32925618  0.16853843  0.38054217  1
  In  In43  1  0.34264748  0.17030843  0.88703469  1
  In  In44  1  0.33634802  0.50269881  0.38079545  1
  In  In45  1  0.33910723  0.48479264  0.88893304  1
  In  In46  1  0.33611122  0.83565062  0.38054963  1
  In  In47  1  0.33473879  0.83212358  0.88319626  1
  In  In48  1  0.67536383  0.15951491  0.37871986  1
  In  In49  1  0.65711142  0.17545645  0.88551396  1
  In  In50  1  0.66120431  0.50762075  0.38603304  1
  In  In51  1  0.67087876  0.48663941  0.87131019  1
  In  In52  1  0.65806423  0.82972711  0.36779237  1
  In  In53  1  0.66057117  0.83303332  0.88098053  1
  In  In54  1  0.16351250  0.00150190  0.12393348  1
  In  In55  1  0.16210928  -0.00425874  0.62213205  1
  In  In56  1  0.14744894  0.31178530  0.10120475  1
  In  In57  1  0.15826482  0.32126646  0.61836196  1
  In  In58  1  0.17228196  0.66980942  0.12209855  1
  In  In59  1  0.17011763  0.66568331  0.61614732  1
  In  In60  1  0.50870994  0.00351242  0.11643098  1
  In  In61  1  0.50403728  0.00515235  0.61701934  1
  In  In62  1  0.48990048  0.32516311  0.10734910  1
  In  In63  1  0.50588772  0.33344171  0.62391697  1
  In  In64  1  0.50170405  0.67075024  0.12465683  1
  In  In65  1  0.50056542  0.65721015  0.61577451  1
  In  In66  1  0.82185988  0.01295809  0.13177595  1
  In  In67  1  0.83755951  0.02601880  0.62430715  1
  In  In68  1  0.84817383  0.32557169  0.12906648  1
  In  In69  1  0.83357189  0.32430356  0.62959615  1
  In  In70  1  0.82202438  0.65395059  0.13209958  1
  In  In71  1  0.84134648  0.66258332  0.61728062  1
  In  In72  1  0.83491018  0.49451458  0.00184947  1
  In  In73  1  0.32450974  0.32986962  0.24837503  1
  In  In74  1  0.66955035  0.33368225  0.25269757  1
  In  In75  1  0.66971385  0.66230482  0.74733537  1
  In  In76  1  0.33086039  0.65974484  0.74064233  1
  In  In77  1  0.33583711  0.33226657  0.75482364  1
  In  In78  1  0.33846405  0.66611253  0.24805719  1
  In  In79  1  0.33471089  0.00631085  0.76542997  1
  In  In80  1  0.66857858  0.01163175  0.74924742  1
  In  In81  1  0.83326529  0.83901799  -0.00115227  1
  In  In82  1  0.00218104  0.66027436  0.74861832  1
  In  In83  1  0.83133142  0.83468319  0.49220297  1
  In  In84  1  -0.00546771  0.66938728  0.25121548  1
  In  In85  1  0.33110612  0.00255038  0.24221855  1
  Cu  Cu86  1  0.83017399  0.83613987  0.25446951  1
  Cu  Cu87  1  0.16619540  0.49294845  0.74896098  1
  Cu  Cu88  1  -0.00034124  0.00526047  0.50055701  1
  Cu  Cu89  1  0.00180805  0.32907183  0.50324978  1
  Cu  Cu90  1  0.83653210  0.84594441  0.74583996  1
  Cu  Cu91  1  0.50309034  0.16084547  0.24543485  1
  Cu  Cu92  1  0.15674995  0.84018166  0.75183943  1
  Cu  Cu93  1  0.49840970  0.83795477  0.74951578  1
  Cu  Cu94  1  0.16131503  0.15998258  0.75158170  1
  Cu  Cu95  1  0.51062310  0.82944267  0.25194553  1
  Cu  Cu96  1  0.00484923  0.00478240  0.00037604  1
  Cu  Cu97  1  0.67043963  0.33308857  -0.00238966  1
  Cu  Cu98  1  0.00636073  0.66410728  0.49745393  1
  Cu  Cu99  1  0.83560599  0.16835200  0.25052477  1
  Cu  Cu100  1  0.33850061  0.66903883  0.49953819  1
  Cu  Cu101  1  0.32990663  -0.00029876  0.50082405  1
  Cu  Cu102  1  0.33161516  0.33183469  0.50050111  1
  Cu  Cu103  1  0.33019821  0.66650969  0.00207626  1
  Cu  Cu104  1  0.16243188  0.84713471  0.25475750  1
  Cu  Cu105  1  -0.00496899  0.32806581  -0.00523109  1
  Cu  Cu106  1  0.33294924  -0.00148386  0.00253457  1
  Cu  Cu107  1  0.66367354  0.00192078  0.49661772  1
  Cu  Cu108  1  0.65998303  0.67029225  0.00376443  1
  Cu  Cu109  1  0.15708911  0.49184294  0.24840787  1
  Cu  Cu110  1  0.83104595  0.49657852  0.25652588  1
  Cu  Cu111  1  0.00724412  0.66928007  0.00088627  1
  Cu  Cu112  1  0.50273322  0.49906763  0.25156843  1
  Cu  Cu113  1  0.66970541  0.33239701  0.50215461  1
  Cu  Cu114  1  0.83584344  0.49181743  0.74163268  1
  Se  Se115  1  0.08712784  0.08884340  0.05451104  1
  Se  Se116  1  0.08253799  0.08556861  0.55743419  1
  Se  Se117  1  0.07402233  0.41886180  0.04657644  1
  Se  Se118  1  0.09063318  0.41647018  0.54962844  1
  Se  Se119  1  0.08780292  0.75291052  0.05485202  1
  Se  Se120  1  0.08522049  0.75074108  0.55116973  1
  Se  Se121  1  0.41518696  0.08420244  0.05505023  1
  Se  Se122  1  0.41329603  0.08441094  0.55315630  1
  Se  Se123  1  0.43558532  0.43570340  0.04985000  1
  Se  Se124  1  0.41906101  0.41164546  0.55352227  1
  Se  Se125  1  0.41457009  0.74817426  0.05610329  1
  Se  Se126  1  0.42089993  0.75135922  0.55463065  1
  Se  Se127  1  0.76292256  0.08532814  0.04793094  1
  Se  Se128  1  0.74576786  0.08518078  0.55111541  1
  Se  Se129  1  0.74480399  0.40864458  0.06624642  1
  Se  Se130  1  0.75666352  0.41049104  0.55716446  1
  Se  Se131  1  0.74755545  0.74522806  0.06132402  1
  Se  Se132  1  0.74510144  0.74414482  0.55413202  1
  Se  Se133  1  0.27529515  0.27726351  0.05560770  1
  Se  Se134  1  0.24663035  0.24569913  0.54942064  1
  Se  Se135  1  0.24456152  0.58235778  0.05217170  1
  Se  Se136  1  0.25540409  0.58261830  0.55147623  1
  Se  Se137  1  0.24637292  0.91780434  0.05574399  1
  Se  Se138  1  0.24820647  0.91468432  0.55490071  1
  Se  Se139  1  0.58526409  0.24657817  0.04748548  1
  Se  Se140  1  0.58235647  0.24829492  0.55261499  1
  Se  Se141  1  0.58132051  0.58249465  0.05632785  1
  Se  Se142  1  0.59504818  0.58615840  0.55253337  1
  Se  Se143  1  0.58022896  0.90614052  0.05340090  1
  Se  Se144  1  0.58037358  0.91737491  0.54833404  1
  Se  Se145  1  0.91326811  0.24598633  0.05082210  1
  Se  Se146  1  0.91870749  0.24641308  0.55803433  1
  Se  Se147  1  0.92360778  0.59179250  0.06054090  1
  Se  Se148  1  0.92060777  0.58149619  0.54778241  1
  Se  Se149  1  0.92356349  0.92432687  0.06127215  1
  Se  Se150  1  0.91673735  0.92195934  0.55892208  1
  Se  Se151  1  0.08313897  0.24852229  0.44522492  1
  Se  Se152  1  0.08475334  0.24543718  0.94584755  1
  Se  Se153  1  0.09090433  0.57998587  0.44593716  1
  Se  Se154  1  0.08047077  0.58148820  0.94447059  1
  Se  Se155  1  0.08251974  0.91554354  0.45215729  1
  Se  Se156  1  0.08671705  0.91619436  0.95014332  1
  Se  Se157  1  0.41558559  0.24703113  0.44833159  1
  Se  Se158  1  0.40967080  0.27013606  0.94842935  1
  Se  Se159  1  0.42124427  0.58291456  0.44764531  1
  Se  Se160  1  0.41421736  0.58700171  0.94618905  1
  Se  Se161  1  0.41730816  0.91939372  0.44795788  1
  Se  Se162  1  0.41752816  0.91685857  0.94857629  1
  Se  Se163  1  0.75035898  0.24526203  0.44942750  1
  Se  Se164  1  0.75780419  0.25545060  0.94344524  1
  Se  Se165  1  0.75433169  0.57749760  0.45395884  1
  Se  Se166  1  0.74314745  0.59083240  0.94441487  1
  Se  Se167  1  0.74717033  0.92857695  0.43242901  1
  Se  Se168  1  0.74092037  0.92901321  0.94248567  1
  Se  Se169  1  0.24740349  0.08462933  0.44838186  1
  Se  Se170  1  0.25388777  0.08895026  0.95174472  1
  Se  Se171  1  0.25186069  0.41594884  0.44367672  1
  Se  Se172  1  0.23249666  0.42576272  0.94732549  1
  Se  Se173  1  0.25277335  0.75096188  0.44677762  1
  Se  Se174  1  0.24729141  0.75114099  0.94862011  1
  Se  Se175  1  0.57957304  0.08642390  0.44383779  1
  Se  Se176  1  0.58593022  0.08510872  0.95380325  1
  Se  Se177  1  0.58277087  0.41526679  0.45034188  1
  Se  Se178  1  0.58925270  0.42159565  0.94817812  1
  Se  Se179  1  0.58489811  0.76184642  0.44708409  1
  Se  Se180  1  0.57792888  0.75293196  0.94891392  1
  Se  Se181  1  0.91570536  0.08708804  0.44635047  1
  Se  Se182  1  0.92010991  0.08337355  0.94517104  1
  Se  Se183  1  0.91819307  0.41425949  0.45074113  1
  Se  Se184  1  0.91194481  0.40603255  0.93416879  1
  Se  Se185  1  0.92626607  0.74275357  0.43507901  1
  Se  Se186  1  0.92464633  0.74429688  0.93906935  1
  Se  Se187  1  0.23756688  0.23887586  0.30766989  1
  Se  Se188  1  0.24504160  0.23784680  0.81126040  1
  Se  Se189  1  0.24295210  0.57236858  0.30326728  1
  Se  Se190  1  0.24940454  0.57006363  0.80754134  1
  Se  Se191  1  0.24728135  0.92132048  0.31376576  1
  Se  Se192  1  0.23969446  0.91079402  0.81527351  1
  Se  Se193  1  0.57578191  0.24295604  0.30936259  1
  Se  Se194  1  0.59228955  0.25808132  0.80828465  1
  Se  Se195  1  0.58380871  0.57967881  0.30758453  1
  Se  Se196  1  0.57895800  0.57876333  0.80962402  1
  Se  Se197  1  0.58685567  0.92430597  0.29994498  1
  Se  Se198  1  0.57701721  0.91741837  0.80928712  1
  Se  Se199  1  0.91761465  0.25133119  0.30460051  1
  Se  Se200  1  0.93574426  0.26556698  0.80289623  1
  Se  Se201  1  0.91242233  0.57860562  0.31519115  1
  Se  Se202  1  0.90821973  0.57172481  0.80812953  1
  Se  Se203  1  0.91870296  0.92140355  0.29851940  1
  Se  Se204  1  0.92145387  0.92391256  0.79995543  1
  Se  Se205  1  0.07378311  0.07643691  0.30474125  1
  Se  Se206  1  0.08066551  0.07856128  0.80783423  1
  Se  Se207  1  0.07749526  0.41117480  0.30472166  1
  Se  Se208  1  0.08360373  0.40899265  0.80045678  1
  Se  Se209  1  0.08915034  0.75633883  0.31131813  1
  Se  Se210  1  0.08722503  0.75068401  0.81256899  1
  Se  Se211  1  0.41911248  0.08789516  0.30792657  1
  Se  Se212  1  0.43266378  0.10048381  0.81081823  1
  Se  Se213  1  0.42096227  0.41805470  0.30843691  1
  Se  Se214  1  0.42599939  0.42459615  0.80999587  1
  Se  Se215  1  0.42607423  0.75277754  0.31139583  1
  Se  Se216  1  0.41699693  0.75378012  0.80479382  1
  Se  Se217  1  0.74768742  0.08500516  0.29990662  1
  Se  Se218  1  0.75367816  0.09286185  0.81579488  1
  Se  Se219  1  0.75437453  0.41715413  0.31995184  1
  Se  Se220  1  0.74369187  0.41593562  0.79204727  1
  Se  Se221  1  0.74844919  0.74853062  0.30307942  1
  Se  Se222  1  0.75602218  0.76557448  0.80461062  1
  Se  Se223  1  0.23747473  0.09869361  0.19364455  1
  Se  Se224  1  0.24853792  0.08499480  0.69367694  1
  Se  Se225  1  0.23711896  0.41682236  0.18567591  1
  Se  Se226  1  0.24797492  0.41654330  0.68695768  1
  Se  Se227  1  0.24260892  0.76295744  0.19737979  1
  Se  Se228  1  0.23818348  0.76062102  0.69257560  1
  Se  Se229  1  0.58658630  0.08090294  0.19139921  1
  Se  Se230  1  0.57473874  0.09444258  0.68943578  1
  Se  Se231  1  0.57210419  0.41139446  0.18950012  1
  Se  Se232  1  0.58115939  0.41369679  0.69791761  1
  Se  Se233  1  0.58799118  0.74058002  0.19858034  1
  Se  Se234  1  0.57603863  0.75586724  0.69091190  1
  Se  Se235  1  0.91838366  0.08483694  0.19563697  1
  Se  Se236  1  0.91664608  0.08591945  0.70283429  1
  Se  Se237  1  0.91400390  0.41458418  0.20313811  1
  Se  Se238  1  0.92443973  0.41070330  0.69342909  1
  Se  Se239  1  0.90673586  0.75855188  0.18788256  1
  Se  Se240  1  0.91259951  0.75702319  0.69088007  1
  Se  Se241  1  0.07595687  0.26174659  0.18768697  1
  Se  Se242  1  0.08587231  0.24822983  0.69680358  1
  Se  Se243  1  0.08359542  0.57959794  0.18896894  1
  Se  Se244  1  0.09026271  0.57351712  0.68579103  1
  Se  Se245  1  0.08083952  0.92601240  0.19842266  1
  Se  Se246  1  0.07756545  0.92277083  0.69681099  1
  Se  Se247  1  0.42163701  0.24285862  0.18981989  1
  Se  Se248  1  0.42178371  0.24190857  0.69331951  1
  Se  Se249  1  0.41814012  0.56949656  0.18801582  1
  Se  Se250  1  0.43104463  0.57028178  0.69341231  1
  Se  Se251  1  0.42709048  0.90794058  0.19198414  1
  Se  Se252  1  0.41727204  0.91989396  0.69327991  1
  Se  Se253  1  0.74978272  0.24131245  0.18839994  1
  Se  Se254  1  0.75353182  0.24272370  0.69966328  1
  Se  Se255  1  0.74413641  0.57792991  0.20613405  1
  Se  Se256  1  0.75820130  0.57699910  0.68479695  1
  Se  Se257  1  0.74901643  0.91732507  0.19658612  1
  Se  Se258  1  0.75215744  0.91733072  0.68480392  1
