# generated using pymatgen
data_In86Cu29Se144
_symmetry_space_group_name_H-M   'P 1'
_cell_length_a   17.55032634
_cell_length_b   17.55032115
_cell_length_c   23.39155501
_cell_angle_alpha   90.02233583
_cell_angle_beta   90.02965241
_cell_angle_gamma   90.00169577
_symmetry_Int_Tables_number   1
_chemical_formula_structural   In86Cu29Se144
_chemical_formula_sum   'In86 Cu29 Se144'
_cell_volume   7204.92171890
_cell_formula_units_Z   1
loop_
 _symmetry_equiv_pos_site_id
 _symmetry_equiv_pos_as_xyz
  1  'x, y, z'
loop_
 _atom_site_type_symbol
 _atom_site_label
 _atom_site_symmetry_multiplicity
 _atom_site_fract_x
 _atom_site_fract_y
 _atom_site_fract_z
 _atom_site_occupancy
  In  In0  1  -0.01132942  0.17171745  0.13240606  1
  In  In1  1  0.00022421  0.17338952  0.63382253  1
  In  In2  1  0.00797475  0.49064674  0.13053856  1
  In  In3  1  -0.01261349  0.49794611  0.60620871  1
  In  In4  1  -0.00853522  0.84458311  0.13136100  1
  In  In5  1  0.00551999  0.83020261  0.62203411  1
  In  In6  1  0.33656914  0.15872302  0.11795115  1
  In  In7  1  0.31015999  0.19233487  0.66138108  1
  In  In8  1  0.33140078  0.50886062  0.12274519  1
  In  In9  1  0.33717690  0.49293834  0.61929833  1
  In  In10  1  0.33203199  0.83407798  0.11871954  1
  In  In11  1  0.31432408  0.84329680  0.63302836  1
  In  In12  1  0.67759691  0.17225369  0.11375334  1
  In  In13  1  0.67157169  0.17522361  0.64445477  1
  In  In14  1  0.65447252  0.49476266  0.12703134  1
  In  In15  1  0.66846115  0.49515609  0.62112680  1
  In  In16  1  0.67454469  0.82014682  0.11611268  1
  In  In17  1  0.66636991  0.84617591  0.64200298  1
  In  In18  1  0.14944589  0.01366934  0.39391156  1
  In  In19  1  0.16903908  0.01480224  0.85209842  1
  In  In20  1  0.14987645  0.35269441  0.40033162  1
  In  In21  1  0.16818146  0.33084106  0.86079060  1
  In  In22  1  0.14952463  0.67580551  0.39588540  1
  In  In23  1  0.16203369  0.64698121  0.87102550  1
  In  In24  1  0.49766525  0.00758888  0.38353786  1
  In  In25  1  0.52286250  0.03243494  0.84502043  1
  In  In26  1  0.51339933  0.33337781  0.38152358  1
  In  In27  1  0.49688622  0.32361032  0.86060099  1
  In  In28  1  0.49043925  0.65454024  0.37580690  1
  In  In29  1  0.50249052  0.67179873  0.86510467  1
  In  In30  1  0.84731316  -0.00759349  0.38167486  1
  In  In31  1  0.83618703  0.00806005  0.86694723  1
  In  In32  1  0.83508528  0.32504585  0.38206586  1
  In  In33  1  0.80941063  0.30690621  0.84166708  1
  In  In34  1  0.83316249  0.64657745  0.37787625  1
  In  In35  1  0.83795179  0.68247382  0.87019154  1
  In  In36  1  -0.00667848  0.16492346  0.38192155  1
  In  In37  1  -0.01684439  0.15441954  0.84624510  1
  In  In38  1  0.00038723  0.49566712  0.37736635  1
  In  In39  1  0.00985982  0.49469502  0.87794199  1
  In  In40  1  0.00958501  0.84479308  0.37217295  1
  In  In41  1  -0.01122556  0.84714924  0.87454897  1
  In  In42  1  0.32539826  0.15583192  0.38235600  1
  In  In43  1  0.34647967  0.18753183  0.84668260  1
  In  In44  1  0.32025599  0.49847694  0.39842616  1
  In  In45  1  0.32406736  0.48301184  0.86074084  1
  In  In46  1  0.32594670  0.81539128  0.38122080  1
  In  In47  1  0.34515342  0.83925827  0.86593888  1
  In  In48  1  0.66689190  0.18490816  0.38311254  1
  In  In49  1  0.66766963  0.16794741  0.86950346  1
  In  In50  1  0.69920983  0.45748022  0.41824060  1
  In  In51  1  0.65976437  0.49689652  0.86348002  1
  In  In52  1  0.67343078  0.83552944  0.38191340  1
  In  In53  1  0.70244495  0.85968590  0.84274889  1
  In  In54  1  0.16452817  -0.00985000  0.12330066  1
  In  In55  1  0.16844382  0.00755151  0.63142618  1
  In  In56  1  0.14869664  0.32989685  0.12228991  1
  In  In57  1  0.16735860  0.32898553  0.62311346  1
  In  In58  1  0.16992762  0.65146646  0.12283921  1
  In  In59  1  0.16134603  0.67328389  0.61501021  1
  In  In60  1  0.48813245  0.00806059  0.11197319  1
  In  In61  1  0.49463314  0.02310825  0.65122040  1
  In  In62  1  0.51530123  0.33550715  0.12328934  1
  In  In63  1  0.49413256  0.33270511  0.63354414  1
  In  In64  1  0.49678950  0.66509335  0.12259399  1
  In  In65  1  0.50542905  0.65447397  0.62994713  1
  In  In66  1  0.83864298  0.00522346  0.11403354  1
  In  In67  1  0.81963942  0.02249065  0.65373778  1
  In  In68  1  0.83579010  0.32809472  0.12957576  1
  In  In69  1  0.83444536  0.33452065  0.62870649  1
  In  In70  1  0.83126603  0.67863574  0.12184727  1
  In  In71  1  0.84032647  0.65753346  0.62201229  1
  In  In72  1  0.32584320  0.33221003  0.25993293  1
  In  In73  1  0.67444548  0.64973447  0.25429715  1
  In  In74  1  0.67623665  0.01195332  0.23998074  1
  In  In75  1  0.84066129  0.49289628  -0.00336960  1
  In  In76  1  0.51158931  0.84067450  -0.00808864  1
  In  In77  1  0.84044436  0.83634177  0.50879516  1
  In  In78  1  0.16242661  0.17047088  -0.01000266  1
  In  In79  1  0.49380675  0.17563638  0.52057328  1
  In  In80  1  0.32826007  0.66334630  0.24914520  1
  In  In81  1  -0.00148589  0.66849229  0.74406819  1
  In  In82  1  0.16418214  0.83502654  -0.00256742  1
  In  In83  1  0.50021796  0.83785188  0.50997374  1
  In  In84  1  0.31919203  0.00057068  0.25028369  1
  In  In85  1  0.49739311  0.49732086  0.00117196  1
  Cu  Cu86  1  -0.00055591  0.66855196  -0.00528071  1
  Cu  Cu87  1  0.83460423  0.50259266  0.74262309  1
  Cu  Cu88  1  0.49307802  0.81677428  0.74577761  1
  Cu  Cu89  1  -0.00513985  0.01086314  0.51198083  1
  Cu  Cu90  1  0.16488741  0.49924570  0.25678801  1
  Cu  Cu91  1  0.49671006  0.50046145  0.74299815  1
  Cu  Cu92  1  0.66923600  0.01363023  0.52011065  1
  Cu  Cu93  1  0.32372466  -0.00232206  0.51227267  1
  Cu  Cu94  1  0.50306438  0.17571649  0.24993760  1
  Cu  Cu95  1  0.84397593  0.83027088  0.24986736  1
  Cu  Cu96  1  0.51271567  0.84333052  0.24987842  1
  Cu  Cu97  1  0.83511801  0.48723880  0.25943540  1
  Cu  Cu98  1  0.15822082  0.83726383  0.25895139  1
  Cu  Cu99  1  0.83216031  0.16606542  0.25300050  1
  Cu  Cu100  1  0.32947408  0.33262751  -0.01619826  1
  Cu  Cu101  1  0.66371805  0.66620422  0.50877179  1
  Cu  Cu102  1  0.51255407  0.49119010  0.26369283  1
  Cu  Cu103  1  0.16554165  0.82551486  0.74550344  1
  Cu  Cu104  1  0.67838467  0.67420283  -0.01223798  1
  Cu  Cu105  1  -0.00479028  0.32911846  -0.00571067  1
  Cu  Cu106  1  0.16927286  0.49841733  0.74081238  1
  Cu  Cu107  1  0.67152921  0.00441655  -0.01804791  1
  Cu  Cu108  1  -0.00228327  0.00930132  -0.00702458  1
  Cu  Cu109  1  0.67069806  0.32365690  -0.00746753  1
  Cu  Cu110  1  -0.00375044  0.32454166  0.50356008  1
  Cu  Cu111  1  0.34300183  0.01542429  -0.01648216  1
  Cu  Cu112  1  0.32868886  0.66873907  0.50858061  1
  Cu  Cu113  1  0.32658219  0.65955339  -0.01138851  1
  Cu  Cu114  1  0.14987313  0.16566171  0.25946793  1
  Se  Se115  1  0.07973151  0.08113117  0.05857891  1
  Se  Se116  1  0.08462322  0.09043549  0.56325278  1
  Se  Se117  1  0.07690545  0.41377350  0.04900976  1
  Se  Se118  1  0.08286519  0.40974353  0.55270819  1
  Se  Se119  1  0.07933336  0.74576636  0.06107608  1
  Se  Se120  1  0.06261212  0.73885658  0.54780991  1
  Se  Se121  1  0.42228004  0.09854506  0.03982719  1
  Se  Se122  1  0.40520462  0.07698715  0.57085132  1
  Se  Se123  1  0.40448493  0.40370507  0.05761713  1
  Se  Se124  1  0.42696320  0.41210628  0.55426251  1
  Se  Se125  1  0.40965996  0.74274324  0.04704021  1
  Se  Se126  1  0.40963238  0.74934711  0.56821204  1
  Se  Se127  1  0.75253318  0.08309970  0.04535570  1
  Se  Se128  1  0.75410814  0.09545230  0.57074769  1
  Se  Se129  1  0.73944809  0.41115974  0.05620512  1
  Se  Se130  1  0.76440101  0.42412234  0.55568480  1
  Se  Se131  1  0.76201805  0.75511323  0.04199268  1
  Se  Se132  1  0.73841683  0.75419205  0.56542469  1
  Se  Se133  1  0.25363464  0.25775288  0.05492078  1
  Se  Se134  1  0.26148798  0.24167397  0.56566300  1
  Se  Se135  1  0.24824231  0.57686093  0.04675048  1
  Se  Se136  1  0.24655912  0.57921447  0.55623262  1
  Se  Se137  1  0.26499018  0.93326995  0.04584800  1
  Se  Se138  1  0.23369302  0.91277292  0.55642971  1
  Se  Se139  1  0.58178828  0.24835751  0.04942062  1
  Se  Se140  1  0.59892135  0.26034934  0.56701240  1
  Se  Se141  1  0.59600836  0.59635569  0.05102349  1
  Se  Se142  1  0.57937426  0.57799166  0.55385969  1
  Se  Se143  1  0.60007494  0.93068613  0.05694429  1
  Se  Se144  1  0.58137548  0.93344031  0.57183038  1
  Se  Se145  1  0.91503808  0.24979248  0.05528343  1
  Se  Se146  1  0.91331880  0.24472891  0.56023291  1
  Se  Se147  1  0.92342963  0.58732030  0.05930486  1
  Se  Se148  1  0.93009343  0.60682698  0.54435386  1
  Se  Se149  1  0.92442789  0.91878576  0.04932161  1
  Se  Se150  1  0.91165671  0.93463083  0.57369553  1
  Se  Se151  1  0.08237057  0.24012946  0.45215094  1
  Se  Se152  1  0.07022132  0.25137720  0.92799022  1
  Se  Se153  1  0.10631121  0.55259333  0.44375010  1
  Se  Se154  1  0.08421087  0.57995427  0.95061065  1
  Se  Se155  1  0.07131963  0.91976227  0.45694503  1
  Se  Se156  1  0.08738516  0.93530153  0.93542887  1
  Se  Se157  1  0.41520376  0.24811552  0.44052328  1
  Se  Se158  1  0.41403957  0.24928198  0.93449886  1
  Se  Se159  1  0.41348105  0.58728583  0.45414585  1
  Se  Se160  1  0.41277799  0.58089010  0.93221951  1
  Se  Se161  1  0.40309004  0.92216738  0.44655649  1
  Se  Se162  1  0.42667082  0.93174338  0.93013614  1
  Se  Se163  1  0.74570585  0.25750035  0.45609200  1
  Se  Se164  1  0.75763703  0.24841712  0.93642483  1
  Se  Se165  1  0.75240495  0.58586435  0.45734901  1
  Se  Se166  1  0.74959401  0.58064061  0.93380848  1
  Se  Se167  1  0.73989327  0.93004830  0.45414779  1
  Se  Se168  1  0.75767535  0.91735633  0.93624433  1
  Se  Se169  1  0.24498850  0.08609616  0.45860493  1
  Se  Se170  1  0.25733957  0.09166239  0.92595062  1
  Se  Se171  1  0.26605030  0.39164187  0.46102499  1
  Se  Se172  1  0.24104229  0.41450040  0.93738036  1
  Se  Se173  1  0.24316928  0.75479622  0.45944369  1
  Se  Se174  1  0.25213025  0.74871969  0.93269204  1
  Se  Se175  1  0.58586500  0.08478267  0.45324711  1
  Se  Se176  1  0.58001418  0.08807544  0.93885372  1
  Se  Se177  1  0.56608549  0.42579759  0.45741308  1
  Se  Se178  1  0.58568828  0.40734443  0.93879578  1
  Se  Se179  1  0.58542419  0.74469313  0.44454765  1
  Se  Se180  1  0.59678598  0.75286882  0.92906585  1
  Se  Se181  1  0.90793898  0.08546290  0.45354207  1
  Se  Se182  1  0.91989058  0.09241349  0.93548131  1
  Se  Se183  1  0.91892623  0.41305378  0.44800856  1
  Se  Se184  1  0.91348783  0.40068330  0.92914401  1
  Se  Se185  1  0.91233705  0.75497284  0.43225844  1
  Se  Se186  1  0.91946273  0.75572433  0.94516673  1
  Se  Se187  1  0.23584679  0.24125627  0.31769813  1
  Se  Se188  1  0.23571181  0.24278820  0.78689605  1
  Se  Se189  1  0.24504231  0.57995281  0.31743120  1
  Se  Se190  1  0.24957071  0.58106912  0.79783497  1
  Se  Se191  1  0.24100615  0.91313159  0.32035516  1
  Se  Se192  1  0.24747943  0.90934562  0.80077351  1
  Se  Se193  1  0.58697606  0.25375094  0.30509782  1
  Se  Se194  1  0.59590998  0.25691787  0.79845076  1
  Se  Se195  1  0.59194219  0.56874190  0.32466511  1
  Se  Se196  1  0.58040688  0.58430815  0.79689070  1
  Se  Se197  1  0.58752914  0.92401263  0.31125959  1
  Se  Se198  1  0.56504528  0.89724736  0.81213522  1
  Se  Se199  1  0.91608094  0.24755119  0.30847548  1
  Se  Se200  1  0.93543751  0.27362388  0.79211758  1
  Se  Se201  1  0.91908097  0.57785641  0.30443210  1
  Se  Se202  1  0.91419376  0.57608341  0.80947042  1
  Se  Se203  1  0.91999428  0.92045104  0.30244996  1
  Se  Se204  1  0.92154664  0.92545592  0.79810721  1
  Se  Se205  1  0.07302012  0.07608614  0.31145282  1
  Se  Se206  1  0.08081832  0.08510647  0.78156343  1
  Se  Se207  1  0.08652719  0.40970963  0.30980410  1
  Se  Se208  1  0.08382601  0.42244361  0.79892757  1
  Se  Se209  1  0.08353978  0.74403832  0.31028008  1
  Se  Se210  1  0.08524975  0.75463119  0.81306607  1
  Se  Se211  1  0.42162306  0.08986187  0.30455942  1
  Se  Se212  1  0.39571206  0.06578976  0.79508534  1
  Se  Se213  1  0.41529858  0.42412527  0.31864613  1
  Se  Se214  1  0.41469658  0.41004036  0.79359799  1
  Se  Se215  1  0.42658462  0.75903621  0.30454257  1
  Se  Se216  1  0.40363707  0.73766904  0.79812306  1
  Se  Se217  1  0.75418572  0.08823239  0.31776924  1
  Se  Se218  1  0.73455814  0.07177203  0.79949353  1
  Se  Se219  1  0.74726096  0.41465456  0.31744625  1
  Se  Se220  1  0.74446365  0.42171143  0.79226403  1
  Se  Se221  1  0.75760649  0.75445932  0.30916990  1
  Se  Se222  1  0.74253080  0.73224103  0.79727465  1
  Se  Se223  1  0.23283565  0.09804812  0.19030884  1
  Se  Se224  1  0.27279353  0.05992997  0.70197609  1
  Se  Se225  1  0.24320300  0.42273652  0.19104235  1
  Se  Se226  1  0.25464246  0.41306748  0.69132971  1
  Se  Se227  1  0.23870052  0.76245259  0.19160215  1
  Se  Se228  1  0.24508012  0.73847230  0.69326606  1
  Se  Se229  1  0.57210386  0.09233998  0.18462817  1
  Se  Se230  1  0.60901593  0.07132068  0.71085256  1
  Se  Se231  1  0.58793088  0.40973922  0.20249206  1
  Se  Se232  1  0.58578027  0.41808557  0.69457837  1
  Se  Se233  1  0.58352781  0.75053598  0.19394625  1
  Se  Se234  1  0.58649768  0.74350556  0.69562927  1
  Se  Se235  1  0.90884438  0.07865020  0.19563317  1
  Se  Se236  1  0.93888810  0.07476772  0.70704908  1
  Se  Se237  1  0.91845454  0.41189123  0.19680427  1
  Se  Se238  1  0.92352870  0.42550385  0.68986924  1
  Se  Se239  1  0.92141295  0.74388976  0.19473783  1
  Se  Se240  1  0.90455349  0.76069269  0.69138063  1
  Se  Se241  1  0.07723843  0.25217776  0.19890038  1
  Se  Se242  1  0.08674989  0.25650378  0.69998706  1
  Se  Se243  1  0.08622127  0.58209681  0.19719808  1
  Se  Se244  1  0.08306132  0.57523694  0.68378662  1
  Se  Se245  1  0.08237402  0.92162415  0.19895145  1
  Se  Se246  1  0.08582634  0.91076533  0.69245806  1
  Se  Se247  1  0.41554487  0.24940700  0.19011802  1
  Se  Se248  1  0.44403903  0.22504474  0.70043997  1
  Se  Se249  1  0.43199763  0.56960151  0.19871123  1
  Se  Se250  1  0.40824210  0.58207296  0.69335512  1
  Se  Se251  1  0.42334717  0.91390518  0.19013215  1
  Se  Se252  1  0.41894685  0.90852626  0.69398320  1
  Se  Se253  1  0.74752436  0.24533834  0.19532592  1
  Se  Se254  1  0.77216571  0.24756965  0.70670569  1
  Se  Se255  1  0.76465208  0.56612770  0.18702905  1
  Se  Se256  1  0.74968287  0.58416961  0.68951729  1
  Se  Se257  1  0.75792158  0.90497186  0.18836175  1
  Se  Se258  1  0.75376766  0.91539301  0.71345284  1
