# generated using pymatgen
data_In86Cu29Se144
_symmetry_space_group_name_H-M   'P 1'
_cell_length_a   17.57000354
_cell_length_b   17.56856868
_cell_length_c   23.42543624
_cell_angle_alpha   90.00793637
_cell_angle_beta   90.00834323
_cell_angle_gamma   89.98431559
_symmetry_Int_Tables_number   1
_chemical_formula_structural   In86Cu29Se144
_chemical_formula_sum   'In86 Cu29 Se144'
_cell_volume   7230.95888391
_cell_formula_units_Z   1
loop_
 _symmetry_equiv_pos_site_id
 _symmetry_equiv_pos_as_xyz
  1  'x, y, z'
loop_
 _atom_site_type_symbol
 _atom_site_label
 _atom_site_symmetry_multiplicity
 _atom_site_fract_x
 _atom_site_fract_y
 _atom_site_fract_z
 _atom_site_occupancy
  In  In0  1  0.00376398  0.17374757  0.14298232  1
  In  In1  1  -0.00233861  0.15820239  0.62468727  1
  In  In2  1  0.00028499  0.48774078  0.12781278  1
  In  In3  1  0.00000873  0.49906735  0.62104509  1
  In  In4  1  0.01173145  0.83535057  0.13031103  1
  In  In5  1  0.00606187  0.83332347  0.61973294  1
  In  In6  1  0.32464309  0.18073452  0.15901086  1
  In  In7  1  0.32731893  0.17987283  0.61641951  1
  In  In8  1  0.33123406  0.50532991  0.12622060  1
  In  In9  1  0.34551938  0.51095320  0.61675774  1
  In  In10  1  0.34138552  0.82449696  0.14190347  1
  In  In11  1  0.31906840  0.81819849  0.61110439  1
  In  In12  1  0.64646029  0.18057400  0.15242868  1
  In  In13  1  0.67719314  0.17229840  0.62028267  1
  In  In14  1  0.65516166  0.51497547  0.13247276  1
  In  In15  1  0.65462595  0.48922677  0.61798577  1
  In  In16  1  0.66019403  0.83491300  0.13470393  1
  In  In17  1  0.66015967  0.83282627  0.60054755  1
  In  In18  1  0.16647282  -0.00069149  0.37572128  1
  In  In19  1  0.16172331  0.00970617  0.86927586  1
  In  In20  1  0.17206737  0.33566774  0.37059184  1
  In  In21  1  0.17309547  0.34380600  0.87083015  1
  In  In22  1  0.17757396  0.65732919  0.38368637  1
  In  In23  1  0.16642439  0.66143687  0.86765296  1
  In  In24  1  0.49138127  -0.00373446  0.36953332  1
  In  In25  1  0.49966466  -0.00521848  0.87593135  1
  In  In26  1  0.49978351  0.33817949  0.36489801  1
  In  In27  1  0.51723012  0.35198324  0.87168063  1
  In  In28  1  0.49964492  0.66446545  0.37584189  1
  In  In29  1  0.49278876  0.66152585  0.87285278  1
  In  In30  1  0.82744212  -0.01030493  0.37447135  1
  In  In31  1  0.83465615  -0.01161136  0.86943940  1
  In  In32  1  0.83583891  0.33495559  0.37246125  1
  In  In33  1  0.83269623  0.33339658  0.86974789  1
  In  In34  1  0.82381016  0.67446218  0.38563984  1
  In  In35  1  0.84117938  0.65485950  0.86969426  1
  In  In36  1  0.01962988  0.17485109  0.36360236  1
  In  In37  1  0.00025498  0.16658323  0.86253818  1
  In  In38  1  0.00455346  0.48979457  0.38431640  1
  In  In39  1  0.00775985  0.50334386  0.86055214  1
  In  In40  1  -0.00836626  0.84465720  0.38351677  1
  In  In41  1  0.00204210  0.83343567  0.85972788  1
  In  In42  1  0.31380388  0.15029343  0.35267544  1
  In  In43  1  0.32561601  0.16607432  0.88388578  1
  In  In44  1  0.33274452  0.50188271  0.37186774  1
  In  In45  1  0.32740435  0.50741739  0.88683292  1
  In  In46  1  0.33546834  0.82933853  0.37833156  1
  In  In47  1  0.34801558  0.82270128  0.87444183  1
  In  In48  1  0.65021446  0.16158625  0.35851950  1
  In  In49  1  0.65654869  0.18171387  0.88282547  1
  In  In50  1  0.66214994  0.49800385  0.37566313  1
  In  In51  1  0.66797912  0.49832276  0.88040978  1
  In  In52  1  0.66769931  0.83128985  0.38041547  1
  In  In53  1  0.66297288  0.84749851  0.87190970  1
  In  In54  1  0.16397971  0.00993761  0.14977518  1
  In  In55  1  0.15436353  -0.00900684  0.61050937  1
  In  In56  1  0.16154300  0.34306990  0.13437727  1
  In  In57  1  0.15787137  0.32301386  0.61365853  1
  In  In58  1  0.17857159  0.65962328  0.12719969  1
  In  In59  1  0.16824301  0.66353311  0.62163986  1
  In  In60  1  0.49267553  0.00922955  0.15057456  1
  In  In61  1  0.50872502  -0.01283215  0.61759172  1
  In  In62  1  0.49623000  0.34356597  0.13476981  1
  In  In63  1  0.50612996  0.35508650  0.62132063  1
  In  In64  1  0.50321192  0.65651784  0.12688259  1
  In  In65  1  0.49101759  0.65631910  0.61826325  1
  In  In66  1  0.82601190  0.00794255  0.13897466  1
  In  In67  1  0.84151168  0.00159747  0.61653391  1
  In  In68  1  0.83731390  0.33367855  0.13556491  1
  In  In69  1  0.82405394  0.34109579  0.62625557  1
  In  In70  1  0.82008794  0.65653818  0.12497526  1
  In  In71  1  0.84175230  0.67485532  0.61608549  1
  In  In72  1  0.32677607  -0.00339100  0.75039386  1
  In  In73  1  0.16979914  0.17656834  0.01445302  1
  In  In74  1  0.82895428  0.49625953  0.00036469  1
  In  In75  1  0.67618998  0.66656828  0.74800600  1
  In  In76  1  0.50349127  0.81984538  0.00963121  1
  In  In77  1  0.83240518  0.16415183  0.49120981  1
  In  In78  1  0.49302924  0.17840290  0.02187992  1
  In  In79  1  0.17085169  0.82817257  -0.00063815  1
  In  In80  1  0.83261538  0.17194528  -0.00039766  1
  In  In81  1  0.83249996  0.82874355  0.01085649  1
  In  In82  1  0.68207390  0.00765581  0.74178454  1
  In  In83  1  -0.00808641  0.67239574  0.25863758  1
  In  In84  1  0.33035686  0.33772886  0.74874973  1
  In  In85  1  0.48939556  0.16768515  0.48322329  1
  Cu  Cu86  1  0.16793318  0.50349948  0.25531537  1
  Cu  Cu87  1  0.82929578  0.82829182  0.25799563  1
  Cu  Cu88  1  0.66339550  0.65969292  0.49663502  1
  Cu  Cu89  1  0.16686295  0.82773283  0.73925632  1
  Cu  Cu90  1  0.00641474  0.66449628  0.49904491  1
  Cu  Cu91  1  0.00402240  0.00408994  0.49646955  1
  Cu  Cu92  1  0.84241130  0.83386090  0.74189882  1
  Cu  Cu93  1  0.65752467  0.33082219  0.49327426  1
  Cu  Cu94  1  0.16874993  0.49845000  0.74482628  1
  Cu  Cu95  1  0.34418120  0.34084286  0.00286973  1
  Cu  Cu96  1  0.33069271  -0.00697294  0.01813764  1
  Cu  Cu97  1  0.00821933  0.33620469  0.00001591  1
  Cu  Cu98  1  0.83735520  0.49931574  0.74548255  1
  Cu  Cu99  1  0.00212176  0.65957770  -0.00986161  1
  Cu  Cu100  1  0.49991771  0.82668073  0.25886891  1
  Cu  Cu101  1  0.49642267  0.82329042  0.73995625  1
  Cu  Cu102  1  0.83999205  0.16541627  0.25893599  1
  Cu  Cu103  1  0.15621144  0.16056475  0.74060640  1
  Cu  Cu104  1  0.16571643  0.83349501  0.25801853  1
  Cu  Cu105  1  -0.00127367  0.33338433  0.49448156  1
  Cu  Cu106  1  0.33481130  0.00368992  0.49125099  1
  Cu  Cu107  1  0.49705384  0.50518015  0.25172391  1
  Cu  Cu108  1  0.33728586  0.66625808  0.49776333  1
  Cu  Cu109  1  0.50379239  0.17472141  0.75168379  1
  Cu  Cu110  1  0.00180955  0.00216985  0.00169169  1
  Cu  Cu111  1  0.32757129  0.33754521  0.49272514  1
  Cu  Cu112  1  0.83211745  0.17536224  0.74459737  1
  Cu  Cu113  1  0.82875421  0.49891144  0.25435739  1
  Cu  Cu114  1  0.66340714  0.00928314  0.01115987  1
  Se  Se115  1  0.07850901  0.07832166  0.06598617  1
  Se  Se116  1  0.08336285  0.09239882  0.54890880  1
  Se  Se117  1  0.08867939  0.41913914  0.05524482  1
  Se  Se118  1  0.08148716  0.41676846  0.54950914  1
  Se  Se119  1  0.07482809  0.73863278  0.05719423  1
  Se  Se120  1  0.08931661  0.75000555  0.55211790  1
  Se  Se121  1  0.40202747  0.08264923  0.07603923  1
  Se  Se122  1  0.41230121  0.07914411  0.55844934  1
  Se  Se123  1  0.42258915  0.42320631  0.05997080  1
  Se  Se124  1  0.41425662  0.41511373  0.54749170  1
  Se  Se125  1  0.40158295  0.73761211  0.06164529  1
  Se  Se126  1  0.42266693  0.75154676  0.54998989  1
  Se  Se127  1  0.74322888  0.09150542  0.06763057  1
  Se  Se128  1  0.73998975  0.07348628  0.55081579  1
  Se  Se129  1  0.74732295  0.41619668  0.07040998  1
  Se  Se130  1  0.74241095  0.40976897  0.54956938  1
  Se  Se131  1  0.73078535  0.74175293  0.05852710  1
  Se  Se132  1  0.75129193  0.74506814  0.54479669  1
  Se  Se133  1  0.26859656  0.26151769  0.06934913  1
  Se  Se134  1  0.24525264  0.24840641  0.54161382  1
  Se  Se135  1  0.23995342  0.57277649  0.05361923  1
  Se  Se136  1  0.25129981  0.58259748  0.55033910  1
  Se  Se137  1  0.24578244  0.91440803  0.07390646  1
  Se  Se138  1  0.25276434  0.92032489  0.54809568  1
  Se  Se139  1  0.59761118  0.26459016  0.06642374  1
  Se  Se140  1  0.57894864  0.25041143  0.55451829  1
  Se  Se141  1  0.58611228  0.58704941  0.05239724  1
  Se  Se142  1  0.57811017  0.57752963  0.54978641  1
  Se  Se143  1  0.57802667  0.92791498  0.06648175  1
  Se  Se144  1  0.58026561  0.92092991  0.53729380  1
  Se  Se145  1  0.93026015  0.25563973  0.06092954  1
  Se  Se146  1  0.91606040  0.25454043  0.55643109  1
  Se  Se147  1  0.92433219  0.58820044  0.05836078  1
  Se  Se148  1  0.91843674  0.58235496  0.55076700  1
  Se  Se149  1  0.92267236  0.92551009  0.06435798  1
  Se  Se150  1  0.92319803  0.91826160  0.55001905  1
  Se  Se151  1  0.08671078  0.25443852  0.44177261  1
  Se  Se152  1  0.08163646  0.25002870  0.93866688  1
  Se  Se153  1  0.08764049  0.57786461  0.44846931  1
  Se  Se154  1  0.08498241  0.57746032  0.93776080  1
  Se  Se155  1  0.08884808  0.91569023  0.44865215  1
  Se  Se156  1  0.07760253  0.92132823  0.93921852  1
  Se  Se157  1  0.39850468  0.25671947  0.42661061  1
  Se  Se158  1  0.41759504  0.25615601  0.94086249  1
  Se  Se159  1  0.41677277  0.57968418  0.44413893  1
  Se  Se160  1  0.42514630  0.58139424  0.94819595  1
  Se  Se161  1  0.41905229  0.91640133  0.44531149  1
  Se  Se162  1  0.41017480  0.92109906  0.95053709  1
  Se  Se163  1  0.73404699  0.24854956  0.43376748  1
  Se  Se164  1  0.74204894  0.26983859  0.94947529  1
  Se  Se165  1  0.74913525  0.57526497  0.44663497  1
  Se  Se166  1  0.74682490  0.59863115  0.94471692  1
  Se  Se167  1  0.76233893  0.90346586  0.44766840  1
  Se  Se168  1  0.74283382  0.92821198  0.95047405  1
  Se  Se169  1  0.25093657  0.08840139  0.44128575  1
  Se  Se170  1  0.25058298  0.07049647  0.95316824  1
  Se  Se171  1  0.24499802  0.42410755  0.44190303  1
  Se  Se172  1  0.24952013  0.41132363  0.94961895  1
  Se  Se173  1  0.25022661  0.75199669  0.44999383  1
  Se  Se174  1  0.26079142  0.73866144  0.94095700  1
  Se  Se175  1  0.58982920  0.07588418  0.43876101  1
  Se  Se176  1  0.57824849  0.08299989  0.94983514  1
  Se  Se177  1  0.57325493  0.41525309  0.44242044  1
  Se  Se178  1  0.58984717  0.41812718  0.95179837  1
  Se  Se179  1  0.58084068  0.74693160  0.44615208  1
  Se  Se180  1  0.59174599  0.74886104  0.93525275  1
  Se  Se181  1  0.92831471  0.08222303  0.43159009  1
  Se  Se182  1  0.92116489  0.07728258  0.93901960  1
  Se  Se183  1  0.90751531  0.41578243  0.44875606  1
  Se  Se184  1  0.92635146  0.41352237  0.93871027  1
  Se  Se185  1  0.92008621  0.74879644  0.44874974  1
  Se  Se186  1  0.92253675  0.74980068  0.93896809  1
  Se  Se187  1  0.24610230  0.25519199  0.29492506  1
  Se  Se188  1  0.24028589  0.23558855  0.80392200  1
  Se  Se189  1  0.25194140  0.59021011  0.30275154  1
  Se  Se190  1  0.25179924  0.57408890  0.80425549  1
  Se  Se191  1  0.25286510  0.91393654  0.30984313  1
  Se  Se192  1  0.24067113  0.90235560  0.81206578  1
  Se  Se193  1  0.57860807  0.25473721  0.29338668  1
  Se  Se194  1  0.58768738  0.25679102  0.80364033  1
  Se  Se195  1  0.58405823  0.58444715  0.30596914  1
  Se  Se196  1  0.58449129  0.57893179  0.80611402  1
  Se  Se197  1  0.58384390  0.91149755  0.30937680  1
  Se  Se198  1  0.57495835  0.91648710  0.79425375  1
  Se  Se199  1  0.92272824  0.25546435  0.30477289  1
  Se  Se200  1  0.91791666  0.25545507  0.80039976  1
  Se  Se201  1  0.90883657  0.57714074  0.31756862  1
  Se  Se202  1  0.92161949  0.58691136  0.79381052  1
  Se  Se203  1  0.91652946  0.91431537  0.30375171  1
  Se  Se204  1  0.92070218  0.92307289  0.79474561  1
  Se  Se205  1  0.08375930  0.07260216  0.30141732  1
  Se  Se206  1  0.07543282  0.07550121  0.79473927  1
  Se  Se207  1  0.08156687  0.42032426  0.30533875  1
  Se  Se208  1  0.08691278  0.41039215  0.79658558  1
  Se  Se209  1  0.08642302  0.75352567  0.31960692  1
  Se  Se210  1  0.08542815  0.74518747  0.79808412  1
  Se  Se211  1  0.43616198  0.10121645  0.30437779  1
  Se  Se212  1  0.42069136  0.09282207  0.80916148  1
  Se  Se213  1  0.41040315  0.41893141  0.29922546  1
  Se  Se214  1  0.41585324  0.42644512  0.81097204  1
  Se  Se215  1  0.41209023  0.74347020  0.30731743  1
  Se  Se216  1  0.41707904  0.74282980  0.79756396  1
  Se  Se217  1  0.75333499  0.08084188  0.30604214  1
  Se  Se218  1  0.75571327  0.09857222  0.81548470  1
  Se  Se219  1  0.74533930  0.41361040  0.30667547  1
  Se  Se220  1  0.75443844  0.42678273  0.80738522  1
  Se  Se221  1  0.74514520  0.74435109  0.30792038  1
  Se  Se222  1  0.76233070  0.76445756  0.80999423  1
  Se  Se223  1  0.26506429  0.06980029  0.21420300  1
  Se  Se224  1  0.24521249  0.08629943  0.68316486  1
  Se  Se225  1  0.25182667  0.42280090  0.19848361  1
  Se  Se226  1  0.24504458  0.41860289  0.67988201  1
  Se  Se227  1  0.24312751  0.74697786  0.20196472  1
  Se  Se228  1  0.25477204  0.74341300  0.69310933  1
  Se  Se229  1  0.61166391  0.05610248  0.20291210  1
  Se  Se230  1  0.57629403  0.09070862  0.68763548  1
  Se  Se231  1  0.58526189  0.42266968  0.20180557  1
  Se  Se232  1  0.58701885  0.41622169  0.69939040  1
  Se  Se233  1  0.57792645  0.74666939  0.19753884  1
  Se  Se234  1  0.58775699  0.75351144  0.68300084  1
  Se  Se235  1  0.92105497  0.08181458  0.20311476  1
  Se  Se236  1  0.90814532  0.08337693  0.69416528  1
  Se  Se237  1  0.91851466  0.41857197  0.20355394  1
  Se  Se238  1  0.91817812  0.41470359  0.69128160  1
  Se  Se239  1  0.90520085  0.75580490  0.18787627  1
  Se  Se240  1  0.92398302  0.74897418  0.69000518  1
  Se  Se241  1  0.10474393  0.24173863  0.20233510  1
  Se  Se242  1  0.07734149  0.25011782  0.68970911  1
  Se  Se243  1  0.08097400  0.58195605  0.19613460  1
  Se  Se244  1  0.08461730  0.58087051  0.69043121  1
  Se  Se245  1  0.07810664  0.91534761  0.20713786  1
  Se  Se246  1  0.08596764  0.91812662  0.69166530  1
  Se  Se247  1  0.45023745  0.23245196  0.20057101  1
  Se  Se248  1  0.42253963  0.24800301  0.68861810  1
  Se  Se249  1  0.41236380  0.58745817  0.19779100  1
  Se  Se250  1  0.42340406  0.57700896  0.69542133  1
  Se  Se251  1  0.41299932  0.91459391  0.21096375  1
  Se  Se252  1  0.41437563  0.90918131  0.68519704  1
  Se  Se253  1  0.75714011  0.24991069  0.20409156  1
  Se  Se254  1  0.74290223  0.25553871  0.69612424  1
  Se  Se255  1  0.74730716  0.58679035  0.20382991  1
  Se  Se256  1  0.75692859  0.57675381  0.68197582  1
  Se  Se257  1  0.74917426  0.91273688  0.20097146  1
  Se  Se258  1  0.75388276  0.90475594  0.68095740  1
