# generated using pymatgen
data_In86Cu29Se144
_symmetry_space_group_name_H-M   'P 1'
_cell_length_a   17.57623880
_cell_length_b   17.57764222
_cell_length_c   23.42963003
_cell_angle_alpha   89.99544506
_cell_angle_beta   90.00062779
_cell_angle_gamma   90.01052354
_symmetry_Int_Tables_number   1
_chemical_formula_structural   In86Cu29Se144
_chemical_formula_sum   'In86 Cu29 Se144'
_cell_volume   7238.55680625
_cell_formula_units_Z   1
loop_
 _symmetry_equiv_pos_site_id
 _symmetry_equiv_pos_as_xyz
  1  'x, y, z'
loop_
 _atom_site_type_symbol
 _atom_site_label
 _atom_site_symmetry_multiplicity
 _atom_site_fract_x
 _atom_site_fract_y
 _atom_site_fract_z
 _atom_site_occupancy
  In  In0  1  -0.00628386  0.17822012  0.13660827  1
  In  In1  1  0.01240549  0.17460583  0.61376483  1
  In  In2  1  0.00090961  0.49448255  0.13853126  1
  In  In3  1  0.00056511  0.49711643  0.61733236  1
  In  In4  1  -0.00183213  0.83679858  0.14513432  1
  In  In5  1  0.00563522  0.81871178  0.62588391  1
  In  In6  1  0.34750125  0.15744944  0.13314819  1
  In  In7  1  0.33495383  0.17829064  0.62145190  1
  In  In8  1  0.32021020  0.50074491  0.12619383  1
  In  In9  1  0.33164033  0.49707642  0.61940766  1
  In  In10  1  0.34396705  0.84216707  0.12935844  1
  In  In11  1  0.31117730  0.81112883  0.60960922  1
  In  In12  1  0.67715898  0.17370381  0.11929868  1
  In  In13  1  0.67417980  0.15928292  0.62567443  1
  In  In14  1  0.67481394  0.49629063  0.13545317  1
  In  In15  1  0.65502779  0.49090960  0.61321576  1
  In  In16  1  0.65279416  0.83096425  0.13493696  1
  In  In17  1  0.66992751  0.84362268  0.62451647  1
  In  In18  1  0.16664494  0.00319523  0.38063213  1
  In  In19  1  0.17603584  0.00444249  0.87322137  1
  In  In20  1  0.16677869  0.33081669  0.37465452  1
  In  In21  1  0.17162209  0.33809150  0.86237161  1
  In  In22  1  0.15761651  0.67314172  0.38389768  1
  In  In23  1  0.16527930  0.67209078  0.85858006  1
  In  In24  1  0.47865352  0.00056798  0.37899313  1
  In  In25  1  0.50901950  -0.00496713  0.87154194  1
  In  In26  1  0.50110663  0.33976521  0.37166013  1
  In  In27  1  0.49162409  0.32498658  0.86675327  1
  In  In28  1  0.51127075  0.66190527  0.39009807  1
  In  In29  1  0.49175577  0.67434407  0.86972966  1
  In  In30  1  0.85394717  -0.00543176  0.37293312  1
  In  In31  1  0.83431548  0.02186466  0.87640637  1
  In  In32  1  0.83240975  0.33381323  0.38035094  1
  In  In33  1  0.82814647  0.32809196  0.86654074  1
  In  In34  1  0.82050478  0.65839437  0.37030620  1
  In  In35  1  0.84069913  0.65486564  0.87101945  1
  In  In36  1  0.00290410  0.16519534  0.37439075  1
  In  In37  1  -0.01015170  0.16972157  0.87478796  1
  In  In38  1  -0.00252929  0.49769346  0.38044945  1
  In  In39  1  0.00412575  0.50076797  0.86168104  1
  In  In40  1  0.00492557  0.84484919  0.36552973  1
  In  In41  1  0.00846562  0.82660073  0.87133744  1
  In  In42  1  0.30809283  0.15065164  0.35358856  1
  In  In43  1  0.33079381  0.17765026  0.87639284  1
  In  In44  1  0.34111107  0.49130535  0.38146752  1
  In  In45  1  0.33410201  0.50175761  0.86562048  1
  In  In46  1  0.32786845  0.84729126  0.39181290  1
  In  In47  1  0.33923971  0.82912831  0.86666609  1
  In  In48  1  0.66522366  0.18427038  0.37546726  1
  In  In49  1  0.66612562  0.16912231  0.87137488  1
  In  In50  1  0.66874941  0.50112237  0.38417750  1
  In  In51  1  0.68282201  0.49441786  0.87043253  1
  In  In52  1  0.67101148  0.80691420  0.38087898  1
  In  In53  1  0.64931471  0.83736481  0.86904859  1
  In  In54  1  0.17840484  0.00252541  0.13836875  1
  In  In55  1  0.16644029  -0.00733111  0.61062077  1
  In  In56  1  0.17626737  0.31672263  0.15132343  1
  In  In57  1  0.16583448  0.33325312  0.61996785  1
  In  In58  1  0.16137887  0.65761316  0.12966863  1
  In  In59  1  0.16931008  0.66485414  0.62114884  1
  In  In60  1  0.48545890  0.00628548  0.13253432  1
  In  In61  1  0.50485626  0.00700433  0.62318559  1
  In  In62  1  0.51458372  0.32633602  0.13078115  1
  In  In63  1  0.48940783  0.34042191  0.62855402  1
  In  In64  1  0.50243086  0.68166214  0.13044249  1
  In  In65  1  0.49488689  0.64615200  0.61071153  1
  In  In66  1  0.82656519  0.01533182  0.12762305  1
  In  In67  1  0.82073936  -0.00088629  0.62168078  1
  In  In68  1  0.84021157  0.32487497  0.13252573  1
  In  In69  1  0.83566501  0.33145543  0.62081658  1
  In  In70  1  0.84011663  0.66489174  0.14273756  1
  In  In71  1  0.84431750  0.66687083  0.62026632  1
  In  In72  1  0.83981073  0.83234770  0.49690375  1
  In  In73  1  0.16221431  0.49710120  0.00733976  1
  In  In74  1  0.16805981  0.83517756  -0.00046604  1
  In  In75  1  0.66923188  -0.00629453  0.25305559  1
  In  In76  1  -0.00430606  -0.00120279  0.74169366  1
  In  In77  1  0.66560281  0.66379901  0.74879252  1
  In  In78  1  0.16860236  0.16900574  0.00620942  1
  In  In79  1  0.49431894  0.84233160  0.00457734  1
  In  In80  1  0.82821428  0.84002257  0.00674544  1
  In  In81  1  0.33448430  -0.00491459  0.74687047  1
  In  In82  1  0.49187851  0.17303141  0.49578332  1
  In  In83  1  0.49782969  0.49850611  -0.00781509  1
  In  In84  1  0.33497777  0.66823798  0.25399206  1
  In  In85  1  0.83851959  0.49195142  0.00197412  1
  Cu  Cu86  1  0.66910267  0.00347542  0.49859981  1
  Cu  Cu87  1  0.16207388  0.49892551  0.25891474  1
  Cu  Cu88  1  -0.00043493  0.00845479  0.00420009  1
  Cu  Cu89  1  0.00288245  0.66512174  0.00018499  1
  Cu  Cu90  1  0.50653557  0.16937387  0.74629383  1
  Cu  Cu91  1  0.33238234  0.66236817  0.49813258  1
  Cu  Cu92  1  0.16616919  0.49819087  0.73797910  1
  Cu  Cu93  1  0.50049967  0.83022617  0.26062368  1
  Cu  Cu94  1  0.66419764  0.00986699  -0.00392755  1
  Cu  Cu95  1  0.50432834  0.50191399  0.25805192  1
  Cu  Cu96  1  0.49738197  0.49638088  0.74243894  1
  Cu  Cu97  1  0.83458388  0.16944344  0.25373225  1
  Cu  Cu98  1  0.00348714  0.00136215  0.49393425  1
  Cu  Cu99  1  0.66496782  0.32110918  -0.00300587  1
  Cu  Cu100  1  0.66198816  0.66548651  0.00876560  1
  Cu  Cu101  1  0.33917334  0.33369600  -0.00008224  1
  Cu  Cu102  1  0.83172970  0.17383683  0.74821080  1
  Cu  Cu103  1  0.49429470  0.82880568  0.74156322  1
  Cu  Cu104  1  0.16582972  0.17027201  0.74398109  1
  Cu  Cu105  1  0.82805833  0.49756336  0.26025309  1
  Cu  Cu106  1  0.83736481  0.49622612  0.74209576  1
  Cu  Cu107  1  0.50147321  0.17356681  0.25311483  1
  Cu  Cu108  1  0.83250052  0.83775354  0.74580105  1
  Cu  Cu109  1  0.66707049  0.33340048  0.50006690  1
  Cu  Cu110  1  0.17266843  0.83782941  0.26108962  1
  Cu  Cu111  1  -0.00012818  0.32913284  0.00570659  1
  Cu  Cu112  1  0.32928308  0.33218920  0.49623790  1
  Cu  Cu113  1  0.00261408  0.66420621  0.49858311  1
  Cu  Cu114  1  -0.00071317  0.33302665  0.49648698  1
  Se  Se115  1  0.08012771  0.08064875  0.06817758  1
  Se  Se116  1  0.08819675  0.08451353  0.54692944  1
  Se  Se117  1  0.08150359  0.40190092  0.06907717  1
  Se  Se118  1  0.08536435  0.41551867  0.54903831  1
  Se  Se119  1  0.07565266  0.74880683  0.06240245  1
  Se  Se120  1  0.08613688  0.74932503  0.55014872  1
  Se  Se121  1  0.41770771  0.08248094  0.05495139  1
  Se  Se122  1  0.40686951  0.07785830  0.55527638  1
  Se  Se123  1  0.41395517  0.41510370  0.06233111  1
  Se  Se124  1  0.41610463  0.41339741  0.54981057  1
  Se  Se125  1  0.40492891  0.74216719  0.05665308  1
  Se  Se126  1  0.41808542  0.74500833  0.55088105  1
  Se  Se127  1  0.75383299  0.08698370  0.04847124  1
  Se  Se128  1  0.75426126  0.08746510  0.54817164  1
  Se  Se129  1  0.74226375  0.40459361  0.05820681  1
  Se  Se130  1  0.75325146  0.41600476  0.55178899  1
  Se  Se131  1  0.74400226  0.74301961  0.06736976  1
  Se  Se132  1  0.74631496  0.74789304  0.55821532  1
  Se  Se133  1  0.25763962  0.26041669  0.06455760  1
  Se  Se134  1  0.24739033  0.24786504  0.54989385  1
  Se  Se135  1  0.25685772  0.59771771  0.05360660  1
  Se  Se136  1  0.24736423  0.57883291  0.55084639  1
  Se  Se137  1  0.25816712  0.92546647  0.05888999  1
  Se  Se138  1  0.25508213  0.91634781  0.54564090  1
  Se  Se139  1  0.57967381  0.24351853  0.05262243  1
  Se  Se140  1  0.58476964  0.25351770  0.56100671  1
  Se  Se141  1  0.58301431  0.58215848  0.06449685  1
  Se  Se142  1  0.59593209  0.58816993  0.54387205  1
  Se  Se143  1  0.59110069  0.92969778  0.06190797  1
  Se  Se144  1  0.58741809  0.92338057  0.55446761  1
  Se  Se145  1  0.91474243  0.24609476  0.05653776  1
  Se  Se146  1  0.91629204  0.24791280  0.54980223  1
  Se  Se147  1  0.92408291  0.58676948  0.06250088  1
  Se  Se148  1  0.91571133  0.58131051  0.54844500  1
  Se  Se149  1  0.92626366  0.92308483  0.06478473  1
  Se  Se150  1  0.92750740  0.92290095  0.56126402  1
  Se  Se151  1  0.08386674  0.24883125  0.44495752  1
  Se  Se152  1  0.08400493  0.25891940  0.94003658  1
  Se  Se153  1  0.08636225  0.57687830  0.44907219  1
  Se  Se154  1  0.08058834  0.58699757  0.93877025  1
  Se  Se155  1  0.08361726  0.91067876  0.44532179  1
  Se  Se156  1  0.07441801  0.92968647  0.94106536  1
  Se  Se157  1  0.40252395  0.25257132  0.42998367  1
  Se  Se158  1  0.42039650  0.25002761  0.94650685  1
  Se  Se159  1  0.41930642  0.57737531  0.45018850  1
  Se  Se160  1  0.40504351  0.59366404  0.94088304  1
  Se  Se161  1  0.43122892  0.90911143  0.45603901  1
  Se  Se162  1  0.40532989  0.92512074  0.93838377  1
  Se  Se163  1  0.75131648  0.24764541  0.45096883  1
  Se  Se164  1  0.75493030  0.24734870  0.94143178  1
  Se  Se165  1  0.74315837  0.59508840  0.45019210  1
  Se  Se166  1  0.74452501  0.59097207  0.94712370  1
  Se  Se167  1  0.74736690  0.92249913  0.43697700  1
  Se  Se168  1  0.73964182  0.92185456  0.93783442  1
  Se  Se169  1  0.25464828  0.08832473  0.44364738  1
  Se  Se170  1  0.25970415  0.07882272  0.94661997  1
  Se  Se171  1  0.24500617  0.41790871  0.44572275  1
  Se  Se172  1  0.25577472  0.41251171  0.94191618  1
  Se  Se173  1  0.24759755  0.75010553  0.45044375  1
  Se  Se174  1  0.25235528  0.74406205  0.93649188  1
  Se  Se175  1  0.58659925  0.08183970  0.43764783  1
  Se  Se176  1  0.57954363  0.08656567  0.93986146  1
  Se  Se177  1  0.57973026  0.41369087  0.44772042  1
  Se  Se178  1  0.59397522  0.40899207  0.93714778  1
  Se  Se179  1  0.57215783  0.76642784  0.45431408  1
  Se  Se180  1  0.58558990  0.74373832  0.94590651  1
  Se  Se181  1  0.91607039  0.08500440  0.44648194  1
  Se  Se182  1  0.91692863  0.09161860  0.95145053  1
  Se  Se183  1  0.91158011  0.41898681  0.45030035  1
  Se  Se184  1  0.92965365  0.40960650  0.93814556  1
  Se  Se185  1  0.92600346  0.74417165  0.43448186  1
  Se  Se186  1  0.91752424  0.74578234  0.94487408  1
  Se  Se187  1  0.25330265  0.26407850  0.29905108  1
  Se  Se188  1  0.25338080  0.24814445  0.79889029  1
  Se  Se189  1  0.24587942  0.58073062  0.31583034  1
  Se  Se190  1  0.24685285  0.57920335  0.79791421  1
  Se  Se191  1  0.25670411  0.92083310  0.31188240  1
  Se  Se192  1  0.23716621  0.90520159  0.80357767  1
  Se  Se193  1  0.58587342  0.25876057  0.30151038  1
  Se  Se194  1  0.58770015  0.25455300  0.80097080  1
  Se  Se195  1  0.58467258  0.58472727  0.31290413  1
  Se  Se196  1  0.57507375  0.57160392  0.81056189  1
  Se  Se197  1  0.58062810  0.91253810  0.31939792  1
  Se  Se198  1  0.57739835  0.91522826  0.79304015  1
  Se  Se199  1  0.91513521  0.25222228  0.30993739  1
  Se  Se200  1  0.92138474  0.25279751  0.79985265  1
  Se  Se201  1  0.91641463  0.58015007  0.30899198  1
  Se  Se202  1  0.91806627  0.58341294  0.79519532  1
  Se  Se203  1  0.91187677  0.91104931  0.29531471  1
  Se  Se204  1  0.90870003  0.91526269  0.81293147  1
  Se  Se205  1  0.06765407  0.06254432  0.31112734  1
  Se  Se206  1  0.08773962  0.08907754  0.80600601  1
  Se  Se207  1  0.07750514  0.41479973  0.30914014  1
  Se  Se208  1  0.08424865  0.41489207  0.79511554  1
  Se  Se209  1  0.08760837  0.74889004  0.30505448  1
  Se  Se210  1  0.06915180  0.74335624  0.79550076  1
  Se  Se211  1  0.41887872  0.08286652  0.29883628  1
  Se  Se212  1  0.42192562  0.09026840  0.80717899  1
  Se  Se213  1  0.41382992  0.41831272  0.30192532  1
  Se  Se214  1  0.41455630  0.41475781  0.80007161  1
  Se  Se215  1  0.41776444  0.75265988  0.32126662  1
  Se  Se216  1  0.41155840  0.74416298  0.79363977  1
  Se  Se217  1  0.75364641  0.08897177  0.31348576  1
  Se  Se218  1  0.75022619  0.08622832  0.80077192  1
  Se  Se219  1  0.74414460  0.41433564  0.31251622  1
  Se  Se220  1  0.75219659  0.41425056  0.79519406  1
  Se  Se221  1  0.76176190  0.76141461  0.30351473  1
  Se  Se222  1  0.75564298  0.75693948  0.81140749  1
  Se  Se223  1  0.24529453  0.10177892  0.20061935  1
  Se  Se224  1  0.24336717  0.08524159  0.68630029  1
  Se  Se225  1  0.25133946  0.42372954  0.20359690  1
  Se  Se226  1  0.25231365  0.41229371  0.68985344  1
  Se  Se227  1  0.24423741  0.75883267  0.19164694  1
  Se  Se228  1  0.24731140  0.74651878  0.69411391  1
  Se  Se229  1  0.58392813  0.09024678  0.19309562  1
  Se  Se230  1  0.58728112  0.08193421  0.69596527  1
  Se  Se231  1  0.58513761  0.41808740  0.20029407  1
  Se  Se232  1  0.58585691  0.41502007  0.69318531  1
  Se  Se233  1  0.58385951  0.74523151  0.20900403  1
  Se  Se234  1  0.57823167  0.74837783  0.68385954  1
  Se  Se235  1  0.91418403  0.08325457  0.19958049  1
  Se  Se236  1  0.90942995  0.09352970  0.68457428  1
  Se  Se237  1  0.91012718  0.41606624  0.20212032  1
  Se  Se238  1  0.92122372  0.41330442  0.68934756  1
  Se  Se239  1  0.93223083  0.73717910  0.20684596  1
  Se  Se240  1  0.91316216  0.75066094  0.69620282  1
  Se  Se241  1  0.07149224  0.25475507  0.20965738  1
  Se  Se242  1  0.08139387  0.25283606  0.69221828  1
  Se  Se243  1  0.08224299  0.58359264  0.20331619  1
  Se  Se244  1  0.08084733  0.58205193  0.68753466  1
  Se  Se245  1  0.09140747  0.92040032  0.20341153  1
  Se  Se246  1  0.09307937  0.91018699  0.69021505  1
  Se  Se247  1  0.41890856  0.25595525  0.19704822  1
  Se  Se248  1  0.41557980  0.24893945  0.69733304  1
  Se  Se249  1  0.42444896  0.57705411  0.19140668  1
  Se  Se250  1  0.41552776  0.58066861  0.68998238  1
  Se  Se251  1  0.41972141  0.91551495  0.20588920  1
  Se  Se252  1  0.41615841  0.90859937  0.68013980  1
  Se  Se253  1  0.74732943  0.24912190  0.19879842  1
  Se  Se254  1  0.74827547  0.25321642  0.69146364  1
  Se  Se255  1  0.74811530  0.58422978  0.20440255  1
  Se  Se256  1  0.75317046  0.57741861  0.68531388  1
  Se  Se257  1  0.75955243  0.90662579  0.19007778  1
  Se  Se258  1  0.74695502  0.92265640  0.69916685  1
