# generated using pymatgen
data_In86Cu29Se144
_symmetry_space_group_name_H-M   'P 1'
_cell_length_a   17.57427195
_cell_length_b   17.57745987
_cell_length_c   23.44138525
_cell_angle_alpha   90.00721126
_cell_angle_beta   90.00373588
_cell_angle_gamma   90.01819639
_symmetry_Int_Tables_number   1
_chemical_formula_structural   In86Cu29Se144
_chemical_formula_sum   'In86 Cu29 Se144'
_cell_volume   7241.30272533
_cell_formula_units_Z   1
loop_
 _symmetry_equiv_pos_site_id
 _symmetry_equiv_pos_as_xyz
  1  'x, y, z'
loop_
 _atom_site_type_symbol
 _atom_site_label
 _atom_site_symmetry_multiplicity
 _atom_site_fract_x
 _atom_site_fract_y
 _atom_site_fract_z
 _atom_site_occupancy
  In  In0  1  -0.01809083  0.16768385  0.12773817  1
  In  In1  1  0.01301822  0.16275331  0.62596582  1
  In  In2  1  0.00664992  0.50333775  0.11667632  1
  In  In3  1  0.01378419  0.49153745  0.63212585  1
  In  In4  1  -0.00151292  0.84306543  0.12328337  1
  In  In5  1  0.00755725  0.82368029  0.63373205  1
  In  In6  1  0.34963371  0.15784391  0.12382654  1
  In  In7  1  0.32962485  0.18122782  0.62633253  1
  In  In8  1  0.33254611  0.50826795  0.13803154  1
  In  In9  1  0.33224591  0.50086284  0.62450883  1
  In  In10  1  0.33472426  0.82574540  0.12143132  1
  In  In11  1  0.32107526  0.81761997  0.61826750  1
  In  In12  1  0.66810423  0.16924147  0.12831441  1
  In  In13  1  0.65943832  0.15839130  0.63076465  1
  In  In14  1  0.66360606  0.48034696  0.12459074  1
  In  In15  1  0.66941016  0.51122217  0.62458719  1
  In  In16  1  0.67515735  0.84200504  0.11682484  1
  In  In17  1  0.66488372  0.83533978  0.62996990  1
  In  In18  1  0.16322099  0.00950132  0.38226337  1
  In  In19  1  0.16692711  -0.00304476  0.87438384  1
  In  In20  1  0.17189198  0.33143581  0.37600562  1
  In  In21  1  0.17590489  0.34484197  0.86976728  1
  In  In22  1  0.18877585  0.64672753  0.39378699  1
  In  In23  1  0.15088001  0.65791941  0.85934107  1
  In  In24  1  0.49969878  -0.01007260  0.37353206  1
  In  In25  1  0.50576331  -0.01882110  0.88903167  1
  In  In26  1  0.49320507  0.34711667  0.36029025  1
  In  In27  1  0.48398447  0.33686350  0.87548240  1
  In  In28  1  0.48801195  0.67476828  0.37901436  1
  In  In29  1  0.51043647  0.67226009  0.86634081  1
  In  In30  1  0.83562268  0.01030559  0.35849210  1
  In  In31  1  0.81760782  0.01392608  0.88270256  1
  In  In32  1  0.82819889  0.32925522  0.36451696  1
  In  In33  1  0.84605805  0.31996435  0.88135681  1
  In  In34  1  0.83958338  0.66630194  0.37464510  1
  In  In35  1  0.83375708  0.66806639  0.87946018  1
  In  In36  1  0.02170935  0.16889930  0.36410215  1
  In  In37  1  -0.02037777  0.17339717  0.87265631  1
  In  In38  1  0.00594514  0.50620889  0.37642817  1
  In  In39  1  0.00251596  0.49799138  0.87619989  1
  In  In40  1  0.00442192  0.84601969  0.37450810  1
  In  In41  1  0.00186097  0.81788029  0.87432718  1
  In  In42  1  0.31403732  0.17491394  0.37168432  1
  In  In43  1  0.33198557  0.17506118  0.88070620  1
  In  In44  1  0.32873145  0.50436686  0.37127317  1
  In  In45  1  0.32471270  0.49487556  0.86924791  1
  In  In46  1  0.34237898  0.82458902  0.38435467  1
  In  In47  1  0.34454958  0.82922845  0.87454716  1
  In  In48  1  0.66020395  0.16450892  0.36079717  1
  In  In49  1  0.67520365  0.15259904  0.87991343  1
  In  In50  1  0.65861174  0.48442005  0.36793203  1
  In  In51  1  0.66558623  0.51419146  0.87508966  1
  In  In52  1  0.65409983  0.83709843  0.37379369  1
  In  In53  1  0.66496464  0.83480091  0.87746387  1
  In  In54  1  0.16075123  -0.00884142  0.13404781  1
  In  In55  1  0.16729002  0.00331522  0.61692097  1
  In  In56  1  0.17207890  0.34836523  0.13299068  1
  In  In57  1  0.16805054  0.33612839  0.62172610  1
  In  In58  1  0.18506766  0.66270210  0.12961264  1
  In  In59  1  0.17346870  0.66755780  0.62934027  1
  In  In60  1  0.50994075  0.01579440  0.11003913  1
  In  In61  1  0.51586217  -0.00614405  0.62757062  1
  In  In62  1  0.51030788  0.33113937  0.13538321  1
  In  In63  1  0.48155349  0.33303294  0.62700184  1
  In  In64  1  0.48308084  0.66421015  0.12417369  1
  In  In65  1  0.49943361  0.66472202  0.62529260  1
  In  In66  1  0.83151380  0.00482935  0.12531165  1
  In  In67  1  0.83160722  -0.00989507  0.63299625  1
  In  In68  1  0.82131871  0.31974020  0.11148089  1
  In  In69  1  0.83331372  0.34941842  0.62916998  1
  In  In70  1  0.83402763  0.66520044  0.10905026  1
  In  In71  1  0.83083513  0.67062656  0.63820987  1
  In  In72  1  0.33759360  -0.00492313  0.75546365  1
  In  In73  1  0.50156334  0.50074534  0.00288411  1
  In  In74  1  0.00924571  0.67079540  0.24773125  1
  In  In75  1  -0.00445437  0.00304064  0.75124107  1
  In  In76  1  0.83896885  0.16808106  0.49632152  1
  In  In77  1  0.83606056  0.83500698  0.50752753  1
  In  In78  1  0.83680678  0.50452827  0.50018380  1
  In  In79  1  0.16552554  0.16851203  0.00114245  1
  In  In80  1  -0.00124622  0.33196861  0.24899777  1
  In  In81  1  0.49084437  0.16501898  0.49982779  1
  In  In82  1  0.33416371  0.00124006  0.25019425  1
  In  In83  1  0.67078784  0.33221694  0.75422375  1
  In  In84  1  0.16767662  0.82748686  0.00068445  1
  In  In85  1  0.66041130  0.66654451  0.24977617  1
  Cu  Cu86  1  0.00400413  0.33740429  0.00219358  1
  Cu  Cu87  1  0.00574292  0.33320453  0.49932268  1
  Cu  Cu88  1  0.66426332  0.67235036  -0.00504932  1
  Cu  Cu89  1  0.83924593  0.50673432  0.75551831  1
  Cu  Cu90  1  0.65164060  0.33376545  0.49145613  1
  Cu  Cu91  1  0.66546425  0.00011250  0.00319554  1
  Cu  Cu92  1  0.82950030  0.49258991  0.24144868  1
  Cu  Cu93  1  0.50077462  0.16277755  0.75190745  1
  Cu  Cu94  1  0.50204887  0.16967239  0.24663287  1
  Cu  Cu95  1  0.16786833  0.17753622  0.75025091  1
  Cu  Cu96  1  0.00474254  0.66126158  -0.00597363  1
  Cu  Cu97  1  0.17119760  0.82847350  0.25680511  1
  Cu  Cu98  1  0.66750046  0.32888900  0.00215154  1
  Cu  Cu99  1  0.82723940  0.83537419  0.75910632  1
  Cu  Cu100  1  0.33217001  0.66081608  -0.00073207  1
  Cu  Cu101  1  0.65548652  0.66128843  0.49810748  1
  Cu  Cu102  1  -0.01196532  0.00059159  0.00230508  1
  Cu  Cu103  1  0.50332872  0.82898019  0.75028095  1
  Cu  Cu104  1  0.16673228  0.49985890  0.74575346  1
  Cu  Cu105  1  0.00993768  0.66733315  0.50834906  1
  Cu  Cu106  1  0.33685045  -0.00212822  0.49732152  1
  Cu  Cu107  1  0.33594103  0.66361579  0.50490063  1
  Cu  Cu108  1  0.66956698  -0.00732874  0.49916181  1
  Cu  Cu109  1  0.49545348  0.50031828  0.74902538  1
  Cu  Cu110  1  0.33531001  0.33547460  0.00077609  1
  Cu  Cu111  1  0.01151093  0.00368629  0.49778774  1
  Cu  Cu112  1  0.32887359  0.34126450  0.49895597  1
  Cu  Cu113  1  0.50361247  0.84153903  0.24844330  1
  Cu  Cu114  1  0.82952168  0.83941328  0.24368519  1
  Se  Se115  1  0.07671442  0.07483000  0.06055053  1
  Se  Se116  1  0.09103596  0.09285000  0.54863851  1
  Se  Se117  1  0.09262195  0.41569297  0.05381274  1
  Se  Se118  1  0.08534476  0.42033840  0.55178988  1
  Se  Se119  1  0.07900024  0.73745559  0.06399487  1
  Se  Se120  1  0.09026089  0.75412003  0.55927816  1
  Se  Se121  1  0.41265537  0.08219201  0.04395456  1
  Se  Se122  1  0.40992763  0.07460224  0.56667217  1
  Se  Se123  1  0.41334922  0.41383393  0.06468441  1
  Se  Se124  1  0.41631871  0.41888684  0.55289801  1
  Se  Se125  1  0.41567941  0.74830912  0.04807030  1
  Se  Se126  1  0.42126518  0.74988481  0.55417836  1
  Se  Se127  1  0.74769679  0.08599879  0.05603398  1
  Se  Se128  1  0.74800188  0.07602232  0.55789061  1
  Se  Se129  1  0.75081791  0.42016613  0.04789340  1
  Se  Se130  1  0.73829243  0.40942337  0.55179965  1
  Se  Se131  1  0.75108016  0.75431489  0.04716256  1
  Se  Se132  1  0.74288593  0.73710383  0.55749709  1
  Se  Se133  1  0.25558938  0.25602762  0.06276687  1
  Se  Se134  1  0.24929596  0.25159968  0.55083998  1
  Se  Se135  1  0.25540889  0.57693703  0.05653721  1
  Se  Se136  1  0.24767617  0.58271801  0.55601840  1
  Se  Se137  1  0.25181312  0.92382866  0.05960619  1
  Se  Se138  1  0.25248833  0.91752171  0.55346782  1
  Se  Se139  1  0.58221793  0.25193067  0.05879940  1
  Se  Se140  1  0.58506671  0.25375822  0.56007910  1
  Se  Se141  1  0.59188417  0.59244016  0.06231037  1
  Se  Se142  1  0.57787040  0.57686090  0.55380775  1
  Se  Se143  1  0.57915611  0.91194378  0.04996783  1
  Se  Se144  1  0.58699518  0.91032131  0.55288677  1
  Se  Se145  1  0.91900665  0.24747666  0.04744162  1
  Se  Se146  1  0.92084866  0.26065921  0.56061845  1
  Se  Se147  1  0.91916717  0.57800712  0.04696132  1
  Se  Se148  1  0.92118137  0.59160932  0.56598410  1
  Se  Se149  1  0.90823311  0.91367193  0.05465075  1
  Se  Se150  1  0.93208130  0.92735053  0.56184164  1
  Se  Se151  1  0.08453396  0.24899334  0.44382645  1
  Se  Se152  1  0.07987964  0.25659940  0.93679506  1
  Se  Se153  1  0.08322581  0.57766169  0.45305238  1
  Se  Se154  1  0.09189615  0.58074513  0.94298691  1
  Se  Se155  1  0.09061289  0.91269704  0.44878113  1
  Se  Se156  1  0.07291116  0.92240825  0.94400614  1
  Se  Se157  1  0.40848975  0.25824828  0.43816939  1
  Se  Se158  1  0.41939783  0.25040275  0.95126439  1
  Se  Se159  1  0.41344016  0.58177060  0.44445437  1
  Se  Se160  1  0.41541988  0.58546188  0.93609921  1
  Se  Se161  1  0.42455388  0.91510156  0.44954626  1
  Se  Se162  1  0.40353555  0.91496807  0.95077445  1
  Se  Se163  1  0.73787848  0.25285217  0.43876488  1
  Se  Se164  1  0.74945442  0.24735279  0.94570716  1
  Se  Se165  1  0.74061070  0.58702028  0.43687210  1
  Se  Se166  1  0.74951970  0.58426719  0.94897930  1
  Se  Se167  1  0.75463230  0.92121688  0.43732835  1
  Se  Se168  1  0.74796186  0.91691407  0.94770983  1
  Se  Se169  1  0.25491813  0.08598386  0.44861510  1
  Se  Se170  1  0.25471287  0.07367845  0.94403710  1
  Se  Se171  1  0.24582059  0.42268695  0.44361401  1
  Se  Se172  1  0.25206169  0.41842728  0.94771044  1
  Se  Se173  1  0.25209224  0.75268258  0.45453875  1
  Se  Se174  1  0.25039227  0.73738192  0.93667880  1
  Se  Se175  1  0.59065503  0.07936411  0.44271805  1
  Se  Se176  1  0.58173825  0.08217808  0.94792784  1
  Se  Se177  1  0.56946290  0.41801116  0.44092166  1
  Se  Se178  1  0.58967681  0.40994252  0.93949221  1
  Se  Se179  1  0.58130054  0.75232678  0.44512996  1
  Se  Se180  1  0.57626833  0.75261592  0.94483704  1
  Se  Se181  1  0.92684396  0.07760017  0.43632736  1
  Se  Se182  1  0.91256662  0.08916268  0.94829455  1
  Se  Se183  1  0.91915761  0.40657262  0.43806301  1
  Se  Se184  1  0.91854326  0.41643308  0.94612250  1
  Se  Se185  1  0.92667414  0.74333352  0.44648014  1
  Se  Se186  1  0.91886414  0.74993384  0.94978662  1
  Se  Se187  1  0.22867872  0.24128056  0.29943926  1
  Se  Se188  1  0.25612974  0.25261698  0.80561790  1
  Se  Se189  1  0.25105891  0.59522798  0.30419432  1
  Se  Se190  1  0.25103553  0.58314893  0.79929427  1
  Se  Se191  1  0.25110106  0.91134774  0.31588242  1
  Se  Se192  1  0.24161156  0.90341472  0.80823920  1
  Se  Se193  1  0.58074452  0.25838031  0.29960153  1
  Se  Se194  1  0.57715743  0.24604198  0.81404520  1
  Se  Se195  1  0.57141151  0.58058882  0.31077740  1
  Se  Se196  1  0.58480590  0.58152137  0.79791803  1
  Se  Se197  1  0.58842016  0.92481144  0.29915905  1
  Se  Se198  1  0.58008003  0.91609091  0.80682530  1
  Se  Se199  1  0.90894770  0.23409617  0.30363180  1
  Se  Se200  1  0.91640937  0.25702614  0.79707967  1
  Se  Se201  1  0.90964421  0.57381430  0.30143878  1
  Se  Se202  1  0.92138214  0.58881312  0.81053064  1
  Se  Se203  1  0.91705050  0.91265111  0.30145055  1
  Se  Se204  1  0.91012521  0.91635422  0.81736510  1
  Se  Se205  1  0.08329101  0.06713816  0.30109265  1
  Se  Se206  1  0.08941223  0.09546278  0.81076397  1
  Se  Se207  1  0.08820801  0.42529883  0.30608157  1
  Se  Se208  1  0.08385032  0.41800320  0.80268690  1
  Se  Se209  1  0.09381938  0.74806061  0.31936564  1
  Se  Se210  1  0.08229579  0.75723374  0.79625463  1
  Se  Se211  1  0.42259257  0.09391564  0.31241700  1
  Se  Se212  1  0.42367997  0.08514487  0.81708035  1
  Se  Se213  1  0.38258256  0.40144874  0.29926037  1
  Se  Se214  1  0.41187587  0.41533098  0.79983652  1
  Se  Se215  1  0.42031326  0.75968055  0.30317633  1
  Se  Se216  1  0.41620703  0.74619816  0.80022276  1
  Se  Se217  1  0.74190089  0.08197716  0.29526322  1
  Se  Se218  1  0.75480489  0.08900909  0.80106475  1
  Se  Se219  1  0.74643810  0.41274996  0.29703985  1
  Se  Se220  1  0.75828647  0.42377395  0.81465934  1
  Se  Se221  1  0.75726754  0.75732765  0.30883280  1
  Se  Se222  1  0.74636017  0.74731652  0.81023420  1
  Se  Se223  1  0.24424687  0.09110120  0.19082311  1
  Se  Se224  1  0.24579965  0.08831018  0.69458833  1
  Se  Se225  1  0.26669174  0.40882075  0.20509593  1
  Se  Se226  1  0.25080021  0.41509398  0.69319687  1
  Se  Se227  1  0.25607582  0.75371072  0.19872279  1
  Se  Se228  1  0.25432288  0.74924504  0.69988281  1
  Se  Se229  1  0.58035544  0.08226633  0.19295806  1
  Se  Se230  1  0.58525080  0.07687899  0.70374292  1
  Se  Se231  1  0.57045102  0.43456902  0.20027458  1
  Se  Se232  1  0.57931385  0.41848373  0.68995359  1
  Se  Se233  1  0.57893155  0.75872204  0.18585454  1
  Se  Se234  1  0.58604277  0.74529404  0.69494800  1
  Se  Se235  1  0.92687820  0.06841327  0.19569958  1
  Se  Se236  1  0.90795399  0.09475641  0.69053935  1
  Se  Se237  1  0.91365067  0.41826089  0.18174840  1
  Se  Se238  1  0.91840793  0.42155970  0.70002808  1
  Se  Se239  1  0.90703380  0.75090362  0.18885936  1
  Se  Se240  1  0.91317391  0.75744576  0.70276495  1
  Se  Se241  1  0.08769795  0.24398465  0.18649235  1
  Se  Se242  1  0.08383872  0.25502824  0.69339099  1
  Se  Se243  1  0.09526352  0.57258653  0.19402095  1
  Se  Se244  1  0.08264246  0.58853056  0.69716688  1
  Se  Se245  1  0.08315168  0.90453970  0.20213266  1
  Se  Se246  1  0.09380161  0.91922776  0.69449370  1
  Se  Se247  1  0.41454175  0.24892149  0.19528733  1
  Se  Se248  1  0.41559762  0.24691218  0.70199304  1
  Se  Se249  1  0.41543708  0.59349872  0.20378243  1
  Se  Se250  1  0.41414975  0.58415616  0.69427955  1
  Se  Se251  1  0.42337272  0.91824365  0.18496189  1
  Se  Se252  1  0.42208577  0.90805918  0.68898170  1
  Se  Se253  1  0.75067938  0.25705111  0.19361514  1
  Se  Se254  1  0.75630281  0.24493704  0.68830833  1
  Se  Se255  1  0.75441873  0.58251807  0.18618265  1
  Se  Se256  1  0.74843801  0.58156771  0.70154469  1
  Se  Se257  1  0.74417354  0.92160531  0.19381713  1
  Se  Se258  1  0.74520676  0.91657509  0.70222992  1
