# generated using pymatgen
data_In86Cu29Se144
_symmetry_space_group_name_H-M   'P 1'
_cell_length_a   17.57106583
_cell_length_b   17.57254338
_cell_length_c   23.43338245
_cell_angle_alpha   89.96410804
_cell_angle_beta   89.97889729
_cell_angle_gamma   89.99273334
_symmetry_Int_Tables_number   1
_chemical_formula_structural   In86Cu29Se144
_chemical_formula_sum   'In86 Cu29 Se144'
_cell_volume   7235.48408323
_cell_formula_units_Z   1
loop_
 _symmetry_equiv_pos_site_id
 _symmetry_equiv_pos_as_xyz
  1  'x, y, z'
loop_
 _atom_site_type_symbol
 _atom_site_label
 _atom_site_symmetry_multiplicity
 _atom_site_fract_x
 _atom_site_fract_y
 _atom_site_fract_z
 _atom_site_occupancy
  In  In0  1  -0.01001871  0.15935994  0.11610498  1
  In  In1  1  0.01483169  0.17152131  0.62821215  1
  In  In2  1  0.00301247  0.50644826  0.13493871  1
  In  In3  1  -0.00233121  0.50485032  0.62571552  1
  In  In4  1  0.00644955  0.82616081  0.12953688  1
  In  In5  1  -0.01966814  0.82585186  0.61469866  1
  In  In6  1  0.33698055  0.16999914  0.10902484  1
  In  In7  1  0.34382984  0.16696032  0.63097405  1
  In  In8  1  0.34070577  0.49869927  0.13638677  1
  In  In9  1  0.32642056  0.48622928  0.61749101  1
  In  In10  1  0.32401958  0.83298177  0.12363307  1
  In  In11  1  0.33814669  0.84416001  0.62693369  1
  In  In12  1  0.66481179  0.16607157  0.12454847  1
  In  In13  1  0.65489261  0.18056738  0.63334481  1
  In  In14  1  0.67347089  0.47896659  0.15393319  1
  In  In15  1  0.66889692  0.50177773  0.61842292  1
  In  In16  1  0.67533369  0.83026210  0.13115345  1
  In  In17  1  0.67437983  0.82428458  0.63004262  1
  In  In18  1  0.15967195  0.01109381  0.37003566  1
  In  In19  1  0.17263433  -0.00663822  0.87658618  1
  In  In20  1  0.17202752  0.33986402  0.37613811  1
  In  In21  1  0.15469156  0.32554445  0.86253813  1
  In  In22  1  0.14987102  0.64251860  0.35817468  1
  In  In23  1  0.16442886  0.67922685  0.87456570  1
  In  In24  1  0.51420934  -0.00635052  0.38014131  1
  In  In25  1  0.51558843  0.01489656  0.86677216  1
  In  In26  1  0.50589214  0.32214055  0.38402149  1
  In  In27  1  0.49778657  0.32692302  0.87117254  1
  In  In28  1  0.49196678  0.64634250  0.35830594  1
  In  In29  1  0.50321851  0.65536521  0.87150601  1
  In  In30  1  0.82362703  -0.01132489  0.37161147  1
  In  In31  1  0.83507649  0.01378392  0.87526965  1
  In  In32  1  0.82565306  0.36714745  0.37329483  1
  In  In33  1  0.82512149  0.32355100  0.86465287  1
  In  In34  1  0.83704777  0.66354788  0.37506930  1
  In  In35  1  0.82992613  0.65996994  0.86961682  1
  In  In36  1  0.00617377  0.16550116  0.36661519  1
  In  In37  1  -0.01077244  0.17197809  0.88016287  1
  In  In38  1  -0.01638068  0.52509550  0.39922510  1
  In  In39  1  -0.00250296  0.49531078  0.86003662  1
  In  In40  1  -0.01760915  0.81396572  0.36861581  1
  In  In41  1  0.01193188  0.83748506  0.87345050  1
  In  In42  1  0.33433003  0.17919088  0.37886795  1
  In  In43  1  0.33547979  0.16584755  0.87385305  1
  In  In44  1  0.32384047  0.50638509  0.38742026  1
  In  In45  1  0.33935458  0.49754813  0.86752011  1
  In  In46  1  0.34841803  0.82789522  0.37847355  1
  In  In47  1  0.31669980  0.83413067  0.87325619  1
  In  In48  1  0.66162329  0.16184123  0.37072807  1
  In  In49  1  0.67263337  0.17097410  0.87611035  1
  In  In50  1  0.66722921  0.49610503  0.37050815  1
  In  In51  1  0.66086357  0.49320832  0.86481891  1
  In  In52  1  0.67455978  0.83427356  0.37260631  1
  In  In53  1  0.66106255  0.82966180  0.86927057  1
  In  In54  1  0.16217350  -0.00854505  0.11594094  1
  In  In55  1  0.17244714  0.00882756  0.62755083  1
  In  In56  1  0.17603069  0.33345094  0.12213372  1
  In  In57  1  0.15847949  0.35813698  0.64829699  1
  In  In58  1  0.15561981  0.67444876  0.13677650  1
  In  In59  1  0.15657848  0.64652132  0.61899751  1
  In  In60  1  0.50291227  0.01479727  0.12144435  1
  In  In61  1  0.49022928  0.01692466  0.63123667  1
  In  In62  1  0.51228876  0.32676172  0.12606774  1
  In  In63  1  0.50368854  0.33432344  0.62296898  1
  In  In64  1  0.50678020  0.64500710  0.14489217  1
  In  In65  1  0.51655023  0.66818355  0.62133658  1
  In  In66  1  0.82446002  0.00956562  0.13241412  1
  In  In67  1  0.83223291  -0.01508130  0.62323880  1
  In  In68  1  0.83222372  0.32020031  0.12415571  1
  In  In69  1  0.82160549  0.34724807  0.63041682  1
  In  In70  1  0.82777930  0.65589099  0.14297011  1
  In  In71  1  0.83287566  0.66155536  0.61705829  1
  In  In72  1  0.50161650  0.49209558  -0.00057802  1
  In  In73  1  0.83213141  0.49226376  0.01202572  1
  In  In74  1  0.16641711  0.82819308  0.50105008  1
  In  In75  1  0.50922834  0.83310478  0.49940070  1
  In  In76  1  0.83054370  0.17081907  0.50235897  1
  In  In77  1  0.49103112  0.83615705  0.00392460  1
  In  In78  1  0.83772999  0.83673076  0.00601881  1
  In  In79  1  0.33853527  -0.00190482  0.24765922  1
  In  In80  1  0.33366063  0.66874600  0.74601781  1
  In  In81  1  -0.00166455  -0.00108230  0.74923533  1
  In  In82  1  0.33416632  0.33892051  0.24882470  1
  In  In83  1  -0.00487147  0.34038506  0.25382971  1
  In  In84  1  0.17759367  0.17168071  0.50540118  1
  In  In85  1  0.16699965  0.50040223  0.00111780  1
  Cu  Cu86  1  0.16732237  0.83588152  0.24909573  1
  Cu  Cu87  1  0.82732658  0.82461087  0.74567072  1
  Cu  Cu88  1  0.66333721  0.65687303  0.00355297  1
  Cu  Cu89  1  0.16060812  0.83074812  0.74755107  1
  Cu  Cu90  1  0.00532623  0.33871189  0.50649014  1
  Cu  Cu91  1  0.33431986  0.00207251  -0.00588958  1
  Cu  Cu92  1  0.16058904  0.15995307  0.24032278  1
  Cu  Cu93  1  0.82795506  0.16829673  0.24951478  1
  Cu  Cu94  1  0.66192341  0.00404201  0.50074829  1
  Cu  Cu95  1  0.50095368  0.84043836  0.74626761  1
  Cu  Cu96  1  0.00834008  0.00282172  -0.00123219  1
  Cu  Cu97  1  0.67021363  0.66300720  0.49438900  1
  Cu  Cu98  1  0.50329535  0.16956266  0.75276366  1
  Cu  Cu99  1  0.83378766  0.50413568  0.74245067  1
  Cu  Cu100  1  0.50805918  0.16227804  0.25124822  1
  Cu  Cu101  1  0.33033938  0.32712320  -0.00684085  1
  Cu  Cu102  1  0.17452537  0.16894397  0.75211031  1
  Cu  Cu103  1  0.66681194  0.33667254  0.50076932  1
  Cu  Cu104  1  0.50950857  0.83407229  0.25394079  1
  Cu  Cu105  1  0.84234140  0.83620292  0.25172777  1
  Cu  Cu106  1  0.33595337  0.66393646  0.49474677  1
  Cu  Cu107  1  0.83344181  0.16972294  0.75258516  1
  Cu  Cu108  1  -0.00091200  0.33104104  -0.00777968  1
  Cu  Cu109  1  0.00643642  0.67347848  0.00277927  1
  Cu  Cu110  1  0.33699993  0.33478108  0.50592530  1
  Cu  Cu111  1  0.32790452  0.67112670  0.00612975  1
  Cu  Cu112  1  0.67272490  0.00757547  -0.00017629  1
  Cu  Cu113  1  -0.00420228  -0.00801753  0.49256650  1
  Cu  Cu114  1  0.50911937  0.50077555  0.74299141  1
  Se  Se115  1  0.08939652  0.08909557  0.05217438  1
  Se  Se116  1  0.07524468  0.07355136  0.55269310  1
  Se  Se117  1  0.07051111  0.41140433  0.05889091  1
  Se  Se118  1  0.08907947  0.41790590  0.56162508  1
  Se  Se119  1  0.09124067  0.75381943  0.05546402  1
  Se  Se120  1  0.07099711  0.73693667  0.55281081  1
  Se  Se121  1  0.42146968  0.08314222  0.04510565  1
  Se  Se122  1  0.41163759  0.08555828  0.55443296  1
  Se  Se123  1  0.40433644  0.40735451  0.05891808  1
  Se  Se124  1  0.42587569  0.42068189  0.55196224  1
  Se  Se125  1  0.41879348  0.73611368  0.06779727  1
  Se  Se126  1  0.41045258  0.74546297  0.55826110  1
  Se  Se127  1  0.75526545  0.08869975  0.05496130  1
  Se  Se128  1  0.74253120  0.08125158  0.56408503  1
  Se  Se129  1  0.73198370  0.40601028  0.06414131  1
  Se  Se130  1  0.75426588  0.41985340  0.54889239  1
  Se  Se131  1  0.74963512  0.73518940  0.05941838  1
  Se  Se132  1  0.74630016  0.74960844  0.55160397  1
  Se  Se133  1  0.24227593  0.24869618  0.04687741  1
  Se  Se134  1  0.25235878  0.26439526  0.57153605  1
  Se  Se135  1  0.25418958  0.58576301  0.06636033  1
  Se  Se136  1  0.25471491  0.58258093  0.55206211  1
  Se  Se137  1  0.25497851  0.91639404  0.04887391  1
  Se  Se138  1  0.25559566  0.92699770  0.55467380  1
  Se  Se139  1  0.57320360  0.23696938  0.05460785  1
  Se  Se140  1  0.58436079  0.24957218  0.55152542  1
  Se  Se141  1  0.59081010  0.57502534  0.06587104  1
  Se  Se142  1  0.58393007  0.58248431  0.54765894  1
  Se  Se143  1  0.59503390  0.92000289  0.05773907  1
  Se  Se144  1  0.58746556  0.92399783  0.56662503  1
  Se  Se145  1  0.91481125  0.25096611  0.04877303  1
  Se  Se146  1  0.92413291  0.25624363  0.56423292  1
  Se  Se147  1  0.92292622  0.59519491  0.06199967  1
  Se  Se148  1  0.91055996  0.57158752  0.55147640  1
  Se  Se149  1  0.92666286  0.92789238  0.06386509  1
  Se  Se150  1  0.90750849  0.91394834  0.54427271  1
  Se  Se151  1  0.07747278  0.25370281  0.44401534  1
  Se  Se152  1  0.08630267  0.24913477  0.94240542  1
  Se  Se153  1  0.09988884  0.58212533  0.45012399  1
  Se  Se154  1  0.07446574  0.58650183  0.93945864  1
  Se  Se155  1  0.07968994  0.91636226  0.43422811  1
  Se  Se156  1  0.08761021  0.91408306  0.94778030  1
  Se  Se157  1  0.41646848  0.24653183  0.45436631  1
  Se  Se158  1  0.42009265  0.24694910  0.94426286  1
  Se  Se159  1  0.42616972  0.58287849  0.44587489  1
  Se  Se160  1  0.40656103  0.59023980  0.94545399  1
  Se  Se161  1  0.41166700  0.92706919  0.44805096  1
  Se  Se162  1  0.41439082  0.92231171  0.93257554  1
  Se  Se163  1  0.74642124  0.25830194  0.43703478  1
  Se  Se164  1  0.76135787  0.24797845  0.94435535  1
  Se  Se165  1  0.75058556  0.57767792  0.44097611  1
  Se  Se166  1  0.74421544  0.57843292  0.94336152  1
  Se  Se167  1  0.74459464  0.91818176  0.44919636  1
  Se  Se168  1  0.74503182  0.91865632  0.94096059  1
  Se  Se169  1  0.25655961  0.07665860  0.44062326  1
  Se  Se170  1  0.24857769  0.08496545  0.94253427  1
  Se  Se171  1  0.24761247  0.41304736  0.45305538  1
  Se  Se172  1  0.25305545  0.41268267  0.93628847  1
  Se  Se173  1  0.25350456  0.74174718  0.43613550  1
  Se  Se174  1  0.24729988  0.75140854  0.94930885  1
  Se  Se175  1  0.58152211  0.08924028  0.44809287  1
  Se  Se176  1  0.58737391  0.08754798  0.94587802  1
  Se  Se177  1  0.58445020  0.41840339  0.44452289  1
  Se  Se178  1  0.59410268  0.40478253  0.94130910  1
  Se  Se179  1  0.58527011  0.73992407  0.43384007  1
  Se  Se180  1  0.58451910  0.74054146  0.94632605  1
  Se  Se181  1  0.91973542  0.08290030  0.43783671  1
  Se  Se182  1  0.91688331  0.08250778  0.95062610  1
  Se  Se183  1  0.91547172  0.41427214  0.45304600  1
  Se  Se184  1  0.91808404  0.41622346  0.93814864  1
  Se  Se185  1  0.91193929  0.74768488  0.44892437  1
  Se  Se186  1  0.92036200  0.74526258  0.94059486  1
  Se  Se187  1  0.23806471  0.24059642  0.30269398  1
  Se  Se188  1  0.25829076  0.25362921  0.80385647  1
  Se  Se189  1  0.26764596  0.58981170  0.30597283  1
  Se  Se190  1  0.24332109  0.58307137  0.80856382  1
  Se  Se191  1  0.24890256  0.91190498  0.31164915  1
  Se  Se192  1  0.24512815  0.91581993  0.79792763  1
  Se  Se193  1  0.58314177  0.25284190  0.30400918  1
  Se  Se194  1  0.58985699  0.25172947  0.80471770  1
  Se  Se195  1  0.60527948  0.59565412  0.29981822  1
  Se  Se196  1  0.58795061  0.58719594  0.79795563  1
  Se  Se197  1  0.59066436  0.92039865  0.30455309  1
  Se  Se198  1  0.58759456  0.91916990  0.80123113  1
  Se  Se199  1  0.90234902  0.24994607  0.31422784  1
  Se  Se200  1  0.92392281  0.25132477  0.80053270  1
  Se  Se201  1  0.92097782  0.57766767  0.30899384  1
  Se  Se202  1  0.91577477  0.58704962  0.79861094  1
  Se  Se203  1  0.92279194  0.92178171  0.30582870  1
  Se  Se204  1  0.90569269  0.90711723  0.80856286  1
  Se  Se205  1  0.07685028  0.07910908  0.29372629  1
  Se  Se206  1  0.08756486  0.08778707  0.80994685  1
  Se  Se207  1  0.07618334  0.42532263  0.32114625  1
  Se  Se208  1  0.09312151  0.42514723  0.79694557  1
  Se  Se209  1  0.08405621  0.75172351  0.30231037  1
  Se  Se210  1  0.07739727  0.74805744  0.80022257  1
  Se  Se211  1  0.42232180  0.08867540  0.31245560  1
  Se  Se212  1  0.41690634  0.08375394  0.80250554  1
  Se  Se213  1  0.41456653  0.41436789  0.32225753  1
  Se  Se214  1  0.42750232  0.42087687  0.80162530  1
  Se  Se215  1  0.42012859  0.75266277  0.30159614  1
  Se  Se216  1  0.42339975  0.75876524  0.81031053  1
  Se  Se217  1  0.74899844  0.08102654  0.30467703  1
  Se  Se218  1  0.74988586  0.08392403  0.80312643  1
  Se  Se219  1  0.73088226  0.40361137  0.29572753  1
  Se  Se220  1  0.75363485  0.41941566  0.79928684  1
  Se  Se221  1  0.75889576  0.75299836  0.30547228  1
  Se  Se222  1  0.74535819  0.74469207  0.80440690  1
  Se  Se223  1  0.25162821  0.08779385  0.18399618  1
  Se  Se224  1  0.25490477  0.08404384  0.69830042  1
  Se  Se225  1  0.23229305  0.42764435  0.19840553  1
  Se  Se226  1  0.26797252  0.42007410  0.70457783  1
  Se  Se227  1  0.25286385  0.75237756  0.19841970  1
  Se  Se228  1  0.24064914  0.75465971  0.68336259  1
  Se  Se229  1  0.58872760  0.07802025  0.19701967  1
  Se  Se230  1  0.58612674  0.08345685  0.69971561  1
  Se  Se231  1  0.54249719  0.43766882  0.19306257  1
  Se  Se232  1  0.59141495  0.41606695  0.68996016  1
  Se  Se233  1  0.58664813  0.74979674  0.19602244  1
  Se  Se234  1  0.58265573  0.75027853  0.69867240  1
  Se  Se235  1  0.91657144  0.08929556  0.19694825  1
  Se  Se236  1  0.90973361  0.09036496  0.68720017  1
  Se  Se237  1  0.90091447  0.42410644  0.19114111  1
  Se  Se238  1  0.91910456  0.41564248  0.69568847  1
  Se  Se239  1  0.91854247  0.74771709  0.19703158  1
  Se  Se240  1  0.91255774  0.74562235  0.69124569  1
  Se  Se241  1  0.08224396  0.25036070  0.18714398  1
  Se  Se242  1  0.08528807  0.25092193  0.70337852  1
  Se  Se243  1  0.08276604  0.58441894  0.20407631  1
  Se  Se244  1  0.08168013  0.58182777  0.69822913  1
  Se  Se245  1  0.08608967  0.91914276  0.19398581  1
  Se  Se246  1  0.08201223  0.90885074  0.68286313  1
  Se  Se247  1  0.41846008  0.23708979  0.19277448  1
  Se  Se248  1  0.42321209  0.25500518  0.69726786  1
  Se  Se249  1  0.40169142  0.58865951  0.20947942  1
  Se  Se250  1  0.42451848  0.58122421  0.68576590  1
  Se  Se251  1  0.42994536  0.90910635  0.18701547  1
  Se  Se252  1  0.41364946  0.92430891  0.69924392  1
  Se  Se253  1  0.74445089  0.25031569  0.19623540  1
  Se  Se254  1  0.75063685  0.25328837  0.69795950  1
  Se  Se255  1  0.73137830  0.59053138  0.21008689  1
  Se  Se256  1  0.74748784  0.58602500  0.68985007  1
  Se  Se257  1  0.75304178  0.91621258  0.19939073  1
  Se  Se258  1  0.74816299  0.91743070  0.69847952  1
