# generated using pymatgen
data_In86Cu29Se144
_symmetry_space_group_name_H-M   'P 1'
_cell_length_a   17.57888194
_cell_length_b   17.57728706
_cell_length_c   23.44378381
_cell_angle_alpha   89.96097140
_cell_angle_beta   89.97609535
_cell_angle_gamma   90.01218720
_symmetry_Int_Tables_number   1
_chemical_formula_structural   In86Cu29Se144
_chemical_formula_sum   'In86 Cu29 Se144'
_cell_volume   7243.87011098
_cell_formula_units_Z   1
loop_
 _symmetry_equiv_pos_site_id
 _symmetry_equiv_pos_as_xyz
  1  'x, y, z'
loop_
 _atom_site_type_symbol
 _atom_site_label
 _atom_site_symmetry_multiplicity
 _atom_site_fract_x
 _atom_site_fract_y
 _atom_site_fract_z
 _atom_site_occupancy
  In  In0  1  0.00675719  0.17232122  0.11199170  1
  In  In1  1  0.00493925  0.16573194  0.63312846  1
  In  In2  1  0.00311623  0.50686467  0.11695778  1
  In  In3  1  -0.01657995  0.49792957  0.62385659  1
  In  In4  1  -0.01193805  0.83355878  0.12052930  1
  In  In5  1  0.00902308  0.84010445  0.63000480  1
  In  In6  1  0.33049809  0.17172785  0.12488397  1
  In  In7  1  0.34839461  0.18414111  0.61816833  1
  In  In8  1  0.32319217  0.48514558  0.11816026  1
  In  In9  1  0.34809458  0.48175349  0.63434632  1
  In  In10  1  0.34843072  0.83380422  0.13049749  1
  In  In11  1  0.34092587  0.81755196  0.63410995  1
  In  In12  1  0.66736124  0.16823184  0.11380944  1
  In  In13  1  0.65648568  0.18506499  0.63379904  1
  In  In14  1  0.67287606  0.50512259  0.11634283  1
  In  In15  1  0.66798963  0.49583744  0.62671980  1
  In  In16  1  0.66793349  0.81992864  0.12469652  1
  In  In17  1  0.64689186  0.83492870  0.63279285  1
  In  In18  1  0.18078596  -0.00050054  0.37268959  1
  In  In19  1  0.16922209  0.01861076  0.87870760  1
  In  In20  1  0.15747712  0.31930646  0.37821183  1
  In  In21  1  0.16908162  0.33398411  0.87351124  1
  In  In22  1  0.16709323  0.67956537  0.36422700  1
  In  In23  1  0.16480728  0.64610901  0.87765703  1
  In  In24  1  0.48311405  0.01363566  0.38581286  1
  In  In25  1  0.51100994  0.00500609  0.87477115  1
  In  In26  1  0.49014614  0.34641230  0.38640816  1
  In  In27  1  0.50421829  0.33301697  0.86910842  1
  In  In28  1  0.50942227  0.65380292  0.38441007  1
  In  In29  1  0.48909375  0.65987741  0.86074943  1
  In  In30  1  0.83278033  0.00816649  0.37276935  1
  In  In31  1  0.84193532  -0.00816628  0.87645313  1
  In  In32  1  0.84079406  0.35041535  0.38124523  1
  In  In33  1  0.83056098  0.33162937  0.87606863  1
  In  In34  1  0.82041473  0.65876252  0.36570922  1
  In  In35  1  0.82178976  0.67255132  0.87806431  1
  In  In36  1  0.00844471  0.18855240  0.37941825  1
  In  In37  1  0.00195493  0.16781505  0.87251066  1
  In  In38  1  -0.01215892  0.49785540  0.37250473  1
  In  In39  1  0.00885834  0.48539775  0.88164038  1
  In  In40  1  0.02015952  0.82683765  0.36963537  1
  In  In41  1  -0.02232490  0.83110825  0.86900927  1
  In  In42  1  0.32964608  0.16856766  0.37629250  1
  In  In43  1  0.33175535  0.17497593  0.87803558  1
  In  In44  1  0.34747599  0.50281445  0.37496084  1
  In  In45  1  0.33566274  0.49608285  0.87294280  1
  In  In46  1  0.32906245  0.84462699  0.37645849  1
  In  In47  1  0.34819708  0.82168492  0.87297057  1
  In  In48  1  0.66191616  0.16073725  0.37782689  1
  In  In49  1  0.65327165  0.18005224  0.87884539  1
  In  In50  1  0.65582703  0.50652925  0.38439015  1
  In  In51  1  0.66455481  0.49837499  0.87348660  1
  In  In52  1  0.66840067  0.81695478  0.37734318  1
  In  In53  1  0.68187326  0.82880753  0.86493375  1
  In  In54  1  0.16502425  0.01297912  0.12450488  1
  In  In55  1  0.15534401  0.00317933  0.62920968  1
  In  In56  1  0.17980246  0.34614716  0.12034830  1
  In  In57  1  0.17612018  0.32458757  0.63165055  1
  In  In58  1  0.16831874  0.64269335  0.12885696  1
  In  In59  1  0.17142602  0.67619753  0.62626356  1
  In  In60  1  0.48764737  0.00117363  0.12652290  1
  In  In61  1  0.50089396  0.00215149  0.61869171  1
  In  In62  1  0.48811164  0.32536476  0.11901836  1
  In  In63  1  0.50170459  0.32928056  0.62510881  1
  In  In64  1  0.51385837  0.66697860  0.12560337  1
  In  In65  1  0.50458889  0.66195853  0.62919939  1
  In  In66  1  0.83948897  0.00128179  0.11169301  1
  In  In67  1  0.83502787  0.01352463  0.63263132  1
  In  In68  1  0.83711438  0.33547926  0.10969256  1
  In  In69  1  0.82397508  0.34650117  0.63647734  1
  In  In70  1  0.83069966  0.66495749  0.11938506  1
  In  In71  1  0.83254137  0.64762801  0.62657523  1
  In  In72  1  0.67193325  0.00117793  0.75088733  1
  In  In73  1  0.16684278  0.49914937  0.50193429  1
  In  In74  1  0.33037693  0.00368216  0.75365979  1
  In  In75  1  -0.00171319  0.66290718  0.75156730  1
  In  In76  1  0.33584240  0.66453441  0.24854993  1
  In  In77  1  0.50938201  0.83600461  -0.00117258  1
  In  In78  1  0.17111952  0.83771009  0.49744859  1
  In  In79  1  0.82224484  0.17873274  0.51245334  1
  In  In80  1  0.16244331  0.83351584  0.00454684  1
  In  In81  1  0.00362235  -0.00721642  0.24775432  1
  In  In82  1  0.65709057  -0.00835107  0.24502664  1
  In  In83  1  0.82989006  0.83026686  0.50106823  1
  In  In84  1  0.65999294  0.33568360  0.25501149  1
  In  In85  1  0.00594070  0.34064224  0.24674611  1
  Cu  Cu86  1  0.83563990  0.17241920  0.24150006  1
  Cu  Cu87  1  0.49855480  0.83519267  0.25663491  1
  Cu  Cu88  1  0.17541361  0.16554643  0.25064800  1
  Cu  Cu89  1  0.65437087  -0.00131404  0.50183428  1
  Cu  Cu90  1  0.48435115  0.16781810  0.25140807  1
  Cu  Cu91  1  0.50471630  0.50039122  0.25264063  1
  Cu  Cu92  1  0.67237051  0.00407579  -0.00711258  1
  Cu  Cu93  1  -0.00443558  0.01409875  0.50303018  1
  Cu  Cu94  1  0.50202992  0.49688069  0.74890531  1
  Cu  Cu95  1  0.83077693  0.49664435  0.75472303  1
  Cu  Cu96  1  0.83572587  0.82300053  0.24606415  1
  Cu  Cu97  1  0.16829037  0.83420079  0.75175661  1
  Cu  Cu98  1  -0.00670224  0.66298316  0.49422858  1
  Cu  Cu99  1  0.16725862  0.17022273  0.75316531  1
  Cu  Cu100  1  0.66173527  0.33719385  -0.00531961  1
  Cu  Cu101  1  0.33496196  0.65664380  -0.00376743  1
  Cu  Cu102  1  0.32950169  0.00223930  0.50244816  1
  Cu  Cu103  1  0.66652328  0.66446162  -0.00374198  1
  Cu  Cu104  1  0.83886797  0.16977439  0.75471726  1
  Cu  Cu105  1  0.17076681  0.49873922  0.75200262  1
  Cu  Cu106  1  0.33552806  0.33570719  -0.00481069  1
  Cu  Cu107  1  0.33435865  0.01080743  0.00248823  1
  Cu  Cu108  1  0.00057672  0.00080719  -0.00486120  1
  Cu  Cu109  1  0.34431695  0.66024831  0.50581786  1
  Cu  Cu110  1  0.83009213  0.51178218  0.24552579  1
  Cu  Cu111  1  -0.00177847  0.32725240  -0.00618592  1
  Cu  Cu112  1  0.66412809  0.66234937  0.50395608  1
  Cu  Cu113  1  0.33338696  0.33008915  0.50384876  1
  Cu  Cu114  1  -0.00610039  0.65918530  -0.00389051  1
  Se  Se115  1  0.08725442  0.08225733  0.04704554  1
  Se  Se116  1  0.08393063  0.08902180  0.55679755  1
  Se  Se117  1  0.07608089  0.40746174  0.05551479  1
  Se  Se118  1  0.08238268  0.41274310  0.56651087  1
  Se  Se119  1  0.07636292  0.73561486  0.05981431  1
  Se  Se120  1  0.07347459  0.74460641  0.55351248  1
  Se  Se121  1  0.41978149  0.09109113  0.05622175  1
  Se  Se122  1  0.41657999  0.08544278  0.55276904  1
  Se  Se123  1  0.41912236  0.41917406  0.04965735  1
  Se  Se124  1  0.41961302  0.41433191  0.55306029  1
  Se  Se125  1  0.41359116  0.74187825  0.05447416  1
  Se  Se126  1  0.42216572  0.74852253  0.55849350  1
  Se  Se127  1  0.75468673  0.08692964  0.04838122  1
  Se  Se128  1  0.73434322  0.07658406  0.56374599  1
  Se  Se129  1  0.74882937  0.41857501  0.04692757  1
  Se  Se130  1  0.75915295  0.42343751  0.55733850  1
  Se  Se131  1  0.74898827  0.75092832  0.04919948  1
  Se  Se132  1  0.74303510  0.74377710  0.56443837  1
  Se  Se133  1  0.25179045  0.25372348  0.05227046  1
  Se  Se134  1  0.24582421  0.24692456  0.55249315  1
  Se  Se135  1  0.24897702  0.57820373  0.05033793  1
  Se  Se136  1  0.25881700  0.58477887  0.56517696  1
  Se  Se137  1  0.26193831  0.92090376  0.06041045  1
  Se  Se138  1  0.25628384  0.91933005  0.56713035  1
  Se  Se139  1  0.58109046  0.25287531  0.05123651  1
  Se  Se140  1  0.58381178  0.24944246  0.55336726  1
  Se  Se141  1  0.58110259  0.58382695  0.04990617  1
  Se  Se142  1  0.58215261  0.57827381  0.55756134  1
  Se  Se143  1  0.59560609  0.92843215  0.06233630  1
  Se  Se144  1  0.57679145  0.90898124  0.55271094  1
  Se  Se145  1  0.91245460  0.24202295  0.04540112  1
  Se  Se146  1  0.91863805  0.25881463  0.57027026  1
  Se  Se147  1  0.90860261  0.57744656  0.05015654  1
  Se  Se148  1  0.91251056  0.58026293  0.54824286  1
  Se  Se149  1  0.91699208  0.91294070  0.04424848  1
  Se  Se150  1  0.92060522  0.92592712  0.55917551  1
  Se  Se151  1  0.08286687  0.25403091  0.45887213  1
  Se  Se152  1  0.08697854  0.24799097  0.94225666  1
  Se  Se153  1  0.08444691  0.59262258  0.43689659  1
  Se  Se154  1  0.08424216  0.57461881  0.95206131  1
  Se  Se155  1  0.07383308  0.93032137  0.44264871  1
  Se  Se156  1  0.07899187  0.91724052  0.93504459  1
  Se  Se157  1  0.41462380  0.24711155  0.44648939  1
  Se  Se158  1  0.42179953  0.25363417  0.94342326  1
  Se  Se159  1  0.42385715  0.57367430  0.45301327  1
  Se  Se160  1  0.42158713  0.58180349  0.94011960  1
  Se  Se161  1  0.41188775  0.91520147  0.45078291  1
  Se  Se162  1  0.41069474  0.92591441  0.94276376  1
  Se  Se163  1  0.74434825  0.25898256  0.43749250  1
  Se  Se164  1  0.74730211  0.24997112  0.94680305  1
  Se  Se165  1  0.75129156  0.58659024  0.44653132  1
  Se  Se166  1  0.74948817  0.57886107  0.94448262  1
  Se  Se167  1  0.74183807  0.92728628  0.44102973  1
  Se  Se168  1  0.74817683  0.91339752  0.94144826  1
  Se  Se169  1  0.24712226  0.08391613  0.44713236  1
  Se  Se170  1  0.25062709  0.09357844  0.95052333  1
  Se  Se171  1  0.25717987  0.41153530  0.43998333  1
  Se  Se172  1  0.24922292  0.41884868  0.94371053  1
  Se  Se173  1  0.26076055  0.73734425  0.44465683  1
  Se  Se174  1  0.25437101  0.74452997  0.94242799  1
  Se  Se175  1  0.57753444  0.08880443  0.45011423  1
  Se  Se176  1  0.58094747  0.08684531  0.94925376  1
  Se  Se177  1  0.59409638  0.40627383  0.44817812  1
  Se  Se178  1  0.57741788  0.41987137  0.94258286  1
  Se  Se179  1  0.58296714  0.74887217  0.45093305  1
  Se  Se180  1  0.58770221  0.74446231  0.93366425  1
  Se  Se181  1  0.91463565  0.09196407  0.44278054  1
  Se  Se182  1  0.91755099  0.08430994  0.94190377  1
  Se  Se183  1  0.93586587  0.40958518  0.45045346  1
  Se  Se184  1  0.91247933  0.41459694  0.94715158  1
  Se  Se185  1  0.91986524  0.74899005  0.43417939  1
  Se  Se186  1  0.91372369  0.74803637  0.94638027  1
  Se  Se187  1  0.24914173  0.25381166  0.30646518  1
  Se  Se188  1  0.25361710  0.25235874  0.80384366  1
  Se  Se189  1  0.24685920  0.57439964  0.30885840  1
  Se  Se190  1  0.25341292  0.58392948  0.80354855  1
  Se  Se191  1  0.23501242  0.90042303  0.30408851  1
  Se  Se192  1  0.24519890  0.91059323  0.81745569  1
  Se  Se193  1  0.56999528  0.24215613  0.31129053  1
  Se  Se194  1  0.58489039  0.25015010  0.79865926  1
  Se  Se195  1  0.58694883  0.58474902  0.30502451  1
  Se  Se196  1  0.58590032  0.58135429  0.80114442  1
  Se  Se197  1  0.57627501  0.91480893  0.31957119  1
  Se  Se198  1  0.57726061  0.90788433  0.80622487  1
  Se  Se199  1  0.90887219  0.25073218  0.30619423  1
  Se  Se200  1  0.92086136  0.25603485  0.80645246  1
  Se  Se201  1  0.91786378  0.58726403  0.30124374  1
  Se  Se202  1  0.91446139  0.57406594  0.81581649  1
  Se  Se203  1  0.90778686  0.90653242  0.30991124  1
  Se  Se204  1  0.90980028  0.91585052  0.79668312  1
  Se  Se205  1  0.08444639  0.09277134  0.30926242  1
  Se  Se206  1  0.08466054  0.08229022  0.80268657  1
  Se  Se207  1  0.09331970  0.42509528  0.31142141  1
  Se  Se208  1  0.08476712  0.41561032  0.80288671  1
  Se  Se209  1  0.07993428  0.74567328  0.29195417  1
  Se  Se210  1  0.08951505  0.75198567  0.81431551  1
  Se  Se211  1  0.40698952  0.07967678  0.30535475  1
  Se  Se212  1  0.42433851  0.09196480  0.80973692  1
  Se  Se213  1  0.42053684  0.41574335  0.30329130  1
  Se  Se214  1  0.41638246  0.41491023  0.80198621  1
  Se  Se215  1  0.42216298  0.74970200  0.31616045  1
  Se  Se216  1  0.42115180  0.75604761  0.79369938  1
  Se  Se217  1  0.75270690  0.09128405  0.29872728  1
  Se  Se218  1  0.75464167  0.09188723  0.81518143  1
  Se  Se219  1  0.75540729  0.42780036  0.30775364  1
  Se  Se220  1  0.74606175  0.41132301  0.80563855  1
  Se  Se221  1  0.74365116  0.74845544  0.29787089  1
  Se  Se222  1  0.75691488  0.74380932  0.79577355  1
  Se  Se223  1  0.25443893  0.08082702  0.19561563  1
  Se  Se224  1  0.24741778  0.09323996  0.68904035  1
  Se  Se225  1  0.25045198  0.41901838  0.19897389  1
  Se  Se226  1  0.25286781  0.41191684  0.70070352  1
  Se  Se227  1  0.24649897  0.75148306  0.18542268  1
  Se  Se228  1  0.24970798  0.74605042  0.70353069  1
  Se  Se229  1  0.57512408  0.09651552  0.19200192  1
  Se  Se230  1  0.57400429  0.08736156  0.69504227  1
  Se  Se231  1  0.57843300  0.42095090  0.18624245  1
  Se  Se232  1  0.58456976  0.41291449  0.69510525  1
  Se  Se233  1  0.58049404  0.75514393  0.19969018  1
  Se  Se234  1  0.58599913  0.74066857  0.70155223  1
  Se  Se235  1  0.91717149  0.08916086  0.18715596  1
  Se  Se236  1  0.92166909  0.08375763  0.70362566  1
  Se  Se237  1  0.90472553  0.42168252  0.18880923  1
  Se  Se238  1  0.92060198  0.41760871  0.70374687  1
  Se  Se239  1  0.91756576  0.74351638  0.19016192  1
  Se  Se240  1  0.91398261  0.75132939  0.68627534  1
  Se  Se241  1  0.09170075  0.24265215  0.18918973  1
  Se  Se242  1  0.08280088  0.25397179  0.70099888  1
  Se  Se243  1  0.07931615  0.57183696  0.19716139  1
  Se  Se244  1  0.09007576  0.57606537  0.68819601  1
  Se  Se245  1  0.09142644  0.90675838  0.18464934  1
  Se  Se246  1  0.08338658  0.91974983  0.70398057  1
  Se  Se247  1  0.40867643  0.25642362  0.19702132  1
  Se  Se248  1  0.41172180  0.25929684  0.69745971  1
  Se  Se249  1  0.42431430  0.57546593  0.18697176  1
  Se  Se250  1  0.41577873  0.58185562  0.69774954  1
  Se  Se251  1  0.41790278  0.92015378  0.20356530  1
  Se  Se252  1  0.42257194  0.91665991  0.69334387  1
  Se  Se253  1  0.75196438  0.25306654  0.18671000  1
  Se  Se254  1  0.75221159  0.24967934  0.70183516  1
  Se  Se255  1  0.74249585  0.58918647  0.19136516  1
  Se  Se256  1  0.74824332  0.57894459  0.70031672  1
  Se  Se257  1  0.76170812  0.91315484  0.18809790  1
  Se  Se258  1  0.75790506  0.90870868  0.68886613  1
