# generated using pymatgen
data_In86Cu29Se144
_symmetry_space_group_name_H-M   'P 1'
_cell_length_a   17.57894999
_cell_length_b   17.59217477
_cell_length_c   23.44601057
_cell_angle_alpha   90.02499058
_cell_angle_beta   89.98749944
_cell_angle_gamma   90.01567958
_symmetry_Int_Tables_number   1
_chemical_formula_structural   In86Cu29Se144
_chemical_formula_sum   'In86 Cu29 Se144'
_cell_volume   7250.72359979
_cell_formula_units_Z   1
loop_
 _symmetry_equiv_pos_site_id
 _symmetry_equiv_pos_as_xyz
  1  'x, y, z'
loop_
 _atom_site_type_symbol
 _atom_site_label
 _atom_site_symmetry_multiplicity
 _atom_site_fract_x
 _atom_site_fract_y
 _atom_site_fract_z
 _atom_site_occupancy
  In  In0  1  -0.02461106  0.15544558  0.12752015  1
  In  In1  1  0.00516934  0.16924614  0.62211677  1
  In  In2  1  -0.00467158  0.51071287  0.12347829  1
  In  In3  1  -0.01938842  0.50663784  0.63371419  1
  In  In4  1  0.00036437  0.82764461  0.13170449  1
  In  In5  1  -0.01042374  0.82540932  0.62735399  1
  In  In6  1  0.32448738  0.16413474  0.12794023  1
  In  In7  1  0.33326400  0.16301556  0.62948985  1
  In  In8  1  0.35051230  0.50827986  0.11577837  1
  In  In9  1  0.32172536  0.49295487  0.62774683  1
  In  In10  1  0.33531619  0.83335197  0.12535151  1
  In  In11  1  0.35058872  0.82875656  0.62741010  1
  In  In12  1  0.66684605  0.16003957  0.12516542  1
  In  In13  1  0.66335922  0.16814746  0.62469769  1
  In  In14  1  0.68987070  0.51771729  0.09545147  1
  In  In15  1  0.68188364  0.48822637  0.63469915  1
  In  In16  1  0.66326194  0.84376195  0.12782918  1
  In  In17  1  0.66703257  0.83151885  0.63684340  1
  In  In18  1  0.17211764  0.00394612  0.37351173  1
  In  In19  1  0.17123625  -0.01263838  0.87472475  1
  In  In20  1  0.15523664  0.33055125  0.37860524  1
  In  In21  1  0.15881866  0.32698996  0.86371591  1
  In  In22  1  0.16423650  0.66475274  0.36477278  1
  In  In23  1  0.16673994  0.67613535  0.87882542  1
  In  In24  1  0.50729518  0.00759047  0.36890584  1
  In  In25  1  0.50433246  -0.00179646  0.87557320  1
  In  In26  1  0.49180479  0.32808107  0.37922464  1
  In  In27  1  0.51499540  0.34777532  0.86472189  1
  In  In28  1  0.51569794  0.67842089  0.36282312  1
  In  In29  1  0.52206429  0.65230591  0.89934412  1
  In  In30  1  0.84328049  0.02031881  0.35299698  1
  In  In31  1  0.83129041  0.01858133  0.87512012  1
  In  In32  1  0.83630369  0.33236368  0.38686083  1
  In  In33  1  0.83036988  0.33428486  0.87904817  1
  In  In34  1  0.83517423  0.66244502  0.36893608  1
  In  In35  1  0.81881466  0.65290285  0.87366229  1
  In  In36  1  0.00093755  0.16751540  0.38262122  1
  In  In37  1  -0.01908947  0.17683497  0.87852330  1
  In  In38  1  -0.00930351  0.49595086  0.37368141  1
  In  In39  1  -0.02606875  0.48037131  0.87068289  1
  In  In40  1  -0.01296468  0.83522196  0.35852815  1
  In  In41  1  0.01465323  0.83268243  0.87948501  1
  In  In42  1  0.33760943  0.15754118  0.38436293  1
  In  In43  1  0.33458520  0.16428810  0.86498437  1
  In  In44  1  0.32690077  0.50073700  0.36945910  1
  In  In45  1  0.34489417  0.50205815  0.87366099  1
  In  In46  1  0.33806710  0.83493330  0.36490020  1
  In  In47  1  0.33642276  0.83909257  0.88025915  1
  In  In48  1  0.67333201  0.16053149  0.38715081  1
  In  In49  1  0.69915045  0.18753218  0.85032296  1
  In  In50  1  0.67745965  0.51421078  0.37299145  1
  In  In51  1  0.66797850  0.50067431  0.88400132  1
  In  In52  1  0.68573316  0.84111283  0.35598998  1
  In  In53  1  0.65781483  0.82366009  0.87715969  1
  In  In54  1  0.17813339  -0.01117263  0.13292631  1
  In  In55  1  0.16096483  0.01401520  0.62539270  1
  In  In56  1  0.15909617  0.33225758  0.12101872  1
  In  In57  1  0.17207249  0.32506851  0.63455391  1
  In  In58  1  0.15202384  0.68467422  0.12974767  1
  In  In59  1  0.15498408  0.65284270  0.62150878  1
  In  In60  1  0.50714406  -0.00732583  0.13066722  1
  In  In61  1  0.49021501  0.00095358  0.63312982  1
  In  In62  1  0.50435790  0.34264220  0.11078457  1
  In  In63  1  0.51548035  0.31902863  0.63838070  1
  In  In64  1  0.50575330  0.66537575  0.11947630  1
  In  In65  1  0.51149749  0.67595399  0.62526641  1
  In  In66  1  0.82210943  0.00673652  0.14470098  1
  In  In67  1  0.81956434  0.00435032  0.62875691  1
  In  In68  1  0.82622465  0.32572562  0.10505792  1
  In  In69  1  0.82772461  0.32891993  0.62715035  1
  In  In70  1  0.83267644  0.67221807  0.13329296  1
  In  In71  1  0.84333641  0.65426628  0.63609517  1
  In  In72  1  0.83378882  0.83385220  0.00814558  1
  In  In73  1  0.16196281  0.49283544  0.49526654  1
  In  In74  1  0.51326733  0.16903287  -0.00538324  1
  In  In75  1  0.50953722  0.83953771  0.48650385  1
  In  In76  1  0.82993792  0.83578039  0.49185956  1
  In  In77  1  0.50416266  0.49476132  0.50224647  1
  In  In78  1  -0.00162273  0.33207367  0.25131833  1
  In  In79  1  0.15740975  0.16093839  -0.00865028  1
  In  In80  1  0.16128123  0.50796677  -0.00124400  1
  In  In81  1  0.33348913  0.33231554  0.24785294  1
  In  In82  1  0.16248807  0.84055335  0.50028617  1
  In  In83  1  0.66459276  0.33301449  0.24021404  1
  In  In84  1  -0.00056297  0.00174250  0.74903171  1
  In  In85  1  0.33720994  0.66847132  0.75300772  1
  Cu  Cu86  1  0.82504463  0.49602332  0.75480053  1
  Cu  Cu87  1  0.17197913  0.82834272  0.75394541  1
  Cu  Cu88  1  -0.00057837  0.33237506  0.50765812  1
  Cu  Cu89  1  0.16705441  0.83655583  0.24897454  1
  Cu  Cu90  1  0.83136500  0.49902610  0.24424073  1
  Cu  Cu91  1  0.49279606  0.82898323  0.24375154  1
  Cu  Cu92  1  0.50425483  0.82889893  0.75807478  1
  Cu  Cu93  1  -0.00809169  0.00464449  0.49557818  1
  Cu  Cu94  1  0.17402588  0.51046199  0.24152849  1
  Cu  Cu95  1  -0.00339568  0.66918337  0.00267798  1
  Cu  Cu96  1  0.00170192  -0.00108719  0.00256923  1
  Cu  Cu97  1  0.49938361  0.15846267  0.74967903  1
  Cu  Cu98  1  0.50590570  0.51023565  0.24239057  1
  Cu  Cu99  1  0.50097675  0.50451424  0.75682508  1
  Cu  Cu100  1  0.34398144  -0.00528288  0.00476555  1
  Cu  Cu101  1  0.16404513  0.15836273  0.25349876  1
  Cu  Cu102  1  0.66741629  0.33403799  0.50837102  1
  Cu  Cu103  1  0.33223563  0.33157304  -0.01006715  1
  Cu  Cu104  1  0.15694971  0.49783154  0.74848874  1
  Cu  Cu105  1  0.50034355  0.16452003  0.24940271  1
  Cu  Cu106  1  0.32832424  0.00899392  0.50420438  1
  Cu  Cu107  1  0.68257437  0.66234402  0.50042898  1
  Cu  Cu108  1  0.67201914  0.00441922  0.00202960  1
  Cu  Cu109  1  0.83405357  0.83060113  0.75505626  1
  Cu  Cu110  1  0.33603654  0.32013740  0.50963902  1
  Cu  Cu111  1  0.16595557  0.16121591  0.74986538  1
  Cu  Cu112  1  0.33155287  0.67883898  0.00128359  1
  Cu  Cu113  1  0.33784155  0.66386582  0.48782756  1
  Cu  Cu114  1  0.66284398  0.00544352  0.50092843  1
  Se  Se115  1  0.08322810  0.07689581  0.06540908  1
  Se  Se116  1  0.08008010  0.08229853  0.54974530  1
  Se  Se117  1  0.07107081  0.41311082  0.05497416  1
  Se  Se118  1  0.08019898  0.41324866  0.56735346  1
  Se  Se119  1  0.07866011  0.75794675  0.05124916  1
  Se  Se120  1  0.07335692  0.74341533  0.55385289  1
  Se  Se121  1  0.41759088  0.08609336  0.05974134  1
  Se  Se122  1  0.41837555  0.08322944  0.55856910  1
  Se  Se123  1  0.41315720  0.41598419  0.04346878  1
  Se  Se124  1  0.41404635  0.40756166  0.56489018  1
  Se  Se125  1  0.42012760  0.75477787  0.05537527  1
  Se  Se126  1  0.41875084  0.74232607  0.54769604  1
  Se  Se127  1  0.75672667  0.07918017  0.06062142  1
  Se  Se128  1  0.74841829  0.08623755  0.55433069  1
  Se  Se129  1  0.76608640  0.42135341  0.03469916  1
  Se  Se130  1  0.75466117  0.41974979  0.55428627  1
  Se  Se131  1  0.73836823  0.74452378  0.06104900  1
  Se  Se132  1  0.75077132  0.74916309  0.56369335  1
  Se  Se133  1  0.25378624  0.25433127  0.05159886  1
  Se  Se134  1  0.24559290  0.24333074  0.56032073  1
  Se  Se135  1  0.24922155  0.59696819  0.06105066  1
  Se  Se136  1  0.25901872  0.58848353  0.55106862  1
  Se  Se137  1  0.25247213  0.91654282  0.05452585  1
  Se  Se138  1  0.25961600  0.91925813  0.56418843  1
  Se  Se139  1  0.60375474  0.26091820  0.05336345  1
  Se  Se140  1  0.57838254  0.24972132  0.55343979  1
  Se  Se141  1  0.56582546  0.56509686  0.05079792  1
  Se  Se142  1  0.59617216  0.58706607  0.55961107  1
  Se  Se143  1  0.58545277  0.92265366  0.05301364  1
  Se  Se144  1  0.58922885  0.91910089  0.56109225  1
  Se  Se145  1  0.93189910  0.25093252  0.05327168  1
  Se  Se146  1  0.91372554  0.24822582  0.55757052  1
  Se  Se147  1  0.91059071  0.59234374  0.05730248  1
  Se  Se148  1  0.91912776  0.58974759  0.55582829  1
  Se  Se149  1  0.91989727  0.92700431  0.06724522  1
  Se  Se150  1  0.91873310  0.92430927  0.55934121  1
  Se  Se151  1  0.08359180  0.25028534  0.45263593  1
  Se  Se152  1  0.07216950  0.26452024  0.94393465  1
  Se  Se153  1  0.07715596  0.58965039  0.43927384  1
  Se  Se154  1  0.06781923  0.58833442  0.93570117  1
  Se  Se155  1  0.06874633  0.92070269  0.43603572  1
  Se  Se156  1  0.08819456  0.91868311  0.95091402  1
  Se  Se157  1  0.41999527  0.24363957  0.45108338  1
  Se  Se158  1  0.41663296  0.25287913  0.93369106  1
  Se  Se159  1  0.42321551  0.58517446  0.43299541  1
  Se  Se160  1  0.40741422  0.58672060  0.95009441  1
  Se  Se161  1  0.40538620  0.92850766  0.44077601  1
  Se  Se162  1  0.42629219  0.91572046  0.94798522  1
  Se  Se163  1  0.75045298  0.25081678  0.45274292  1
  Se  Se164  1  0.75440340  0.23769890  0.94304610  1
  Se  Se165  1  0.76478411  0.57953975  0.44711819  1
  Se  Se166  1  0.73779337  0.59446209  0.95312249  1
  Se  Se167  1  0.74302710  0.93132488  0.43647309  1
  Se  Se168  1  0.75039505  0.92190231  0.94065308  1
  Se  Se169  1  0.24103873  0.08691235  0.45036666  1
  Se  Se170  1  0.26336414  0.07452292  0.94308663  1
  Se  Se171  1  0.26381362  0.40191043  0.44320074  1
  Se  Se172  1  0.24676521  0.41362775  0.93567845  1
  Se  Se173  1  0.25311106  0.74903859  0.43785664  1
  Se  Se174  1  0.24709607  0.75867035  0.94721488  1
  Se  Se175  1  0.57428750  0.08533095  0.44884705  1
  Se  Se176  1  0.60307185  0.08353394  0.93385029  1
  Se  Se177  1  0.59585897  0.41061369  0.43748223  1
  Se  Se178  1  0.57535721  0.41885027  0.94760258  1
  Se  Se179  1  0.60713349  0.74582665  0.43873606  1
  Se  Se180  1  0.57833295  0.76281693  0.95742780  1
  Se  Se181  1  0.90584837  0.08346919  0.44178181  1
  Se  Se182  1  0.91880107  0.08316038  0.95070146  1
  Se  Se183  1  0.92135506  0.41740428  0.45133750  1
  Se  Se184  1  0.89753808  0.42561602  0.95455293  1
  Se  Se185  1  0.92525240  0.74630482  0.43824974  1
  Se  Se186  1  0.91686930  0.74730359  0.93920731  1
  Se  Se187  1  0.24324720  0.24585921  0.31056534  1
  Se  Se188  1  0.25015741  0.24873535  0.79976889  1
  Se  Se189  1  0.25692844  0.58844586  0.29898793  1
  Se  Se190  1  0.24099286  0.57694803  0.80868802  1
  Se  Se191  1  0.25013737  0.91979254  0.30337337  1
  Se  Se192  1  0.25603571  0.91324236  0.80301015  1
  Se  Se193  1  0.57820339  0.24833789  0.30862491  1
  Se  Se194  1  0.58048925  0.24609053  0.80085410  1
  Se  Se195  1  0.59246099  0.58434617  0.29953898  1
  Se  Se196  1  0.58340689  0.58486073  0.81279689  1
  Se  Se197  1  0.57403635  0.90876877  0.30366404  1
  Se  Se198  1  0.58875558  0.91593821  0.80663615  1
  Se  Se199  1  0.90737544  0.24530935  0.31085393  1
  Se  Se200  1  0.91119136  0.25629258  0.80487669  1
  Se  Se201  1  0.91852617  0.57716629  0.29941407  1
  Se  Se202  1  0.91164969  0.58211274  0.80479825  1
  Se  Se203  1  0.88595663  0.90140144  0.29726828  1
  Se  Se204  1  0.91516487  0.91178599  0.81494327  1
  Se  Se205  1  0.07835568  0.08365033  0.31085279  1
  Se  Se206  1  0.08627008  0.08819538  0.81627504  1
  Se  Se207  1  0.09654620  0.42757976  0.30358381  1
  Se  Se208  1  0.07348824  0.41564111  0.80299871  1
  Se  Se209  1  0.08233865  0.75205753  0.30019358  1
  Se  Se210  1  0.08391060  0.74841161  0.80382689  1
  Se  Se211  1  0.41407988  0.08750049  0.30511905  1
  Se  Se212  1  0.41774246  0.07428099  0.80380390  1
  Se  Se213  1  0.42960999  0.42606816  0.30329631  1
  Se  Se214  1  0.41330761  0.41596127  0.80020361  1
  Se  Se215  1  0.41405498  0.74353931  0.29958340  1
  Se  Se216  1  0.42718038  0.74586980  0.81926113  1
  Se  Se217  1  0.72988084  0.08576723  0.30329679  1
  Se  Se218  1  0.75187587  0.07382678  0.79346383  1
  Se  Se219  1  0.75765122  0.41585444  0.30731777  1
  Se  Se220  1  0.74267539  0.41599770  0.81113785  1
  Se  Se221  1  0.73793387  0.72640038  0.30170994  1
  Se  Se222  1  0.74767176  0.74941717  0.80807552  1
  Se  Se223  1  0.25408119  0.08110738  0.20108811  1
  Se  Se224  1  0.25045174  0.07690762  0.69882452  1
  Se  Se225  1  0.24772017  0.42350214  0.18332895  1
  Se  Se226  1  0.24839620  0.41557746  0.70276599  1
  Se  Se227  1  0.25007621  0.75234567  0.19532914  1
  Se  Se228  1  0.24381886  0.74898410  0.68536737  1
  Se  Se229  1  0.58617097  0.08229835  0.19723849  1
  Se  Se230  1  0.58482663  0.07907212  0.69420791  1
  Se  Se231  1  0.58248980  0.42921548  0.18134492  1
  Se  Se232  1  0.58186850  0.42213299  0.69961831  1
  Se  Se233  1  0.58133650  0.75138610  0.19079415  1
  Se  Se234  1  0.58647049  0.74438459  0.70422110  1
  Se  Se235  1  0.92018100  0.07746629  0.20897237  1
  Se  Se236  1  0.90970242  0.09237139  0.69205242  1
  Se  Se237  1  0.90820875  0.41391277  0.18504094  1
  Se  Se238  1  0.90825338  0.41335647  0.69895475  1
  Se  Se239  1  0.92144764  0.74498618  0.20091794  1
  Se  Se240  1  0.91909872  0.74736588  0.70351685  1
  Se  Se241  1  0.08838935  0.23900577  0.19110409  1
  Se  Se242  1  0.08057287  0.24545838  0.69904242  1
  Se  Se243  1  0.08003588  0.58659407  0.19386078  1
  Se  Se244  1  0.07591102  0.58490873  0.69809989  1
  Se  Se245  1  0.08060307  0.91906822  0.19763321  1
  Se  Se246  1  0.09096163  0.90685786  0.69032393  1
  Se  Se247  1  0.42875952  0.24831145  0.18541760  1
  Se  Se248  1  0.41520109  0.24619212  0.69904679  1
  Se  Se249  1  0.41623599  0.58940890  0.19249182  1
  Se  Se250  1  0.42423777  0.57807564  0.68728486  1
  Se  Se251  1  0.41221765  0.92075713  0.19619960  1
  Se  Se252  1  0.41827223  0.90907057  0.70343089  1
  Se  Se253  1  0.76307705  0.24451627  0.18895715  1
  Se  Se254  1  0.72746682  0.26525805  0.69288293  1
  Se  Se255  1  0.74462406  0.57530768  0.18874743  1
  Se  Se256  1  0.74589526  0.58678169  0.70242723  1
  Se  Se257  1  0.75383557  0.90369780  0.20319824  1
  Se  Se258  1  0.75320525  0.91507234  0.70130202  1
