# generated using pymatgen
data_In86Cu29Se144
_symmetry_space_group_name_H-M   'P 1'
_cell_length_a   17.58077913
_cell_length_b   17.58302516
_cell_length_c   23.43872164
_cell_angle_alpha   89.98389432
_cell_angle_beta   89.98929628
_cell_angle_gamma   90.03118495
_symmetry_Int_Tables_number   1
_chemical_formula_structural   In86Cu29Se144
_chemical_formula_sum   'In86 Cu29 Se144'
_cell_volume   7245.45306898
_cell_formula_units_Z   1
loop_
 _symmetry_equiv_pos_site_id
 _symmetry_equiv_pos_as_xyz
  1  'x, y, z'
loop_
 _atom_site_type_symbol
 _atom_site_label
 _atom_site_symmetry_multiplicity
 _atom_site_fract_x
 _atom_site_fract_y
 _atom_site_fract_z
 _atom_site_occupancy
  In  In0  1  0.00614736  0.16712193  0.11868437  1
  In  In1  1  0.00393092  0.16281607  0.63704870  1
  In  In2  1  -0.00073677  0.48719929  0.12525977  1
  In  In3  1  -0.00099860  0.50006926  0.62451269  1
  In  In4  1  0.03313992  0.87565318  0.08432203  1
  In  In5  1  -0.01683366  0.83994777  0.64169219  1
  In  In6  1  0.32024665  0.16092408  0.11259329  1
  In  In7  1  0.31925146  0.16197453  0.63352325  1
  In  In8  1  0.33009485  0.51294076  0.12820778  1
  In  In9  1  0.32548637  0.52406441  0.62598061  1
  In  In10  1  0.33356956  0.83507511  0.12425041  1
  In  In11  1  0.33338933  0.82622727  0.63219086  1
  In  In12  1  0.67473871  0.17260709  0.11973317  1
  In  In13  1  0.67862706  0.16993594  0.62792608  1
  In  In14  1  0.65598243  0.49274273  0.13187438  1
  In  In15  1  0.67095235  0.48103055  0.62466532  1
  In  In16  1  0.67651851  0.84948564  0.11613194  1
  In  In17  1  0.66558945  0.83634812  0.61762447  1
  In  In18  1  0.16745701  -0.00387359  0.36432970  1
  In  In19  1  0.16033914  -0.00811025  0.88208044  1
  In  In20  1  0.16326174  0.34657085  0.37571680  1
  In  In21  1  0.16472992  0.34433447  0.88775059  1
  In  In22  1  0.16493674  0.65932242  0.37449748  1
  In  In23  1  0.16655541  0.66755622  0.87552952  1
  In  In24  1  0.48624421  0.00047057  0.36855206  1
  In  In25  1  0.49051447  0.00488278  0.88163223  1
  In  In26  1  0.50913941  0.32832504  0.37001221  1
  In  In27  1  0.50138535  0.31837609  0.87758353  1
  In  In28  1  0.49772830  0.67896738  0.37664270  1
  In  In29  1  0.49896903  0.68388708  0.87335516  1
  In  In30  1  0.83974152  -0.01159608  0.37537353  1
  In  In31  1  0.85749213  -0.01726790  0.89488411  1
  In  In32  1  0.83920452  0.33303597  0.37143758  1
  In  In33  1  0.83074658  0.32325848  0.86937343  1
  In  In34  1  0.83104701  0.66723410  0.38487437  1
  In  In35  1  0.85090961  0.67391208  0.86381545  1
  In  In36  1  -0.00448105  0.16201075  0.36539011  1
  In  In37  1  -0.00228142  0.16199926  0.88071297  1
  In  In38  1  0.00429675  0.49582537  0.38058219  1
  In  In39  1  0.01185183  0.50540130  0.86555158  1
  In  In40  1  -0.00488331  0.83573392  0.37556768  1
  In  In41  1  0.00381812  0.83881766  0.87835613  1
  In  In42  1  0.34329801  0.15663399  0.36469463  1
  In  In43  1  0.34524858  0.15961712  0.88917179  1
  In  In44  1  0.31652125  0.50616584  0.37761691  1
  In  In45  1  0.31616903  0.49790060  0.87574229  1
  In  In46  1  0.33717605  0.84066906  0.36561696  1
  In  In47  1  0.32848001  0.83257685  0.87497766  1
  In  In48  1  0.66364221  0.17843913  0.36552422  1
  In  In49  1  0.66545666  0.16907746  0.88024538  1
  In  In50  1  0.67730589  0.49460275  0.38156760  1
  In  In51  1  0.68128283  0.49720433  0.86989461  1
  In  In52  1  0.67413471  0.82363308  0.38184789  1
  In  In53  1  0.66302052  0.83440811  0.88009558  1
  In  In54  1  0.16863068  0.00962280  0.11975802  1
  In  In55  1  0.16302129  -0.00092673  0.63798017  1
  In  In56  1  0.15701340  0.31851055  0.10702831  1
  In  In57  1  0.15097879  0.33334884  0.62728609  1
  In  In58  1  0.17386786  0.67822427  0.11779131  1
  In  In59  1  0.17131700  0.65985581  0.62788862  1
  In  In60  1  0.49299249  -0.00290445  0.11936395  1
  In  In61  1  0.49900156  -0.01583087  0.62391002  1
  In  In62  1  0.51024077  0.33024680  0.12854945  1
  In  In63  1  0.51211509  0.33406803  0.62580786  1
  In  In64  1  0.48631645  0.66971449  0.12907032  1
  In  In65  1  0.47960280  0.67412930  0.62617237  1
  In  In66  1  0.86042676  0.02461702  0.09924167  1
  In  In67  1  0.85021073  -0.01223904  0.62850348  1
  In  In68  1  0.84435767  0.32356464  0.13326636  1
  In  In69  1  0.82944488  0.33863938  0.63006273  1
  In  In70  1  0.83452617  0.68190493  0.12613442  1
  In  In71  1  0.84602528  0.67731457  0.62126245  1
  In  In72  1  0.50076434  0.16158096  0.49282021  1
  In  In73  1  0.32479749  0.32894215  0.24362252  1
  In  In74  1  0.66793272  0.00249367  0.24810858  1
  In  In75  1  0.00073467  0.67053142  0.25288376  1
  In  In76  1  0.67225875  0.00808860  0.75089498  1
  In  In77  1  0.16240663  0.16391039  0.50619828  1
  In  In78  1  0.66406020  0.66430812  0.25693942  1
  In  In79  1  0.49539820  0.50080532  0.00466311  1
  In  In80  1  0.67101780  0.66484528  0.74852022  1
  In  In81  1  0.16544744  0.82895904  0.50118797  1
  In  In82  1  0.49734625  0.50539509  0.50147792  1
  In  In83  1  0.33122884  0.33150340  0.75850112  1
  In  In84  1  0.83460265  0.50456775  -0.00171561  1
  In  In85  1  0.83326701  0.16274504  0.49630123  1
  Cu  Cu86  1  0.66878551  -0.00686060  0.49703216  1
  Cu  Cu87  1  0.84618400  0.84374596  0.24472149  1
  Cu  Cu88  1  0.33502353  -0.00470673  0.49696227  1
  Cu  Cu89  1  0.16551892  0.16008935  0.76157316  1
  Cu  Cu90  1  -0.00253070  0.33358399  -0.00154246  1
  Cu  Cu91  1  0.49093405  0.83777028  0.75123344  1
  Cu  Cu92  1  0.66728019  0.66147696  0.50469559  1
  Cu  Cu93  1  0.16202336  0.83114752  0.75607076  1
  Cu  Cu94  1  0.17242247  0.84028421  0.23749951  1
  Cu  Cu95  1  0.33307824  0.34291526  0.49850380  1
  Cu  Cu96  1  0.82780157  0.49271608  0.25300694  1
  Cu  Cu97  1  0.16184649  0.49955344  0.25161600  1
  Cu  Cu98  1  0.50124239  0.83197855  0.24683940  1
  Cu  Cu99  1  0.49422944  0.49288890  0.25030249  1
  Cu  Cu100  1  -0.00052822  0.66563568  0.50350908  1
  Cu  Cu101  1  0.65825903  0.00506573  -0.00101297  1
  Cu  Cu102  1  0.83760624  0.16981051  0.24077038  1
  Cu  Cu103  1  0.16298951  0.50054700  0.75083613  1
  Cu  Cu104  1  -0.00458283  0.33515542  0.50089007  1
  Cu  Cu105  1  0.49977779  0.16452954  0.75869608  1
  Cu  Cu106  1  0.49945688  0.50043794  0.74335003  1
  Cu  Cu107  1  0.66969907  0.33408882  0.00131263  1
  Cu  Cu108  1  0.83992933  0.48981860  0.74701299  1
  Cu  Cu109  1  0.66475814  0.67429869  -0.00093014  1
  Cu  Cu110  1  0.83726778  0.16505348  0.75595585  1
  Cu  Cu111  1  0.00280888  0.66568885  -0.00971647  1
  Cu  Cu112  1  0.16220532  0.16698053  0.24024671  1
  Cu  Cu113  1  0.33030921  -0.00881958  -0.00056187  1
  Cu  Cu114  1  0.33059919  0.66998346  0.00062663  1
  Se  Se115  1  0.07254582  0.07283122  0.04956200  1
  Se  Se116  1  0.07364851  0.07068070  0.56178271  1
  Se  Se117  1  0.08065826  0.42070183  0.04873490  1
  Se  Se118  1  0.08210913  0.41706932  0.55297514  1
  Se  Se119  1  0.08622779  0.74727844  0.04549893  1
  Se  Se120  1  0.07493376  0.74735840  0.56577929  1
  Se  Se121  1  0.41287296  0.07993511  0.04936406  1
  Se  Se122  1  0.40727324  0.08134819  0.55948888  1
  Se  Se123  1  0.41065216  0.41235898  0.06727040  1
  Se  Se124  1  0.41044460  0.41414831  0.56588594  1
  Se  Se125  1  0.41691491  0.75108979  0.05380899  1
  Se  Se126  1  0.41400673  0.76075723  0.55392871  1
  Se  Se127  1  0.74736055  0.08835243  0.04702776  1
  Se  Se128  1  0.74614562  0.07036349  0.55987269  1
  Se  Se129  1  0.74797117  0.41509172  0.06265577  1
  Se  Se130  1  0.75179221  0.40755133  0.55241442  1
  Se  Se131  1  0.75125835  0.75283399  0.05252713  1
  Se  Se132  1  0.75037663  0.74905723  0.55493817  1
  Se  Se133  1  0.25156933  0.25062135  0.04166067  1
  Se  Se134  1  0.25685415  0.25971949  0.55994581  1
  Se  Se135  1  0.24893757  0.58312710  0.05222571  1
  Se  Se136  1  0.24781819  0.59011470  0.54885748  1
  Se  Se137  1  0.24660398  0.91302888  0.05589229  1
  Se  Se138  1  0.25137311  0.92533646  0.56137354  1
  Se  Se139  1  0.58363854  0.25189664  0.05264438  1
  Se  Se140  1  0.59192349  0.24911595  0.55383060  1
  Se  Se141  1  0.59054538  0.59344438  0.06212365  1
  Se  Se142  1  0.58618898  0.58877267  0.56892163  1
  Se  Se143  1  0.57858241  0.91635314  0.05092894  1
  Se  Se144  1  0.57895429  0.91392125  0.54794890  1
  Se  Se145  1  0.91519884  0.25181999  0.05379882  1
  Se  Se146  1  0.92379611  0.24788493  0.56152993  1
  Se  Se147  1  0.92508335  0.59321969  0.05976854  1
  Se  Se148  1  0.91438040  0.58052930  0.55450212  1
  Se  Se149  1  0.89267955  0.89414972  0.05650045  1
  Se  Se150  1  0.91937213  0.90506634  0.55532362  1
  Se  Se151  1  0.07536051  0.25285543  0.44103459  1
  Se  Se152  1  0.08212524  0.24987823  0.94690160  1
  Se  Se153  1  0.08246284  0.58513802  0.44712879  1
  Se  Se154  1  0.08703135  0.57725617  0.94381279  1
  Se  Se155  1  0.08206699  0.92568251  0.44147890  1
  Se  Se156  1  0.07495448  0.91874987  0.95624596  1
  Se  Se157  1  0.40571112  0.25794444  0.43879409  1
  Se  Se158  1  0.41539259  0.25878933  0.95246119  1
  Se  Se159  1  0.40697826  0.59328824  0.44245679  1
  Se  Se160  1  0.41248433  0.59138515  0.93943769  1
  Se  Se161  1  0.41818664  0.91483052  0.44255044  1
  Se  Se162  1  0.41590208  0.90995077  0.94555469  1
  Se  Se163  1  0.74210830  0.25545264  0.44164937  1
  Se  Se164  1  0.75270491  0.25220338  0.94697392  1
  Se  Se165  1  0.75170101  0.57985071  0.45184134  1
  Se  Se166  1  0.74671137  0.59849876  0.93771174  1
  Se  Se167  1  0.75666246  0.91155149  0.44634374  1
  Se  Se168  1  0.74218750  0.92049788  0.94740966  1
  Se  Se169  1  0.25522948  0.07999496  0.44001747  1
  Se  Se170  1  0.24885716  0.07740191  0.94709044  1
  Se  Se171  1  0.24268334  0.42191429  0.45010950  1
  Se  Se172  1  0.26068211  0.41385996  0.95385193  1
  Se  Se173  1  0.25574431  0.74923423  0.43562194  1
  Se  Se174  1  0.24624413  0.75153051  0.94600091  1
  Se  Se175  1  0.59467928  0.07256300  0.43319647  1
  Se  Se176  1  0.57590060  0.09006161  0.94629902  1
  Se  Se177  1  0.58529009  0.40773216  0.44698774  1
  Se  Se178  1  0.59284712  0.41891000  0.94219806  1
  Se  Se179  1  0.58640748  0.74545683  0.44940653  1
  Se  Se180  1  0.57687725  0.75595367  0.94943781  1
  Se  Se181  1  0.92963170  0.07354831  0.44344361  1
  Se  Se182  1  0.91521470  0.08920148  0.95582802  1
  Se  Se183  1  0.91277839  0.41645309  0.44527726  1
  Se  Se184  1  0.92063112  0.41550881  0.93584416  1
  Se  Se185  1  0.92067073  0.75059411  0.44665011  1
  Se  Se186  1  0.91550117  0.75018156  0.94378055  1
  Se  Se187  1  0.23670448  0.24141113  0.31095369  1
  Se  Se188  1  0.24588518  0.24190185  0.82025687  1
  Se  Se189  1  0.24704732  0.58526124  0.29981319  1
  Se  Se190  1  0.24756788  0.58411594  0.80288162  1
  Se  Se191  1  0.25510804  0.92149793  0.29553169  1
  Se  Se192  1  0.24502975  0.91693267  0.80813507  1
  Se  Se193  1  0.56423992  0.23428914  0.29798403  1
  Se  Se194  1  0.58777438  0.24879117  0.80450873  1
  Se  Se195  1  0.57363383  0.57093108  0.31532132  1
  Se  Se196  1  0.57718592  0.57811444  0.81034321  1
  Se  Se197  1  0.58554875  0.90468466  0.30973064  1
  Se  Se198  1  0.57640570  0.91699587  0.80745207  1
  Se  Se199  1  0.91866558  0.25174299  0.29971965  1
  Se  Se200  1  0.92500610  0.24811677  0.80569905  1
  Se  Se201  1  0.90686949  0.57916389  0.31043678  1
  Se  Se202  1  0.91942067  0.57833880  0.79810488  1
  Se  Se203  1  0.92846373  0.92385662  0.30099577  1
  Se  Se204  1  0.91933446  0.91937740  0.80864542  1
  Se  Se205  1  0.08406889  0.08282882  0.29951473  1
  Se  Se206  1  0.07927052  0.07676783  0.81185684  1
  Se  Se207  1  0.07688460  0.41658339  0.30294664  1
  Se  Se208  1  0.08960606  0.40840215  0.80437140  1
  Se  Se209  1  0.09682710  0.76417982  0.30674194  1
  Se  Se210  1  0.07856372  0.74755319  0.80877777  1
  Se  Se211  1  0.42040676  0.08043556  0.29229818  1
  Se  Se212  1  0.41233699  0.08344493  0.80734546  1
  Se  Se213  1  0.41027766  0.41777199  0.31228423  1
  Se  Se214  1  0.42551998  0.42431515  0.81334776  1
  Se  Se215  1  0.41770481  0.74868349  0.30008257  1
  Se  Se216  1  0.40956437  0.75013357  0.80158890  1
  Se  Se217  1  0.76359299  0.09098307  0.30871604  1
  Se  Se218  1  0.76197391  0.08391397  0.81886114  1
  Se  Se219  1  0.74418557  0.41040493  0.30603361  1
  Se  Se220  1  0.75199511  0.41058799  0.79949698  1
  Se  Se221  1  0.76677590  0.75886011  0.30332493  1
  Se  Se222  1  0.75350523  0.76220524  0.80634117  1
  Se  Se223  1  0.25162233  0.08515001  0.19327673  1
  Se  Se224  1  0.24953681  0.07875806  0.70675684  1
  Se  Se225  1  0.23512397  0.41936661  0.18547189  1
  Se  Se226  1  0.24731678  0.41999635  0.69078152  1
  Se  Se227  1  0.25463901  0.74736481  0.19454166  1
  Se  Se228  1  0.24432285  0.74958025  0.69880033  1
  Se  Se229  1  0.58113673  0.08733551  0.18455309  1
  Se  Se230  1  0.57427518  0.09048200  0.68814364  1
  Se  Se231  1  0.58366282  0.41020719  0.20509851  1
  Se  Se232  1  0.58605011  0.41293167  0.70077212  1
  Se  Se233  1  0.58818006  0.75651478  0.18821809  1
  Se  Se234  1  0.57639980  0.75852418  0.69276060  1
  Se  Se235  1  0.92069202  0.08478010  0.18920050  1
  Se  Se236  1  0.91521839  0.07959701  0.70004414  1
  Se  Se237  1  0.91770823  0.41651779  0.20048746  1
  Se  Se238  1  0.92661939  0.40802388  0.69524324  1
  Se  Se239  1  0.92738681  0.76414684  0.18675366  1
  Se  Se240  1  0.91483365  0.74041847  0.70505278  1
  Se  Se241  1  0.08210825  0.25512776  0.18996909  1
  Se  Se242  1  0.08952527  0.24559186  0.70305325  1
  Se  Se243  1  0.08654078  0.58210613  0.18816383  1
  Se  Se244  1  0.08139648  0.58245282  0.69490800  1
  Se  Se245  1  0.08381087  0.91795930  0.18451962  1
  Se  Se246  1  0.07861849  0.91660983  0.70428873  1
  Se  Se247  1  0.41386534  0.24100588  0.18464396  1
  Se  Se248  1  0.42267346  0.24452112  0.69263835  1
  Se  Se249  1  0.41551175  0.58369506  0.20193251  1
  Se  Se250  1  0.41245338  0.58819453  0.70144356  1
  Se  Se251  1  0.41871316  0.91603437  0.19418464  1
  Se  Se252  1  0.40909459  0.92224656  0.69752647  1
  Se  Se253  1  0.74536426  0.25274078  0.19737726  1
  Se  Se254  1  0.75441220  0.24821818  0.70072267  1
  Se  Se255  1  0.75639682  0.57852903  0.19169419  1
  Se  Se256  1  0.75801345  0.57327060  0.68814777  1
  Se  Se257  1  0.76508204  0.92467167  0.18691562  1
  Se  Se258  1  0.75281341  0.90802274  0.69354851  1
