# generated using pymatgen
data_In86Cu29Se144
_symmetry_space_group_name_H-M   'P 1'
_cell_length_a   17.57684728
_cell_length_b   17.57450929
_cell_length_c   23.44000825
_cell_angle_alpha   89.98276293
_cell_angle_beta   89.98684326
_cell_angle_gamma   90.00759254
_symmetry_Int_Tables_number   1
_chemical_formula_structural   In86Cu29Se144
_chemical_formula_sum   'In86 Cu29 Se144'
_cell_volume   7240.72264344
_cell_formula_units_Z   1
loop_
 _symmetry_equiv_pos_site_id
 _symmetry_equiv_pos_as_xyz
  1  'x, y, z'
loop_
 _atom_site_type_symbol
 _atom_site_label
 _atom_site_symmetry_multiplicity
 _atom_site_fract_x
 _atom_site_fract_y
 _atom_site_fract_z
 _atom_site_occupancy
  In  In0  1  0.00681179  0.16775015  0.12185345  1
  In  In1  1  -0.01369961  0.16581482  0.62151974  1
  In  In2  1  -0.01038800  0.51406801  0.13656812  1
  In  In3  1  0.01063431  0.49288633  0.61853692  1
  In  In4  1  -0.00801273  0.82078569  0.11890246  1
  In  In5  1  0.00468679  0.83771607  0.62562746  1
  In  In6  1  0.32847024  0.16865450  0.12369114  1
  In  In7  1  0.34549137  0.16119504  0.64242830  1
  In  In8  1  0.32496174  0.49506969  0.12963376  1
  In  In9  1  0.32862996  0.49199829  0.61257931  1
  In  In10  1  0.34404308  0.84262344  0.10878230  1
  In  In11  1  0.33397880  0.83970577  0.62656616  1
  In  In12  1  0.67867588  0.17347535  0.11625074  1
  In  In13  1  0.67011207  0.14395867  0.63178879  1
  In  In14  1  0.68179562  0.48401083  0.13255993  1
  In  In15  1  0.67061297  0.51575442  0.62427781  1
  In  In16  1  0.67028283  0.82693983  0.12420745  1
  In  In17  1  0.66978934  0.83216310  0.63617689  1
  In  In18  1  0.16747175  -0.01672916  0.37441952  1
  In  In19  1  0.16068446  0.00435562  0.87357877  1
  In  In20  1  0.17448733  0.34336909  0.36509410  1
  In  In21  1  0.16434780  0.31816175  0.87677375  1
  In  In22  1  0.16235900  0.67719994  0.38270996  1
  In  In23  1  0.17484507  0.68520616  0.87828788  1
  In  In24  1  0.49618707  0.01500173  0.37244912  1
  In  In25  1  0.48716344  -0.01262113  0.86823801  1
  In  In26  1  0.51158976  0.34218172  0.36594853  1
  In  In27  1  0.49396500  0.34149566  0.87288553  1
  In  In28  1  0.49611920  0.65219192  0.37555524  1
  In  In29  1  0.51082769  0.67185740  0.87637091  1
  In  In30  1  0.83754212  -0.00387881  0.38227356  1
  In  In31  1  0.83587194  -0.00246320  0.87207834  1
  In  In32  1  0.82708708  0.32967693  0.36689769  1
  In  In33  1  0.83214282  0.32920521  0.89399946  1
  In  In34  1  0.84270232  0.68263055  0.35892626  1
  In  In35  1  0.81310363  0.68460485  0.88640317  1
  In  In36  1  -0.01655197  0.16250871  0.37193719  1
  In  In37  1  0.00874529  0.16052200  0.88291420  1
  In  In38  1  0.00812538  0.51196103  0.36674970  1
  In  In39  1  -0.00279469  0.48827442  0.87612014  1
  In  In40  1  0.00286169  0.82947790  0.37828271  1
  In  In41  1  -0.02126832  0.85170567  0.88402291  1
  In  In42  1  0.33427835  0.16678968  0.36510334  1
  In  In43  1  0.32212569  0.15157088  0.86571787  1
  In  In44  1  0.34516195  0.49676557  0.38339528  1
  In  In45  1  0.34305106  0.49976433  0.87259623  1
  In  In46  1  0.31673036  0.82832380  0.37277268  1
  In  In47  1  0.30703123  0.86588438  0.90591742  1
  In  In48  1  0.66722765  0.17670979  0.37297517  1
  In  In49  1  0.68394487  0.16785660  0.87977072  1
  In  In50  1  0.66503627  0.50086400  0.37180354  1
  In  In51  1  0.66409689  0.51119026  0.87561641  1
  In  In52  1  0.68017904  0.83587841  0.37181738  1
  In  In53  1  0.67068111  0.83161220  0.87434218  1
  In  In54  1  0.17505552  0.00184692  0.11372614  1
  In  In55  1  0.17755411  -0.00950010  0.63178958  1
  In  In56  1  0.17130906  0.32515290  0.13339227  1
  In  In57  1  0.17453425  0.34173590  0.61727812  1
  In  In58  1  0.15951833  0.66696710  0.12409469  1
  In  In59  1  0.17567952  0.67016039  0.60982373  1
  In  In60  1  0.49471179  -0.01137329  0.11666594  1
  In  In61  1  0.50659602  -0.00210453  0.64332871  1
  In  In62  1  0.49755549  0.33292750  0.13040315  1
  In  In63  1  0.48961418  0.32542463  0.62465611  1
  In  In64  1  0.50650414  0.68400847  0.12260957  1
  In  In65  1  0.51169520  0.66783719  0.62118760  1
  In  In66  1  0.82996019  -0.00609489  0.11546946  1
  In  In67  1  0.83393170  -0.00354320  0.62898742  1
  In  In68  1  0.83137698  0.33620601  0.12565363  1
  In  In69  1  0.84763414  0.33301572  0.62170486  1
  In  In70  1  0.83669566  0.66508922  0.12738040  1
  In  In71  1  0.81657036  0.67561075  0.63199628  1
  In  In72  1  0.66430161  0.32850656  0.75371753  1
  In  In73  1  0.34314914  0.67237240  0.75213053  1
  In  In74  1  0.16477299  0.16805727  0.50016099  1
  In  In75  1  0.83636995  0.50625535  0.49886684  1
  In  In76  1  -0.00374029  0.66967331  0.74692153  1
  In  In77  1  0.00349059  0.32755975  0.74665778  1
  In  In78  1  0.33240549  0.66572050  0.25195690  1
  In  In79  1  0.50655004  0.50380946  -0.00371807  1
  In  In80  1  0.50345483  0.16567801  0.50975399  1
  In  In81  1  0.49794792  0.16160358  -0.00103248  1
  In  In82  1  0.49492239  0.82853733  0.50549526  1
  In  In83  1  0.66491218  0.00150309  0.23549686  1
  In  In84  1  0.00330874  -0.00252929  0.25023332  1
  In  In85  1  0.16227346  0.50352684  0.01010240  1
  Cu  Cu86  1  0.67727142  -0.00280731  0.50586712  1
  Cu  Cu87  1  0.67445000  0.66533482  0.00260895  1
  Cu  Cu88  1  0.82829769  0.16818902  0.24657282  1
  Cu  Cu89  1  0.49803925  0.49715107  0.74929387  1
  Cu  Cu90  1  0.66806064  0.33448197  0.49182082  1
  Cu  Cu91  1  0.16702368  0.16635860  0.24350881  1
  Cu  Cu92  1  0.66808788  0.67020427  0.50069970  1
  Cu  Cu93  1  -0.00199116  0.66209289  0.00170298  1
  Cu  Cu94  1  0.50063827  0.49867126  0.25168111  1
  Cu  Cu95  1  0.16638429  0.83182106  0.24928571  1
  Cu  Cu96  1  0.16690910  0.16330637  0.75358550  1
  Cu  Cu97  1  0.34042764  0.33068967  0.49631697  1
  Cu  Cu98  1  0.49982216  0.83959236  0.24302336  1
  Cu  Cu99  1  0.00073658  0.33366143  0.49388396  1
  Cu  Cu100  1  0.66898470  -0.00490111  -0.00416991  1
  Cu  Cu101  1  -0.00600572  0.33329012  0.00756987  1
  Cu  Cu102  1  0.82943998  0.50797988  0.75627082  1
  Cu  Cu103  1  0.17759365  0.49927366  0.74137437  1
  Cu  Cu104  1  0.50009648  0.83116916  0.75594633  1
  Cu  Cu105  1  0.00064502  -0.00050286  -0.00148298  1
  Cu  Cu106  1  0.83908150  0.16211231  0.75291551  1
  Cu  Cu107  1  0.16445261  0.84060168  0.75500032  1
  Cu  Cu108  1  0.82805469  0.49860501  0.24972479  1
  Cu  Cu109  1  0.32620254  0.33034170  0.00010483  1
  Cu  Cu110  1  -0.00475785  0.66994993  0.49599218  1
  Cu  Cu111  1  -0.00391042  -0.00492803  0.50142033  1
  Cu  Cu112  1  0.16557920  0.49636460  0.25126941  1
  Cu  Cu113  1  0.49215919  0.16747293  0.24543855  1
  Cu  Cu114  1  0.32937653  -0.00747091  0.50299958  1
  Se  Se115  1  0.08379142  0.08396996  0.05138952  1
  Se  Se116  1  0.07989691  0.07444702  0.56102140  1
  Se  Se117  1  0.07456691  0.41254271  0.06958718  1
  Se  Se118  1  0.08750998  0.41418276  0.54521552  1
  Se  Se119  1  0.08433005  0.74716738  0.05017737  1
  Se  Se120  1  0.07826201  0.75121467  0.55337900  1
  Se  Se121  1  0.40146704  0.07299172  0.05238744  1
  Se  Se122  1  0.41174234  0.06956680  0.56336491  1
  Se  Se123  1  0.40951335  0.41285675  0.05547134  1
  Se  Se124  1  0.42466242  0.41279629  0.55033718  1
  Se  Se125  1  0.42491017  0.75020642  0.04804648  1
  Se  Se126  1  0.40294626  0.73631060  0.56093407  1
  Se  Se127  1  0.75014183  0.08093226  0.04899025  1
  Se  Se128  1  0.75832899  0.08566695  0.55590174  1
  Se  Se129  1  0.75168870  0.41519552  0.05249480  1
  Se  Se130  1  0.74626652  0.41211707  0.55837503  1
  Se  Se131  1  0.75772520  0.74992583  0.05555220  1
  Se  Se132  1  0.74374355  0.75616820  0.55714751  1
  Se  Se133  1  0.24320698  0.24954883  0.05450067  1
  Se  Se134  1  0.26742430  0.24588352  0.55908597  1
  Se  Se135  1  0.26308164  0.59316050  0.05913090  1
  Se  Se136  1  0.23739865  0.56776865  0.54830385  1
  Se  Se137  1  0.24021983  0.90486404  0.04641988  1
  Se  Se138  1  0.24530205  0.90918740  0.55377939  1
  Se  Se139  1  0.58359172  0.25986938  0.05494049  1
  Se  Se140  1  0.60016196  0.25556436  0.56325522  1
  Se  Se141  1  0.59348099  0.58566199  0.06365491  1
  Se  Se142  1  0.58509186  0.58184345  0.54878132  1
  Se  Se143  1  0.59095901  0.91386635  0.05531045  1
  Se  Se144  1  0.58364716  0.92457492  0.56107350  1
  Se  Se145  1  0.91293459  0.24600888  0.05891930  1
  Se  Se146  1  0.91724184  0.25104260  0.54651830  1
  Se  Se147  1  0.91483028  0.57917504  0.05491896  1
  Se  Se148  1  0.92128376  0.59461116  0.56549080  1
  Se  Se149  1  0.91879764  0.91339654  0.05116048  1
  Se  Se150  1  0.91385288  0.91361268  0.55760168  1
  Se  Se151  1  0.07950588  0.25255882  0.43315128  1
  Se  Se152  1  0.07923252  0.25398848  0.95213103  1
  Se  Se153  1  0.07973412  0.58481106  0.44615055  1
  Se  Se154  1  0.08075799  0.58821012  0.93750520  1
  Se  Se155  1  0.08245452  0.91489070  0.44793557  1
  Se  Se156  1  0.08395222  0.91590714  0.94468545  1
  Se  Se157  1  0.42111855  0.24895577  0.43752986  1
  Se  Se158  1  0.40754442  0.25377741  0.93874998  1
  Se  Se159  1  0.41280192  0.59051410  0.45136764  1
  Se  Se160  1  0.41069649  0.59340553  0.94276402  1
  Se  Se161  1  0.41396498  0.92208325  0.43904257  1
  Se  Se162  1  0.42817158  0.91729880  0.95385343  1
  Se  Se163  1  0.75393252  0.24942297  0.44403246  1
  Se  Se164  1  0.74866099  0.24621654  0.95837735  1
  Se  Se165  1  0.74982688  0.59506709  0.43721995  1
  Se  Se166  1  0.75280394  0.57723832  0.94894180  1
  Se  Se167  1  0.75325936  0.91208842  0.44904064  1
  Se  Se168  1  0.75531010  0.91364190  0.94306608  1
  Se  Se169  1  0.25719757  0.07786710  0.44074487  1
  Se  Se170  1  0.23716295  0.09275807  0.94250464  1
  Se  Se171  1  0.25317180  0.41026957  0.44388891  1
  Se  Se172  1  0.24983244  0.41709954  0.94130962  1
  Se  Se173  1  0.25193326  0.75118714  0.45046441  1
  Se  Se174  1  0.25814642  0.74373885  0.95506429  1
  Se  Se175  1  0.59508189  0.07715077  0.44567173  1
  Se  Se176  1  0.58762702  0.07466485  0.93660598  1
  Se  Se177  1  0.58357797  0.41969206  0.44368795  1
  Se  Se178  1  0.59402211  0.40697806  0.94105980  1
  Se  Se179  1  0.58679781  0.74884244  0.43884685  1
  Se  Se180  1  0.59138282  0.74907304  0.94862935  1
  Se  Se181  1  0.91588049  0.08354318  0.45026023  1
  Se  Se182  1  0.91485804  0.08174814  0.94473705  1
  Se  Se183  1  0.92005626  0.41566578  0.43510309  1
  Se  Se184  1  0.91747559  0.42119956  0.95336832  1
  Se  Se185  1  0.90971459  0.75109941  0.44357545  1
  Se  Se186  1  0.91639204  0.74862322  0.94889200  1
  Se  Se187  1  0.24952267  0.24959238  0.29982219  1
  Se  Se188  1  0.24900317  0.25216481  0.80214238  1
  Se  Se189  1  0.24431001  0.57770185  0.31445107  1
  Se  Se190  1  0.24444046  0.58175179  0.80850992  1
  Se  Se191  1  0.25212085  0.91748616  0.29833296  1
  Se  Se192  1  0.25150883  0.91723564  0.81114765  1
  Se  Se193  1  0.58071726  0.24476662  0.29975784  1
  Se  Se194  1  0.57824478  0.24129919  0.81640781  1
  Se  Se195  1  0.58281561  0.58489779  0.30234366  1
  Se  Se196  1  0.57855781  0.58222730  0.80289673  1
  Se  Se197  1  0.57819673  0.91962465  0.30711964  1
  Se  Se198  1  0.58625632  0.91572694  0.80553859  1
  Se  Se199  1  0.91489246  0.24907378  0.29921391  1
  Se  Se200  1  0.91184754  0.24935765  0.81329526  1
  Se  Se201  1  0.91577896  0.58302348  0.29877081  1
  Se  Se202  1  0.91328407  0.58325819  0.81534479  1
  Se  Se203  1  0.90986235  0.90923951  0.30750494  1
  Se  Se204  1  0.91588227  0.91740262  0.79976088  1
  Se  Se205  1  0.09279171  0.08920726  0.31162246  1
  Se  Se206  1  0.07594065  0.08454233  0.80242784  1
  Se  Se207  1  0.07661383  0.41387676  0.30060326  1
  Se  Se208  1  0.09523188  0.42225930  0.80377091  1
  Se  Se209  1  0.08448866  0.75074907  0.30567888  1
  Se  Se210  1  0.08170455  0.75939082  0.81119237  1
  Se  Se211  1  0.41213078  0.07932182  0.29625955  1
  Se  Se212  1  0.41707636  0.08112755  0.80164933  1
  Se  Se213  1  0.41356639  0.41787161  0.30437316  1
  Se  Se214  1  0.41149898  0.41472458  0.79852117  1
  Se  Se215  1  0.42500714  0.75928552  0.30938464  1
  Se  Se216  1  0.41613518  0.76255389  0.82043939  1
  Se  Se217  1  0.75318790  0.08277535  0.30739256  1
  Se  Se218  1  0.75037678  0.08350280  0.80437083  1
  Se  Se219  1  0.74324586  0.41513455  0.30228300  1
  Se  Se220  1  0.75857029  0.41650004  0.81352477  1
  Se  Se221  1  0.73609513  0.74422562  0.29842352  1
  Se  Se222  1  0.74548725  0.74537018  0.80239775  1
  Se  Se223  1  0.24753355  0.08046583  0.19125363  1
  Se  Se224  1  0.25181312  0.07858146  0.70138092  1
  Se  Se225  1  0.25159532  0.41276344  0.20162415  1
  Se  Se226  1  0.25832967  0.41229421  0.69143252  1
  Se  Se227  1  0.25054858  0.75658942  0.18745485  1
  Se  Se228  1  0.23981526  0.75411196  0.69445957  1
  Se  Se229  1  0.57240658  0.09419532  0.17924565  1
  Se  Se230  1  0.56713089  0.10468724  0.70274367  1
  Se  Se231  1  0.58236395  0.41410842  0.19735708  1
  Se  Se232  1  0.58289808  0.42187234  0.68824482  1
  Se  Se233  1  0.58700253  0.75298330  0.19920089  1
  Se  Se234  1  0.57906896  0.74762772  0.69856351  1
  Se  Se235  1  0.90835366  0.08353052  0.18977550  1
  Se  Se236  1  0.92099847  0.08144930  0.69671682  1
  Se  Se237  1  0.91392848  0.41591930  0.19769587  1
  Se  Se238  1  0.91224493  0.43124232  0.69507367  1
  Se  Se239  1  0.92699792  0.74010961  0.19600150  1
  Se  Se240  1  0.90448616  0.76437559  0.69476656  1
  Se  Se241  1  0.07668778  0.24923138  0.19860507  1
  Se  Se242  1  0.09467224  0.24090601  0.68381857  1
  Se  Se243  1  0.08809145  0.58658901  0.19980657  1
  Se  Se244  1  0.09280005  0.58089618  0.68817627  1
  Se  Se245  1  0.08901956  0.91107089  0.18533267  1
  Se  Se246  1  0.08149062  0.92010220  0.69831021  1
  Se  Se247  1  0.40795137  0.25248983  0.19434768  1
  Se  Se248  1  0.42315676  0.25269458  0.70450794  1
  Se  Se249  1  0.42491554  0.57991839  0.18856454  1
  Se  Se250  1  0.42015108  0.57726369  0.68623193  1
  Se  Se251  1  0.41150515  0.91711370  0.19141417  1
  Se  Se252  1  0.41394111  0.91161042  0.70119101  1
  Se  Se253  1  0.74486364  0.25252721  0.19514901  1
  Se  Se254  1  0.76314960  0.24711840  0.69150113  1
  Se  Se255  1  0.74785452  0.58516040  0.19610093  1
  Se  Se256  1  0.74416959  0.58782823  0.70317017  1
  Se  Se257  1  0.76425296  0.90617294  0.19374663  1
  Se  Se258  1  0.72691071  0.94155119  0.69396717  1
