# generated using pymatgen
data_In86Cu29Se144
_symmetry_space_group_name_H-M   'P 1'
_cell_length_a   17.58157184
_cell_length_b   17.58057146
_cell_length_c   23.43451416
_cell_angle_alpha   90.01178947
_cell_angle_beta   90.01411183
_cell_angle_gamma   89.99330395
_symmetry_Int_Tables_number   1
_chemical_formula_structural   In86Cu29Se144
_chemical_formula_sum   'In86 Cu29 Se144'
_cell_volume   7243.46917550
_cell_formula_units_Z   1
loop_
 _symmetry_equiv_pos_site_id
 _symmetry_equiv_pos_as_xyz
  1  'x, y, z'
loop_
 _atom_site_type_symbol
 _atom_site_label
 _atom_site_symmetry_multiplicity
 _atom_site_fract_x
 _atom_site_fract_y
 _atom_site_fract_z
 _atom_site_occupancy
  In  In0  1  -0.00332025  0.17181333  0.12388766  1
  In  In1  1  -0.00095528  0.16353280  0.61095064  1
  In  In2  1  -0.01434000  0.50134857  0.13242508  1
  In  In3  1  -0.00111238  0.50597051  0.61505631  1
  In  In4  1  -0.00408946  0.82634470  0.11696549  1
  In  In5  1  -0.00849442  0.82665494  0.63243166  1
  In  In6  1  0.32590594  0.15241926  0.12536633  1
  In  In7  1  0.33481673  0.15880666  0.61089127  1
  In  In8  1  0.33424249  0.50761322  0.12877406  1
  In  In9  1  0.33791441  0.51217448  0.61916851  1
  In  In10  1  0.34338431  0.84475651  0.11741473  1
  In  In11  1  0.32450067  0.81978567  0.63135695  1
  In  In12  1  0.67249219  0.17542326  0.11852994  1
  In  In13  1  0.66763674  0.16570678  0.61865562  1
  In  In14  1  0.67578814  0.47996893  0.13002521  1
  In  In15  1  0.64934227  0.48786362  0.60802843  1
  In  In16  1  0.66779968  0.83436988  0.11403954  1
  In  In17  1  0.67016641  0.84980078  0.62924981  1
  In  In18  1  0.17779164  -0.00204999  0.37519797  1
  In  In19  1  0.16206964  0.00387008  0.88211557  1
  In  In20  1  0.16170138  0.34257922  0.37850637  1
  In  In21  1  0.15552040  0.32823920  0.88018634  1
  In  In22  1  0.15278525  0.66515852  0.37060682  1
  In  In23  1  0.17413105  0.68519129  0.85632162  1
  In  In24  1  0.49145314  0.00759896  0.38714337  1
  In  In25  1  0.50505971  -0.00309475  0.87569314  1
  In  In26  1  0.52452765  0.31959717  0.39722671  1
  In  In27  1  0.50222276  0.31884467  0.87299132  1
  In  In28  1  0.51982453  0.65710762  0.40019313  1
  In  In29  1  0.50066829  0.68110819  0.87029939  1
  In  In30  1  0.84134216  0.02546231  0.37489437  1
  In  In31  1  0.82203594  0.01346403  0.88064094  1
  In  In32  1  0.83855604  0.32706537  0.37060928  1
  In  In33  1  0.82838163  0.34018784  0.88054460  1
  In  In34  1  0.83327196  0.64450752  0.37714992  1
  In  In35  1  0.84247701  0.65769774  0.87825220  1
  In  In36  1  -0.01604818  0.18445373  0.38983673  1
  In  In37  1  -0.00495475  0.17835455  0.89498750  1
  In  In38  1  0.00222865  0.49742042  0.37094574  1
  In  In39  1  -0.01339971  0.50457733  0.87551448  1
  In  In40  1  0.01140483  0.83184562  0.36615559  1
  In  In41  1  0.00770608  0.82568090  0.88142020  1
  In  In42  1  0.33828543  0.15175442  0.38278079  1
  In  In43  1  0.33430683  0.16351192  0.88118762  1
  In  In44  1  0.33856848  0.49860015  0.38301925  1
  In  In45  1  0.32244626  0.50687841  0.87001615  1
  In  In46  1  0.34380589  0.84576531  0.37219226  1
  In  In47  1  0.33326632  0.83682328  0.87354037  1
  In  In48  1  0.67048834  0.17646529  0.37696989  1
  In  In49  1  0.66545600  0.16879847  0.87132930  1
  In  In50  1  0.70438725  0.46430558  0.42633832  1
  In  In51  1  0.68240769  0.49944574  0.87254690  1
  In  In52  1  0.66420928  0.81919062  0.38265516  1
  In  In53  1  0.65346151  0.84284639  0.88124500  1
  In  In54  1  0.17546089  0.00842480  0.12263429  1
  In  In55  1  0.16068698  0.00331341  0.62023604  1
  In  In56  1  0.15841158  0.31406252  0.12254418  1
  In  In57  1  0.16043271  0.32974847  0.61661012  1
  In  In58  1  0.15259170  0.66193028  0.12255871  1
  In  In59  1  0.17130532  0.66502834  0.63383014  1
  In  In60  1  0.49519455  -0.00578230  0.12398623  1
  In  In61  1  0.50729754  0.01443659  0.61268580  1
  In  In62  1  0.52094655  0.32850781  0.13131302  1
  In  In63  1  0.51143021  0.33340251  0.61182493  1
  In  In64  1  0.49334529  0.67263168  0.12280293  1
  In  In65  1  0.49295805  0.65822420  0.61854638  1
  In  In66  1  0.83589158  0.00197337  0.11648545  1
  In  In67  1  0.82597537  -0.00550676  0.62554393  1
  In  In68  1  0.83098635  0.32766107  0.12402569  1
  In  In69  1  0.81738794  0.32434275  0.60975031  1
  In  In70  1  0.84015636  0.66989304  0.11778169  1
  In  In71  1  0.84074622  0.66256676  0.62446099  1
  In  In72  1  0.16115342  0.49636020  0.00030158  1
  In  In73  1  0.33583208  -0.00206471  0.75084844  1
  In  In74  1  0.33887104  0.33723620  0.74090636  1
  In  In75  1  0.33092663  0.32992439  0.25250324  1
  In  In76  1  -0.00128755  -0.00250781  0.75134742  1
  In  In77  1  -0.00643118  0.33848971  0.75471409  1
  In  In78  1  0.66684520  0.66113180  0.25810512  1
  In  In79  1  0.17141107  0.83527364  0.50017744  1
  In  In80  1  0.83490791  0.83627542  0.50323651  1
  In  In81  1  0.50502839  0.50162781  0.00791168  1
  In  In82  1  0.67028881  0.66522417  0.74790009  1
  In  In83  1  0.66316729  0.00267714  0.25720541  1
  In  In84  1  0.33249914  0.66946563  0.25459570  1
  In  In85  1  0.00311181  0.00536440  0.24531090  1
  Cu  Cu86  1  0.49952826  0.83723321  0.75153123  1
  Cu  Cu87  1  -0.00091501  0.66326110  0.49659745  1
  Cu  Cu88  1  0.33549339  0.67690955  -0.00648065  1
  Cu  Cu89  1  0.50217410  0.49801883  0.73995495  1
  Cu  Cu90  1  0.66921715  0.33061459  0.00074377  1
  Cu  Cu91  1  0.33292966  0.00053070  -0.00152228  1
  Cu  Cu92  1  0.83825161  0.83395176  0.24281805  1
  Cu  Cu93  1  0.00111092  0.34063205  0.49695795  1
  Cu  Cu94  1  0.32509485  0.66883596  0.50382275  1
  Cu  Cu95  1  0.83241193  0.83228631  0.75489235  1
  Cu  Cu96  1  0.16377036  0.17030941  0.75282670  1
  Cu  Cu97  1  0.15578321  0.49357775  0.24786913  1
  Cu  Cu98  1  0.83169480  0.49358957  0.25845842  1
  Cu  Cu99  1  0.67410954  0.00467383  0.49931135  1
  Cu  Cu100  1  0.50175410  0.16617690  0.25949800  1
  Cu  Cu101  1  0.51353400  0.16871834  0.74322559  1
  Cu  Cu102  1  0.50768446  0.49292404  0.26193922  1
  Cu  Cu103  1  0.32919423  0.33405193  0.49929204  1
  Cu  Cu104  1  0.16383320  0.16321561  0.25067260  1
  Cu  Cu105  1  0.66059184  0.00503294  -0.00134415  1
  Cu  Cu106  1  -0.00327314  -0.00485204  0.00254392  1
  Cu  Cu107  1  0.82406939  0.16876248  0.74769043  1
  Cu  Cu108  1  0.17047642  0.82904374  0.24831212  1
  Cu  Cu109  1  0.16361908  0.51179847  0.74348751  1
  Cu  Cu110  1  0.82939159  0.49085636  0.74689131  1
  Cu  Cu111  1  0.00334317  0.66730189  -0.00208555  1
  Cu  Cu112  1  0.49661053  0.83431326  0.25012126  1
  Cu  Cu113  1  0.33971456  0.32533754  0.00375995  1
  Cu  Cu114  1  0.67277342  0.66476379  -0.00472874  1
  Se  Se115  1  0.07670251  0.07896931  0.05979748  1
  Se  Se116  1  0.09331904  0.08946029  0.54880297  1
  Se  Se117  1  0.07411121  0.41158218  0.06343237  1
  Se  Se118  1  0.08559718  0.42197420  0.55083846  1
  Se  Se119  1  0.08859085  0.75098306  0.04914453  1
  Se  Se120  1  0.07588984  0.74529082  0.55829741  1
  Se  Se121  1  0.41649960  0.08142229  0.05523221  1
  Se  Se122  1  0.41803063  0.08234686  0.54203519  1
  Se  Se123  1  0.41242994  0.40873231  0.06620171  1
  Se  Se124  1  0.41127447  0.41496866  0.55656464  1
  Se  Se125  1  0.42136920  0.75468223  0.04948359  1
  Se  Se126  1  0.40879634  0.75015278  0.55759257  1
  Se  Se127  1  0.74783028  0.08403218  0.05211451  1
  Se  Se128  1  0.75991028  0.08385945  0.55348748  1
  Se  Se129  1  0.75400830  0.41632657  0.05073942  1
  Se  Se130  1  0.75411683  0.42625859  0.54412678  1
  Se  Se131  1  0.75376212  0.75028915  0.05029623  1
  Se  Se132  1  0.74493947  0.74944744  0.56404568  1
  Se  Se133  1  0.25352478  0.24501760  0.05660151  1
  Se  Se134  1  0.24749489  0.24855036  0.55166763  1
  Se  Se135  1  0.25949701  0.59212772  0.05396651  1
  Se  Se136  1  0.24015308  0.58573147  0.55552069  1
  Se  Se137  1  0.24846899  0.91787594  0.05260261  1
  Se  Se138  1  0.26134930  0.92262782  0.56135608  1
  Se  Se139  1  0.57940610  0.24928185  0.04959232  1
  Se  Se140  1  0.58388890  0.24164675  0.54652498  1
  Se  Se141  1  0.59873425  0.59068892  0.06638039  1
  Se  Se142  1  0.58786482  0.59552516  0.55027788  1
  Se  Se143  1  0.57950344  0.91789253  0.05193025  1
  Se  Se144  1  0.59146725  0.92080652  0.55246835  1
  Se  Se145  1  0.90891205  0.24372985  0.05385491  1
  Se  Se146  1  0.91775033  0.25344483  0.54802542  1
  Se  Se147  1  0.92170440  0.58175870  0.05170600  1
  Se  Se148  1  0.90921114  0.58280682  0.54615266  1
  Se  Se149  1  0.91065439  0.90955851  0.05084702  1
  Se  Se150  1  0.93088340  0.92449077  0.56018249  1
  Se  Se151  1  0.08817438  0.25379215  0.44887225  1
  Se  Se152  1  0.09770554  0.24317519  0.95652066  1
  Se  Se153  1  0.08370631  0.58054924  0.44369927  1
  Se  Se154  1  0.08528661  0.59101777  0.93461870  1
  Se  Se155  1  0.07625780  0.92068491  0.44105350  1
  Se  Se156  1  0.08347936  0.91594847  0.94874055  1
  Se  Se157  1  0.41155089  0.25023742  0.44568314  1
  Se  Se158  1  0.42157008  0.24577079  0.94703241  1
  Se  Se159  1  0.41221491  0.58495528  0.45370223  1
  Se  Se160  1  0.41434635  0.58636368  0.94037448  1
  Se  Se161  1  0.42325780  0.90803307  0.45064730  1
  Se  Se162  1  0.41568181  0.91874048  0.94214826  1
  Se  Se163  1  0.75418008  0.25529377  0.44526358  1
  Se  Se164  1  0.74900546  0.24741577  0.94331400  1
  Se  Se165  1  0.72343733  0.61092061  0.44270631  1
  Se  Se166  1  0.75632110  0.57707318  0.94764795  1
  Se  Se167  1  0.75124035  0.92576274  0.43507211  1
  Se  Se168  1  0.74493599  0.92037112  0.94635687  1
  Se  Se169  1  0.24946786  0.07615923  0.45041445  1
  Se  Se170  1  0.24740266  0.08607423  0.94853374  1
  Se  Se171  1  0.24751960  0.42095175  0.44782433  1
  Se  Se172  1  0.26171615  0.40791154  0.94344202  1
  Se  Se173  1  0.25453497  0.74421418  0.43357569  1
  Se  Se174  1  0.24688086  0.75185087  0.93926130  1
  Se  Se175  1  0.59130390  0.08607929  0.44326566  1
  Se  Se176  1  0.58065498  0.08833242  0.94169809  1
  Se  Se177  1  0.56374126  0.43657993  0.45512729  1
  Se  Se178  1  0.58805118  0.41387665  0.94062881  1
  Se  Se179  1  0.57203124  0.77027633  0.45845803  1
  Se  Se180  1  0.58231867  0.74633893  0.94780958  1
  Se  Se181  1  0.92538745  0.07880489  0.45352406  1
  Se  Se182  1  0.91352688  0.08205889  0.95166691  1
  Se  Se183  1  0.91730127  0.41811631  0.43974681  1
  Se  Se184  1  0.93951264  0.39697034  0.93907333  1
  Se  Se185  1  0.92275491  0.74819929  0.43673003  1
  Se  Se186  1  0.91491399  0.74903352  0.94688653  1
  Se  Se187  1  0.24412926  0.24076190  0.31411445  1
  Se  Se188  1  0.24878950  0.25068630  0.80800339  1
  Se  Se189  1  0.24292594  0.56999056  0.30652816  1
  Se  Se190  1  0.25393631  0.58898398  0.79545243  1
  Se  Se191  1  0.25098013  0.91287756  0.30192801  1
  Se  Se192  1  0.23599545  0.91665082  0.80709814  1
  Se  Se193  1  0.58270693  0.25439186  0.30769674  1
  Se  Se194  1  0.58949429  0.25600317  0.79834851  1
  Se  Se195  1  0.58488192  0.57328266  0.32154232  1
  Se  Se196  1  0.57730024  0.57508253  0.80867466  1
  Se  Se197  1  0.57772354  0.90774236  0.31446900  1
  Se  Se198  1  0.58532292  0.92029468  0.80138871  1
  Se  Se199  1  0.92318199  0.24556377  0.30254429  1
  Se  Se200  1  0.90967237  0.23938990  0.81057528  1
  Se  Se201  1  0.91994256  0.58301788  0.30137268  1
  Se  Se202  1  0.91010988  0.57842010  0.79866649  1
  Se  Se203  1  0.90931318  0.91648473  0.30793006  1
  Se  Se204  1  0.90896667  0.91516736  0.81635797  1
  Se  Se205  1  0.08438236  0.08794574  0.31538134  1
  Se  Se206  1  0.07964067  0.09616821  0.81318194  1
  Se  Se207  1  0.07761162  0.40713814  0.30107286  1
  Se  Se208  1  0.09303307  0.42820250  0.80802380  1
  Se  Se209  1  0.08182359  0.74504580  0.29381073  1
  Se  Se210  1  0.06377312  0.74436697  0.80001120  1
  Se  Se211  1  0.41794313  0.07861882  0.30631695  1
  Se  Se212  1  0.42648012  0.09565886  0.80438804  1
  Se  Se213  1  0.42300672  0.41160825  0.31599511  1
  Se  Se214  1  0.42436710  0.42430789  0.80888949  1
  Se  Se215  1  0.43159690  0.74573120  0.31441111  1
  Se  Se216  1  0.41294310  0.75432257  0.80093327  1
  Se  Se217  1  0.75867125  0.10067351  0.30077201  1
  Se  Se218  1  0.74505939  0.08203390  0.80130565  1
  Se  Se219  1  0.74567127  0.42597268  0.32200461  1
  Se  Se220  1  0.74834450  0.40827795  0.80119060  1
  Se  Se221  1  0.76259899  0.75672584  0.30963495  1
  Se  Se222  1  0.75093838  0.75319439  0.81592702  1
  Se  Se223  1  0.25080459  0.07826165  0.20306184  1
  Se  Se224  1  0.24488389  0.09226566  0.69265592  1
  Se  Se225  1  0.24118034  0.41964798  0.18781863  1
  Se  Se226  1  0.23958495  0.42351066  0.68672711  1
  Se  Se227  1  0.24909044  0.75143100  0.18416786  1
  Se  Se228  1  0.23960135  0.75456807  0.70470311  1
  Se  Se229  1  0.57762795  0.08908722  0.19132602  1
  Se  Se230  1  0.58992037  0.07933834  0.69061437  1
  Se  Se231  1  0.58995819  0.41348764  0.20537274  1
  Se  Se232  1  0.58339301  0.41202377  0.68996781  1
  Se  Se233  1  0.58172846  0.75597516  0.19266527  1
  Se  Se234  1  0.57820478  0.75531291  0.68956581  1
  Se  Se235  1  0.90288387  0.09035616  0.19245066  1
  Se  Se236  1  0.91246666  0.09229676  0.69071500  1
  Se  Se237  1  0.90924314  0.41129255  0.19845971  1
  Se  Se238  1  0.90895752  0.41551303  0.68242308  1
  Se  Se239  1  0.91918782  0.74771158  0.19217059  1
  Se  Se240  1  0.90988035  0.74544872  0.70130744  1
  Se  Se241  1  0.07902383  0.24592833  0.19984028  1
  Se  Se242  1  0.08068920  0.24575853  0.69247745  1
  Se  Se243  1  0.07812700  0.58282330  0.19599256  1
  Se  Se244  1  0.07102412  0.58574770  0.69168899  1
  Se  Se245  1  0.08944615  0.90908139  0.18719583  1
  Se  Se246  1  0.09160637  0.90980097  0.69258279  1
  Se  Se247  1  0.42265253  0.24185575  0.19212577  1
  Se  Se248  1  0.42322644  0.23997630  0.68412109  1
  Se  Se249  1  0.43231291  0.57514764  0.19980831  1
  Se  Se250  1  0.41556492  0.58572358  0.69653653  1
  Se  Se251  1  0.41356946  0.91770503  0.19838331  1
  Se  Se252  1  0.42491049  0.91563981  0.68508839  1
  Se  Se253  1  0.72830563  0.26879000  0.19141985  1
  Se  Se254  1  0.74594571  0.25233297  0.69063123  1
  Se  Se255  1  0.75831843  0.57766866  0.19326176  1
  Se  Se256  1  0.74863065  0.56965650  0.68491219  1
  Se  Se257  1  0.75129761  0.91373860  0.19035194  1
  Se  Se258  1  0.75278115  0.92055589  0.70424248  1
