# generated using pymatgen
data_In86Cu29Se144
_symmetry_space_group_name_H-M   'P 1'
_cell_length_a   17.58305313
_cell_length_b   17.58627971
_cell_length_c   23.43790941
_cell_angle_alpha   89.98227851
_cell_angle_beta   89.99345253
_cell_angle_gamma   89.98445531
_symmetry_Int_Tables_number   1
_chemical_formula_structural   In86Cu29Se144
_chemical_formula_sum   'In86 Cu29 Se144'
_cell_volume   7247.48118507
_cell_formula_units_Z   1
loop_
 _symmetry_equiv_pos_site_id
 _symmetry_equiv_pos_as_xyz
  1  'x, y, z'
loop_
 _atom_site_type_symbol
 _atom_site_label
 _atom_site_symmetry_multiplicity
 _atom_site_fract_x
 _atom_site_fract_y
 _atom_site_fract_z
 _atom_site_occupancy
  In  In0  1  -0.00863259  0.19435851  0.11919695  1
  In  In1  1  -0.01688010  0.16919211  0.62293134  1
  In  In2  1  -0.00313114  0.49634253  0.11642088  1
  In  In3  1  -0.00213622  0.49855211  0.63067782  1
  In  In4  1  0.00373807  0.81315656  0.13738192  1
  In  In5  1  0.00896777  0.84142297  0.61588934  1
  In  In6  1  0.34215925  0.16450717  0.13225465  1
  In  In7  1  0.32256149  0.16268740  0.62677126  1
  In  In8  1  0.33176432  0.50552248  0.12592896  1
  In  In9  1  0.34568732  0.49552820  0.62481067  1
  In  In10  1  0.32122697  0.83532696  0.13566451  1
  In  In11  1  0.32651371  0.83692853  0.62872176  1
  In  In12  1  0.68079156  0.16017156  0.12366646  1
  In  In13  1  0.66652061  0.15224185  0.62626315  1
  In  In14  1  0.66828394  0.49551642  0.12031799  1
  In  In15  1  0.66335864  0.51750469  0.62711103  1
  In  In16  1  0.67247814  0.83865548  0.13966231  1
  In  In17  1  0.67076964  0.82800700  0.62808220  1
  In  In18  1  0.16590927  -0.01605975  0.37201484  1
  In  In19  1  0.15718584  -0.00840295  0.87196549  1
  In  In20  1  0.17004769  0.34173103  0.36103792  1
  In  In21  1  0.16819097  0.34148024  0.88277362  1
  In  In22  1  0.16809785  0.68199114  0.35927989  1
  In  In23  1  0.18135762  0.65371856  0.88245030  1
  In  In24  1  0.50069522  -0.00048375  0.36723066  1
  In  In25  1  0.49926906  -0.00452939  0.86733312  1
  In  In26  1  0.51444564  0.35126601  0.36465675  1
  In  In27  1  0.50701618  0.34805676  0.88679923  1
  In  In28  1  0.50005971  0.66601865  0.37146327  1
  In  In29  1  0.49552897  0.66136019  0.87293385  1
  In  In30  1  0.82689010  0.01150521  0.38115414  1
  In  In31  1  0.83445243  -0.00304698  0.87081333  1
  In  In32  1  0.82807208  0.32922246  0.36525714  1
  In  In33  1  0.81968587  0.34349905  0.91056756  1
  In  In34  1  0.84773219  0.68327537  0.35391165  1
  In  In35  1  0.82378346  0.66564286  0.87425164  1
  In  In36  1  -0.01424019  0.16329226  0.37197955  1
  In  In37  1  -0.00415758  0.15772831  0.87592593  1
  In  In38  1  0.00057199  0.50348650  0.36142419  1
  In  In39  1  -0.00120028  0.49575202  0.88605686  1
  In  In40  1  0.00556652  0.82774340  0.38042661  1
  In  In41  1  0.00091636  0.84769830  0.87644839  1
  In  In42  1  0.33343608  0.16657667  0.36417791  1
  In  In43  1  0.33944006  0.15999544  0.87411229  1
  In  In44  1  0.34207028  0.51475800  0.36592594  1
  In  In45  1  0.32573619  0.51554452  0.88500032  1
  In  In46  1  0.32169193  0.82605165  0.36423164  1
  In  In47  1  0.32678794  0.82053371  0.87088104  1
  In  In48  1  0.67252003  0.17593205  0.36674264  1
  In  In49  1  0.67819385  0.16049438  0.87930060  1
  In  In50  1  0.66896575  0.50144573  0.36852247  1
  In  In51  1  0.66044395  0.50284950  0.88934985  1
  In  In52  1  0.68774609  0.85070293  0.35451707  1
  In  In53  1  0.66872404  0.82887172  0.86648322  1
  In  In54  1  0.17522991  -0.00196389  0.12502842  1
  In  In55  1  0.17485524  -0.01203768  0.63142779  1
  In  In56  1  0.15228632  0.35039178  0.12984731  1
  In  In57  1  0.17303900  0.33429960  0.62441665  1
  In  In58  1  0.16863737  0.66690448  0.12699674  1
  In  In59  1  0.15878949  0.68049015  0.62714456  1
  In  In60  1  0.50676187  -0.00172848  0.13066037  1
  In  In61  1  0.50077947  -0.00414911  0.63361042  1
  In  In62  1  0.49101949  0.34124086  0.12971658  1
  In  In63  1  0.49514198  0.34514087  0.62079996  1
  In  In64  1  0.50980116  0.65478557  0.13297343  1
  In  In65  1  0.50690252  0.66091894  0.62664875  1
  In  In66  1  0.82022428  -0.00144128  0.12477341  1
  In  In67  1  0.83519598  -0.00108119  0.62426954  1
  In  In68  1  0.83027920  0.33371160  0.11562634  1
  In  In69  1  0.84246733  0.32910676  0.62363659  1
  In  In70  1  0.84393441  0.66153785  0.13836359  1
  In  In71  1  0.81663397  0.66677165  0.62729547  1
  In  In72  1  -0.00429759  0.32828651  0.76109857  1
  In  In73  1  0.82932404  0.50363761  0.50180493  1
  In  In74  1  0.50114857  0.82943077  0.01240511  1
  In  In75  1  0.50154972  0.16818791  0.50035486  1
  In  In76  1  0.66937003  0.33091027  0.76791046  1
  In  In77  1  0.83826746  0.82985126  0.00507673  1
  In  In78  1  0.16463206  0.50672521  0.50134410  1
  In  In79  1  0.00142142  0.66723013  0.75371007  1
  In  In80  1  0.50482852  0.16847964  -0.00445776  1
  In  In81  1  0.16407575  0.17002144  0.00391218  1
  In  In82  1  0.33288399  0.33013052  0.75203898  1
  In  In83  1  0.50244084  0.82820322  0.49520000  1
  In  In84  1  0.00141774  0.00032430  0.24906465  1
  In  In85  1  0.16117067  0.16465476  0.50115777  1
  Cu  Cu86  1  -0.00206059  0.67331164  0.49490689  1
  Cu  Cu87  1  -0.00239784  -0.00093389  0.00035162  1
  Cu  Cu88  1  0.49740457  0.49834891  0.24762846  1
  Cu  Cu89  1  0.50703593  0.17130034  0.24670245  1
  Cu  Cu90  1  0.49981656  0.82760585  0.74848810  1
  Cu  Cu91  1  0.33172780  0.66952519  0.49140581  1
  Cu  Cu92  1  0.67516658  -0.00047431  0.49861670  1
  Cu  Cu93  1  0.00546718  0.66731529  0.00655226  1
  Cu  Cu94  1  0.50380066  0.50353461  0.75438488  1
  Cu  Cu95  1  -0.00656305  0.32898184  0.49317308  1
  Cu  Cu96  1  0.16132171  0.49969653  0.24102616  1
  Cu  Cu97  1  0.83436387  0.17225749  0.24657322  1
  Cu  Cu98  1  0.34531795  0.34223262  0.49075702  1
  Cu  Cu99  1  0.32686878  -0.00849316  0.50114908  1
  Cu  Cu100  1  0.49972131  0.15790212  0.75237472  1
  Cu  Cu101  1  0.83070847  0.49439240  0.24069152  1
  Cu  Cu102  1  0.32869681  0.34264976  0.00951598  1
  Cu  Cu103  1  0.33276693  -0.01017084  0.00113410  1
  Cu  Cu104  1  0.16905739  0.83269650  0.75131398  1
  Cu  Cu105  1  0.66736815  0.66567389  0.00472153  1
  Cu  Cu106  1  0.66983733  0.33516302  0.49043202  1
  Cu  Cu107  1  0.33299680  0.66407059  0.00213778  1
  Cu  Cu108  1  0.66780845  0.66863454  0.49697876  1
  Cu  Cu109  1  0.83499115  0.83491503  0.74731839  1
  Cu  Cu110  1  -0.00463989  -0.00296688  0.49773011  1
  Cu  Cu111  1  0.15906803  0.15691424  0.75037296  1
  Cu  Cu112  1  0.16986383  0.16903717  0.24208449  1
  Cu  Cu113  1  0.83276288  0.16169213  0.75248541  1
  Cu  Cu114  1  0.49519167  0.83207621  0.24954773  1
  Se  Se115  1  0.07349113  0.08024911  0.06428569  1
  Se  Se116  1  0.07538110  0.07441918  0.56287883  1
  Se  Se117  1  0.08090325  0.41356053  0.04771891  1
  Se  Se118  1  0.07215830  0.40625170  0.55616784  1
  Se  Se119  1  0.08617136  0.75357863  0.05732300  1
  Se  Se120  1  0.08632315  0.75168083  0.54795635  1
  Se  Se121  1  0.41374568  0.07422726  0.05589872  1
  Se  Se122  1  0.40870789  0.07392751  0.55816262  1
  Se  Se123  1  0.41832202  0.42479390  0.05597402  1
  Se  Se124  1  0.42411418  0.42624245  0.54588093  1
  Se  Se125  1  0.40872971  0.74002144  0.06829456  1
  Se  Se126  1  0.41076666  0.74452431  0.55835606  1
  Se  Se127  1  0.75031767  0.07681663  0.04883847  1
  Se  Se128  1  0.75382026  0.08520278  0.55372034  1
  Se  Se129  1  0.75676991  0.42686920  0.04837810  1
  Se  Se130  1  0.74092925  0.41094410  0.56227926  1
  Se  Se131  1  0.74511735  0.74503373  0.06592951  1
  Se  Se132  1  0.74894981  0.75146607  0.55234653  1
  Se  Se133  1  0.25491958  0.25489212  0.06647775  1
  Se  Se134  1  0.26405430  0.26108812  0.55023137  1
  Se  Se135  1  0.24617819  0.58214684  0.05452873  1
  Se  Se136  1  0.25768989  0.59273601  0.56093396  1
  Se  Se137  1  0.24885672  0.90998389  0.05485664  1
  Se  Se138  1  0.24398048  0.90882704  0.55305480  1
  Se  Se139  1  0.58236922  0.25130534  0.06616051  1
  Se  Se140  1  0.59352605  0.25899414  0.55951060  1
  Se  Se141  1  0.58078867  0.58127766  0.05366548  1
  Se  Se142  1  0.58381257  0.58559799  0.54938520  1
  Se  Se143  1  0.59868611  0.92192697  0.06005373  1
  Se  Se144  1  0.58726961  0.92391897  0.55664189  1
  Se  Se145  1  0.89799248  0.24008769  0.04377529  1
  Se  Se146  1  0.90979866  0.24769939  0.54661146  1
  Se  Se147  1  0.91279442  0.59094673  0.05583934  1
  Se  Se148  1  0.92526005  0.59279146  0.56028745  1
  Se  Se149  1  0.92766555  0.91769813  0.06738579  1
  Se  Se150  1  0.91193246  0.91372510  0.55211048  1
  Se  Se151  1  0.08229705  0.25753250  0.43493071  1
  Se  Se152  1  0.07307396  0.25550598  0.94233787  1
  Se  Se153  1  0.07685450  0.59085385  0.43611656  1
  Se  Se154  1  0.08444768  0.58444584  0.94817943  1
  Se  Se155  1  0.08443437  0.91613037  0.44844730  1
  Se  Se156  1  0.08571195  0.91662465  0.95154265  1
  Se  Se157  1  0.41940711  0.25579660  0.43297337  1
  Se  Se158  1  0.40271945  0.26133577  0.94422472  1
  Se  Se159  1  0.41887960  0.58581842  0.44437141  1
  Se  Se160  1  0.42335402  0.58429285  0.95102043  1
  Se  Se161  1  0.41089548  0.91994767  0.43814766  1
  Se  Se162  1  0.41534647  0.91281723  0.94180616  1
  Se  Se163  1  0.75342566  0.25031725  0.44184634  1
  Se  Se164  1  0.73235931  0.24562341  0.95759859  1
  Se  Se165  1  0.75276844  0.59429512  0.43509757  1
  Se  Se166  1  0.75412394  0.58621255  0.95090863  1
  Se  Se167  1  0.75167939  0.91249697  0.44357324  1
  Se  Se168  1  0.74689094  0.91246274  0.94095949  1
  Se  Se169  1  0.25572072  0.08017629  0.44080710  1
  Se  Se170  1  0.25423268  0.07678175  0.94417246  1
  Se  Se171  1  0.25370485  0.41841249  0.43804723  1
  Se  Se172  1  0.24877760  0.42321140  0.95101917  1
  Se  Se173  1  0.24520932  0.74952262  0.44013255  1
  Se  Se174  1  0.25068142  0.75054545  0.95000221  1
  Se  Se175  1  0.59088168  0.07836546  0.43984328  1
  Se  Se176  1  0.58746048  0.06688149  0.94158180  1
  Se  Se177  1  0.58793663  0.42396258  0.44387855  1
  Se  Se178  1  0.59582749  0.40797853  0.95936142  1
  Se  Se179  1  0.59756969  0.75206156  0.43197887  1
  Se  Se180  1  0.58878670  0.74626731  0.94376113  1
  Se  Se181  1  0.91536105  0.08834616  0.45052276  1
  Se  Se182  1  0.91291609  0.07628901  0.94486805  1
  Se  Se183  1  0.91964576  0.41840423  0.43675245  1
  Se  Se184  1  0.92776055  0.41448810  0.96072212  1
  Se  Se185  1  0.90801149  0.74942970  0.44243845  1
  Se  Se186  1  0.92676209  0.74258597  0.93974024  1
  Se  Se187  1  0.25214336  0.25250329  0.29780004  1
  Se  Se188  1  0.23712529  0.23967090  0.81106903  1
  Se  Se189  1  0.24129355  0.57979147  0.30124034  1
  Se  Se190  1  0.25823071  0.58577837  0.80396524  1
  Se  Se191  1  0.26152311  0.93002704  0.30073066  1
  Se  Se192  1  0.25101587  0.91654106  0.80668572  1
  Se  Se193  1  0.58869069  0.25740680  0.29947686  1
  Se  Se194  1  0.56833865  0.24005763  0.81820196  1
  Se  Se195  1  0.58016385  0.58142076  0.30222418  1
  Se  Se196  1  0.58953339  0.58088663  0.81058683  1
  Se  Se197  1  0.58198089  0.91972256  0.29706377  1
  Se  Se198  1  0.58313634  0.91207373  0.80079695  1
  Se  Se199  1  0.92101001  0.25297143  0.29928228  1
  Se  Se200  1  0.89787089  0.24676547  0.81856142  1
  Se  Se201  1  0.91500121  0.58013616  0.29257921  1
  Se  Se202  1  0.91357372  0.57469301  0.81180766  1
  Se  Se203  1  0.91562591  0.92085175  0.31737811  1
  Se  Se204  1  0.91893721  0.91695462  0.80082322  1
  Se  Se205  1  0.09311934  0.09267798  0.30988740  1
  Se  Se206  1  0.07497597  0.07682042  0.80442426  1
  Se  Se207  1  0.07786304  0.41445397  0.29455460  1
  Se  Se208  1  0.09076575  0.42491918  0.80854496  1
  Se  Se209  1  0.06343977  0.74583867  0.29984580  1
  Se  Se210  1  0.09099994  0.75478659  0.81527151  1
  Se  Se211  1  0.42235332  0.08666826  0.29954631  1
  Se  Se212  1  0.41016674  0.07625489  0.80105422  1
  Se  Se213  1  0.41145403  0.41585972  0.30149056  1
  Se  Se214  1  0.42102238  0.42199701  0.81221820  1
  Se  Se215  1  0.41480244  0.74614320  0.30271565  1
  Se  Se216  1  0.41693410  0.74518540  0.80325244  1
  Se  Se217  1  0.75396712  0.08682219  0.30215387  1
  Se  Se218  1  0.74632155  0.07794897  0.80283008  1
  Se  Se219  1  0.74769614  0.41565128  0.29934644  1
  Se  Se220  1  0.76038258  0.42140751  0.82305201  1
  Se  Se221  1  0.72910846  0.73032622  0.30059112  1
  Se  Se222  1  0.75356911  0.74769651  0.79868576  1
  Se  Se223  1  0.25326740  0.08112719  0.19546143  1
  Se  Se224  1  0.25021297  0.07979053  0.69888345  1
  Se  Se225  1  0.25223751  0.41658851  0.19436909  1
  Se  Se226  1  0.24459263  0.42518171  0.69449053  1
  Se  Se227  1  0.25110051  0.74081144  0.20094117  1
  Se  Se228  1  0.25008803  0.74777723  0.69775721  1
  Se  Se229  1  0.58961264  0.08617259  0.19410405  1
  Se  Se230  1  0.58643014  0.07812740  0.70004406  1
  Se  Se231  1  0.58417536  0.41880448  0.19398833  1
  Se  Se232  1  0.58212209  0.41627962  0.69751648  1
  Se  Se233  1  0.58223782  0.75100316  0.19794337  1
  Se  Se234  1  0.58596535  0.74594578  0.69524374  1
  Se  Se235  1  0.91557052  0.09192277  0.18645983  1
  Se  Se236  1  0.91685472  0.08250425  0.69637461  1
  Se  Se237  1  0.91554169  0.41261859  0.18701866  1
  Se  Se238  1  0.90600701  0.42136916  0.69844475  1
  Se  Se239  1  0.89525165  0.76985069  0.20258796  1
  Se  Se240  1  0.91629937  0.75437360  0.68700367  1
  Se  Se241  1  0.08158095  0.25222747  0.19508662  1
  Se  Se242  1  0.08724788  0.24434637  0.69014153  1
  Se  Se243  1  0.07649053  0.58099860  0.18775917  1
  Se  Se244  1  0.09324505  0.57515800  0.69410327  1
  Se  Se245  1  0.09491593  0.90869085  0.19552506  1
  Se  Se246  1  0.08169314  0.91225902  0.69691626  1
  Se  Se247  1  0.41627478  0.25363315  0.20039136  1
  Se  Se248  1  0.42662170  0.24152142  0.68919110  1
  Se  Se249  1  0.41263111  0.58529645  0.19872158  1
  Se  Se250  1  0.42068868  0.58055319  0.69556680  1
  Se  Se251  1  0.41658677  0.91839281  0.19475990  1
  Se  Se252  1  0.41462321  0.91299372  0.69755039  1
  Se  Se253  1  0.75124294  0.25394157  0.19167506  1
  Se  Se254  1  0.75256630  0.24625696  0.69416860  1
  Se  Se255  1  0.74403439  0.58063707  0.19367350  1
  Se  Se256  1  0.75548152  0.57564745  0.69898629  1
  Se  Se257  1  0.75791582  0.92079912  0.20488494  1
  Se  Se258  1  0.75022332  0.91782953  0.69334939  1
