# generated using pymatgen
data_In86Cu29Se144
_symmetry_space_group_name_H-M   'P 1'
_cell_length_a   17.56649609
_cell_length_b   17.56875740
_cell_length_c   23.42497262
_cell_angle_alpha   89.99181877
_cell_angle_beta   90.00987455
_cell_angle_gamma   89.99881547
_symmetry_Int_Tables_number   1
_chemical_formula_structural   In86Cu29Se144
_chemical_formula_sum   'In86 Cu29 Se144'
_cell_volume   7229.45019434
_cell_formula_units_Z   1
loop_
 _symmetry_equiv_pos_site_id
 _symmetry_equiv_pos_as_xyz
  1  'x, y, z'
loop_
 _atom_site_type_symbol
 _atom_site_label
 _atom_site_symmetry_multiplicity
 _atom_site_fract_x
 _atom_site_fract_y
 _atom_site_fract_z
 _atom_site_occupancy
  In  In0  1  -0.02624426  0.16865368  0.12290593  1
  In  In1  1  -0.00192609  0.16069411  0.62330240  1
  In  In2  1  0.00594673  0.48772870  0.10594209  1
  In  In3  1  0.00624104  0.48995746  0.63050411  1
  In  In4  1  -0.00540884  0.82302780  0.11042329  1
  In  In5  1  0.00676316  0.83137521  0.65301906  1
  In  In6  1  0.34484019  0.15058294  0.12226811  1
  In  In7  1  0.33552138  0.17179990  0.62880165  1
  In  In8  1  0.33481495  0.51456318  0.11926153  1
  In  In9  1  0.32186167  0.51367125  0.63726670  1
  In  In10  1  0.32109678  0.82533814  0.10455716  1
  In  In11  1  0.32747674  0.83572698  0.64931188  1
  In  In12  1  0.66341155  0.16448336  0.12473500  1
  In  In13  1  0.66059492  0.15836257  0.61364488  1
  In  In14  1  0.66850405  0.49778120  0.12831681  1
  In  In15  1  0.67144827  0.50597082  0.62893622  1
  In  In16  1  0.66247162  0.82966204  0.11670647  1
  In  In17  1  0.66589712  0.83569127  0.63678253  1
  In  In18  1  0.18159994  0.00487101  0.37855908  1
  In  In19  1  0.16218530  -0.01150269  0.85910417  1
  In  In20  1  0.17691205  0.33541010  0.38971750  1
  In  In21  1  0.17399066  0.32785800  0.87356794  1
  In  In22  1  0.17075637  0.65028177  0.37721938  1
  In  In23  1  0.16536785  0.67696652  0.86599471  1
  In  In24  1  0.51379599  0.00754877  0.37213317  1
  In  In25  1  0.50011889  -0.00483883  0.87779296  1
  In  In26  1  0.51123244  0.32104124  0.38267511  1
  In  In27  1  0.48143163  0.33094669  0.87301859  1
  In  In28  1  0.49806523  0.66666650  0.36175370  1
  In  In29  1  0.51567623  0.67773681  0.87427386  1
  In  In30  1  0.82745842  0.01797062  0.37528355  1
  In  In31  1  0.83229062  0.00031223  0.87720067  1
  In  In32  1  0.82068515  0.32278792  0.36725082  1
  In  In33  1  0.83664049  0.33883726  0.89008818  1
  In  In34  1  0.82796131  0.67627988  0.37087375  1
  In  In35  1  0.83085401  0.67241673  0.88342159  1
  In  In36  1  -0.00471171  0.17135258  0.38400634  1
  In  In37  1  0.00024969  0.15641732  0.87415444  1
  In  In38  1  0.01632431  0.50301285  0.37843981  1
  In  In39  1  -0.01777640  0.51498944  0.88851337  1
  In  In40  1  -0.00432051  0.82891099  0.37227753  1
  In  In41  1  0.00471032  0.83697920  0.87157068  1
  In  In42  1  0.33776069  0.17394641  0.39371231  1
  In  In43  1  0.34044421  0.16894091  0.86889348  1
  In  In44  1  0.32492965  0.50381903  0.37459479  1
  In  In45  1  0.32236125  0.49261058  0.86783726  1
  In  In46  1  0.34689643  0.83312827  0.37085991  1
  In  In47  1  0.33928226  0.83674894  0.87231681  1
  In  In48  1  0.67051167  0.16497981  0.37501531  1
  In  In49  1  0.67623642  0.15853415  0.88161569  1
  In  In50  1  0.66473902  0.50011499  0.36375594  1
  In  In51  1  0.67160736  0.51671282  0.88400723  1
  In  In52  1  0.66047816  0.83949566  0.35873249  1
  In  In53  1  0.66273000  0.83296111  0.88498419  1
  In  In54  1  0.17927731  -0.00940128  0.11479059  1
  In  In55  1  0.16002241  0.00906506  0.63935736  1
  In  In56  1  0.15077268  0.33654486  0.11995338  1
  In  In57  1  0.17823584  0.34295602  0.61432284  1
  In  In58  1  0.17143377  0.66560354  0.11221987  1
  In  In59  1  0.17182133  0.66022362  0.64204353  1
  In  In60  1  0.50323676  0.01212165  0.10371075  1
  In  In61  1  0.49434375  0.01141015  0.63531452  1
  In  In62  1  0.51834279  0.33368680  0.12758632  1
  In  In63  1  0.49930852  0.31764255  0.62016717  1
  In  In64  1  0.49230972  0.66878980  0.12256414  1
  In  In65  1  0.49533836  0.67008266  0.63549577  1
  In  In66  1  0.82144591  -0.01030807  0.11687162  1
  In  In67  1  0.83002068  0.00526268  0.63613434  1
  In  In68  1  0.81153564  0.31391447  0.10482660  1
  In  In69  1  0.84106316  0.32919131  0.62429411  1
  In  In70  1  0.81674542  0.65326219  0.10186877  1
  In  In71  1  0.82492705  0.67442479  0.63905936  1
  In  In72  1  0.49756909  0.83919506  0.50126674  1
  In  In73  1  0.66252445  0.33376343  0.74530817  1
  In  In74  1  -0.00826744  -0.00674044  0.23767970  1
  In  In75  1  0.83584764  0.83733506  0.50440979  1
  In  In76  1  -0.00824114  0.33767182  0.25249557  1
  In  In77  1  0.49101529  0.49355484  0.49343802  1
  In  In78  1  -0.00383817  0.66220131  0.24604157  1
  In  In79  1  0.16408829  0.16346504  -0.00388918  1
  In  In80  1  0.49862972  0.49952284  0.00083460  1
  In  In81  1  0.34529017  -0.00656188  0.24421178  1
  In  In82  1  0.33525168  0.33806495  0.26129152  1
  In  In83  1  0.83845921  0.48793934  0.49934775  1
  In  In84  1  0.00330294  0.33122333  0.75085844  1
  In  In85  1  0.16798705  0.83786648  0.51442505  1
  Cu  Cu86  1  0.17550354  0.16948295  0.75074465  1
  Cu  Cu87  1  0.01331464  0.67817608  -0.00970533  1
  Cu  Cu88  1  0.66482788  0.00109567  -0.00213745  1
  Cu  Cu89  1  0.17578222  0.82033642  0.23743723  1
  Cu  Cu90  1  0.65858836  0.66346032  0.49692428  1
  Cu  Cu91  1  0.81933683  0.83273268  0.24044957  1
  Cu  Cu92  1  0.49487860  0.50497623  0.75687677  1
  Cu  Cu93  1  0.33590654  0.01584819  0.50994132  1
  Cu  Cu94  1  0.33080676  0.66370860  -0.01138271  1
  Cu  Cu95  1  0.83241525  0.50072954  0.24054081  1
  Cu  Cu96  1  0.49435316  0.82902712  0.23887076  1
  Cu  Cu97  1  0.00537741  0.65496579  0.51108294  1
  Cu  Cu98  1  0.50687037  0.15891016  0.75126648  1
  Cu  Cu99  1  0.33390985  0.32297531  -0.00118297  1
  Cu  Cu100  1  0.15575900  0.50253244  0.75326698  1
  Cu  Cu101  1  0.50360750  0.16773717  0.24895785  1
  Cu  Cu102  1  0.66060204  0.32792117  -0.00035488  1
  Cu  Cu103  1  0.66749501  0.00827399  0.50056218  1
  Cu  Cu104  1  0.00356551  0.32707804  0.50434678  1
  Cu  Cu105  1  0.51054656  0.83093211  0.75939548  1
  Cu  Cu106  1  0.83018484  0.83482300  0.76243274  1
  Cu  Cu107  1  0.00293536  -0.00277084  0.50723309  1
  Cu  Cu108  1  0.17740268  0.50651433  0.24578702  1
  Cu  Cu109  1  0.82406988  0.50829648  0.76126688  1
  Cu  Cu110  1  -0.00081240  0.00409181  -0.00866749  1
  Cu  Cu111  1  0.15726288  0.16194386  0.25446763  1
  Cu  Cu112  1  0.83341416  0.15936508  0.75244071  1
  Cu  Cu113  1  0.32260802  0.67061617  0.50886616  1
  Cu  Cu114  1  0.50564579  0.50434197  0.24482938  1
  Se  Se115  1  0.07262823  0.07918668  0.06345313  1
  Se  Se116  1  0.08909535  0.08059099  0.55798560  1
  Se  Se117  1  0.10676624  0.42598033  0.04078479  1
  Se  Se118  1  0.08114450  0.41990427  0.55208618  1
  Se  Se119  1  0.09700598  0.75982427  0.04651122  1
  Se  Se120  1  0.07440577  0.74613226  0.57006786  1
  Se  Se121  1  0.39656476  0.07013924  0.04092196  1
  Se  Se122  1  0.42702679  0.09390834  0.55875246  1
  Se  Se123  1  0.41102603  0.40499747  0.06256088  1
  Se  Se124  1  0.41046482  0.42311043  0.57027614  1
  Se  Se125  1  0.41552942  0.74171700  0.04543805  1
  Se  Se126  1  0.40559016  0.75294090  0.56454774  1
  Se  Se127  1  0.74696482  0.08543705  0.05277812  1
  Se  Se128  1  0.76038007  0.07958432  0.55527548  1
  Se  Se129  1  0.73996620  0.41988615  0.05003637  1
  Se  Se130  1  0.74138337  0.40814477  0.56095678  1
  Se  Se131  1  0.77024404  0.77331076  0.05229990  1
  Se  Se132  1  0.73879653  0.74364355  0.55795572  1
  Se  Se133  1  0.25389418  0.24872944  0.06409412  1
  Se  Se134  1  0.24721462  0.24120881  0.55682217  1
  Se  Se135  1  0.25053862  0.57840239  0.04271826  1
  Se  Se136  1  0.24071691  0.58615362  0.56060033  1
  Se  Se137  1  0.25349519  0.92146048  0.03773747  1
  Se  Se138  1  0.26315896  0.92724775  0.56912434  1
  Se  Se139  1  0.57745735  0.24426068  0.05292495  1
  Se  Se140  1  0.59407083  0.25798523  0.55087219  1
  Se  Se141  1  0.59014746  0.58917577  0.05701476  1
  Se  Se142  1  0.57924003  0.58755573  0.55877191  1
  Se  Se143  1  0.58066862  0.91278788  0.04595184  1
  Se  Se144  1  0.59041644  0.92396833  0.56219069  1
  Se  Se145  1  0.93460355  0.27278139  0.05321525  1
  Se  Se146  1  0.91644813  0.24515272  0.55399589  1
  Se  Se147  1  0.93628047  0.59736912  0.05259746  1
  Se  Se148  1  0.91277946  0.58470127  0.56755778  1
  Se  Se149  1  0.91978489  0.92217439  0.05080454  1
  Se  Se150  1  0.92884814  0.91483178  0.57056766  1
  Se  Se151  1  0.08825017  0.24600126  0.44884895  1
  Se  Se152  1  0.07369793  0.25636571  0.93937855  1
  Se  Se153  1  0.09136514  0.57963692  0.45429868  1
  Se  Se154  1  0.09156414  0.58839710  0.93904504  1
  Se  Se155  1  0.07888603  0.91882367  0.44157967  1
  Se  Se156  1  0.08578025  0.92337810  0.94116179  1
  Se  Se157  1  0.40455839  0.27853432  0.45051468  1
  Se  Se158  1  0.41903720  0.24167366  0.94781167  1
  Se  Se159  1  0.40807996  0.60257233  0.44242945  1
  Se  Se160  1  0.41462545  0.58220870  0.93230657  1
  Se  Se161  1  0.40842300  0.93440838  0.44267725  1
  Se  Se162  1  0.43353092  0.89826086  0.94517964  1
  Se  Se163  1  0.75717994  0.24307670  0.44443132  1
  Se  Se164  1  0.75133656  0.24816254  0.95019960  1
  Se  Se165  1  0.74771283  0.58701616  0.44178030  1
  Se  Se166  1  0.76494709  0.57740636  0.95414662  1
  Se  Se167  1  0.73947445  0.91625220  0.44037324  1
  Se  Se168  1  0.75221605  0.91860206  0.94797510  1
  Se  Se169  1  0.24592039  0.08943654  0.45424110  1
  Se  Se170  1  0.24677253  0.08016995  0.92961647  1
  Se  Se171  1  0.25273201  0.42985354  0.45097521  1
  Se  Se172  1  0.25569016  0.40831555  0.94483613  1
  Se  Se173  1  0.25340662  0.75403212  0.44155255  1
  Se  Se174  1  0.25041941  0.75273512  0.93845743  1
  Se  Se175  1  0.58067315  0.08914962  0.44823190  1
  Se  Se176  1  0.58031628  0.08559527  0.94548815  1
  Se  Se177  1  0.60038456  0.41538250  0.44353914  1
  Se  Se178  1  0.58472883  0.40796313  0.93646329  1
  Se  Se179  1  0.58468966  0.74871801  0.43684024  1
  Se  Se180  1  0.59376916  0.73895192  0.95420775  1
  Se  Se181  1  0.91921583  0.07735781  0.44946017  1
  Se  Se182  1  0.91132409  0.08997232  0.94665230  1
  Se  Se183  1  0.92887577  0.40262345  0.43430589  1
  Se  Se184  1  0.91894430  0.41950668  0.95688764  1
  Se  Se185  1  0.92667568  0.73519663  0.44795113  1
  Se  Se186  1  0.92143521  0.75933116  0.94426309  1
  Se  Se187  1  0.24169411  0.23969245  0.31269695  1
  Se  Se188  1  0.25811223  0.25535281  0.80097316  1
  Se  Se189  1  0.25767665  0.59144297  0.29953343  1
  Se  Se190  1  0.24652663  0.58340702  0.80152436  1
  Se  Se191  1  0.24454750  0.90667404  0.30299605  1
  Se  Se192  1  0.26150339  0.91754939  0.79905049  1
  Se  Se193  1  0.58596726  0.24917454  0.30455382  1
  Se  Se194  1  0.58118680  0.24539016  0.81247546  1
  Se  Se195  1  0.59020515  0.59083473  0.29676860  1
  Se  Se196  1  0.58693568  0.58103886  0.80712263  1
  Se  Se197  1  0.57015258  0.91852175  0.29438689  1
  Se  Se198  1  0.59179197  0.91847500  0.80956335  1
  Se  Se199  1  0.90874116  0.23221504  0.30257535  1
  Se  Se200  1  0.90506120  0.24893416  0.81034071  1
  Se  Se201  1  0.91014754  0.57021589  0.31193405  1
  Se  Se202  1  0.91230265  0.59016017  0.80968888  1
  Se  Se203  1  0.90286190  0.90701031  0.30600254  1
  Se  Se204  1  0.91743119  0.92321374  0.80630910  1
  Se  Se205  1  0.08002546  0.07612734  0.31088892  1
  Se  Se206  1  0.08475386  0.08959328  0.79968683  1
  Se  Se207  1  0.09984891  0.42026775  0.30596518  1
  Se  Se208  1  0.07969228  0.42351749  0.81727638  1
  Se  Se209  1  0.09260164  0.75121368  0.30549025  1
  Se  Se210  1  0.07371811  0.74955072  0.79817390  1
  Se  Se211  1  0.41562541  0.09564019  0.31040398  1
  Se  Se212  1  0.42141498  0.07882151  0.80463331  1
  Se  Se213  1  0.43254397  0.42789095  0.31478652  1
  Se  Se214  1  0.41007282  0.41353115  0.79898912  1
  Se  Se215  1  0.41112109  0.74867659  0.29523646  1
  Se  Se216  1  0.42168394  0.74595566  0.80590058  1
  Se  Se217  1  0.72674920  0.06300717  0.30548566  1
  Se  Se218  1  0.74720255  0.07960892  0.80518297  1
  Se  Se219  1  0.75407792  0.41882407  0.29970613  1
  Se  Se220  1  0.74959656  0.41719025  0.81449779  1
  Se  Se221  1  0.74286878  0.74614019  0.29807722  1
  Se  Se222  1  0.74523284  0.75050145  0.81247358  1
  Se  Se223  1  0.24147475  0.08482345  0.19333844  1
  Se  Se224  1  0.26034440  0.08405108  0.69941220  1
  Se  Se225  1  0.25012366  0.41693867  0.18771637  1
  Se  Se226  1  0.23823841  0.41940489  0.69808099  1
  Se  Se227  1  0.25872870  0.74032206  0.18424628  1
  Se  Se228  1  0.24212702  0.75087838  0.70995325  1
  Se  Se229  1  0.57189562  0.08008324  0.18805941  1
  Se  Se230  1  0.59625754  0.08378377  0.69635041  1
  Se  Se231  1  0.59113183  0.41503175  0.20115134  1
  Se  Se232  1  0.56951312  0.42676048  0.68988822  1
  Se  Se233  1  0.58257885  0.74674768  0.18904699  1
  Se  Se234  1  0.58814093  0.74472745  0.70125120  1
  Se  Se235  1  0.89268883  0.08668729  0.19325814  1
  Se  Se236  1  0.92477646  0.08231574  0.70020558  1
  Se  Se237  1  0.91345477  0.42232447  0.18168363  1
  Se  Se238  1  0.90167499  0.42519964  0.70017117  1
  Se  Se239  1  0.90861239  0.75258964  0.18680107  1
  Se  Se240  1  0.91104473  0.74793929  0.70916457  1
  Se  Se241  1  0.08150345  0.24135394  0.19224100  1
  Se  Se242  1  0.09322886  0.24774038  0.68791713  1
  Se  Se243  1  0.08804839  0.57529026  0.18494623  1
  Se  Se244  1  0.06942323  0.58363728  0.70057904  1
  Se  Se245  1  0.09189553  0.90428796  0.18434717  1
  Se  Se246  1  0.09897205  0.91390929  0.70947442  1
  Se  Se247  1  0.41764475  0.24792822  0.19247375  1
  Se  Se248  1  0.42565565  0.24735765  0.69977934  1
  Se  Se249  1  0.41618142  0.58323132  0.19504224  1
  Se  Se250  1  0.41093545  0.59093295  0.70437751  1
  Se  Se251  1  0.41992583  0.90748629  0.17338455  1
  Se  Se252  1  0.42870678  0.91463322  0.70331660  1
  Se  Se253  1  0.74870396  0.25038169  0.18962020  1
  Se  Se254  1  0.75685381  0.24109798  0.69118952  1
  Se  Se255  1  0.75327034  0.59001895  0.19010586  1
  Se  Se256  1  0.74020852  0.58811031  0.70420022  1
  Se  Se257  1  0.73667494  0.91848828  0.19020256  1
  Se  Se258  1  0.75088683  0.91727775  0.70255552  1
