# generated using pymatgen
data_In86Cu29Se144
_symmetry_space_group_name_H-M   'P 1'
_cell_length_a   17.56936030
_cell_length_b   17.57108393
_cell_length_c   23.42297498
_cell_angle_alpha   89.98704605
_cell_angle_beta   90.01038110
_cell_angle_gamma   90.00906990
_symmetry_Int_Tables_number   1
_chemical_formula_structural   In86Cu29Se144
_chemical_formula_sum   'In86 Cu29 Se144'
_cell_volume   7230.96955655
_cell_formula_units_Z   1
loop_
 _symmetry_equiv_pos_site_id
 _symmetry_equiv_pos_as_xyz
  1  'x, y, z'
loop_
 _atom_site_type_symbol
 _atom_site_label
 _atom_site_symmetry_multiplicity
 _atom_site_fract_x
 _atom_site_fract_y
 _atom_site_fract_z
 _atom_site_occupancy
  In  In0  1  0.01005934  0.15681058  0.14009133  1
  In  In1  1  0.01469956  0.16893257  0.60236398  1
  In  In2  1  0.00545087  0.49915814  0.13360073  1
  In  In3  1  0.00223732  0.49690968  0.61400559  1
  In  In4  1  -0.00015790  0.83101300  0.13972507  1
  In  In5  1  0.01019954  0.84211433  0.60394809  1
  In  In6  1  0.33289319  0.16902494  0.13126296  1
  In  In7  1  0.32887962  0.17707634  0.62219799  1
  In  In8  1  0.32874363  0.49434701  0.13159847  1
  In  In9  1  0.32939132  0.50290762  0.62889042  1
  In  In10  1  0.34129512  0.82524199  0.13028231  1
  In  In11  1  0.32540241  0.81293952  0.61332268  1
  In  In12  1  0.65592549  0.16339052  0.13006562  1
  In  In13  1  0.66640191  0.16043306  0.61558655  1
  In  In14  1  0.66683479  0.49675793  0.11895986  1
  In  In15  1  0.67942230  0.49441795  0.61911332  1
  In  In16  1  0.66323541  0.84445827  0.13214905  1
  In  In17  1  0.67172399  0.84459252  0.60564853  1
  In  In18  1  0.16418714  0.00074922  0.38025241  1
  In  In19  1  0.17680470  0.00165161  0.88022255  1
  In  In20  1  0.16844393  0.33708127  0.36886077  1
  In  In21  1  0.17522949  0.32841698  0.88446924  1
  In  In22  1  0.16800354  0.66826686  0.36972998  1
  In  In23  1  0.16024884  0.65577608  0.87391004  1
  In  In24  1  0.49135729  -0.00783604  0.36467206  1
  In  In25  1  0.49822381  -0.00007173  0.88953232  1
  In  In26  1  0.48835975  0.33524549  0.37113092  1
  In  In27  1  0.48581648  0.34444935  0.88658862  1
  In  In28  1  0.49466738  0.67938688  0.37399641  1
  In  In29  1  0.48898293  0.67471784  0.88504134  1
  In  In30  1  0.83311957  0.00588151  0.37555020  1
  In  In31  1  0.83595201  -0.00430769  0.87484662  1
  In  In32  1  0.85649047  0.30930183  0.38654382  1
  In  In33  1  0.85015925  0.33725269  0.87767633  1
  In  In34  1  0.84655112  0.65477823  0.37921499  1
  In  In35  1  0.82586252  0.67005586  0.87854186  1
  In  In36  1  -0.00284163  0.17005112  0.36747081  1
  In  In37  1  0.00476463  0.17673683  0.87750523  1
  In  In38  1  0.01322071  0.49362343  0.36406404  1
  In  In39  1  0.00563196  0.49533463  0.89101360  1
  In  In40  1  0.00360869  0.83737994  0.38439729  1
  In  In41  1  -0.00246378  0.82651329  0.87612113  1
  In  In42  1  0.33349574  0.16429397  0.37347102  1
  In  In43  1  0.32494969  0.17594658  0.88753982  1
  In  In44  1  0.30258877  0.48397420  0.34713364  1
  In  In45  1  0.32988141  0.49990650  0.87788872  1
  In  In46  1  0.32863685  0.83243074  0.37398615  1
  In  In47  1  0.34230530  0.83792227  0.87341853  1
  In  In48  1  0.70017853  0.15268876  0.38633961  1
  In  In49  1  0.66093713  0.14978384  0.87525978  1
  In  In50  1  0.66775160  0.49900052  0.37826183  1
  In  In51  1  0.66761143  0.49756850  0.88568514  1
  In  In52  1  0.65861584  0.85269097  0.38873176  1
  In  In53  1  0.66401933  0.82220800  0.87403853  1
  In  In54  1  0.15823964  0.00994376  0.13605571  1
  In  In55  1  0.16639747  -0.00189346  0.60575066  1
  In  In56  1  0.17131486  0.33649631  0.13378343  1
  In  In57  1  0.18219409  0.34351585  0.60595565  1
  In  In58  1  0.18774551  0.64059588  0.15832758  1
  In  In59  1  0.18612349  0.67190889  0.61936411  1
  In  In60  1  0.49702628  0.00073457  0.13016825  1
  In  In61  1  0.51037636  -0.00364439  0.61774531  1
  In  In62  1  0.49380780  0.32655934  0.12158309  1
  In  In63  1  0.48781011  0.32623174  0.62886298  1
  In  In64  1  0.48905924  0.65541936  0.11434928  1
  In  In65  1  0.48403490  0.66648611  0.62483954  1
  In  In66  1  0.83714120  0.00160842  0.14802711  1
  In  In67  1  0.84204766  0.00925457  0.57946074  1
  In  In68  1  0.83083759  0.34211253  0.13172918  1
  In  In69  1  0.83115297  0.33855562  0.60150778  1
  In  In70  1  0.84397790  0.65870457  0.13584776  1
  In  In71  1  0.84120751  0.66989738  0.61088345  1
  In  In72  1  0.82752399  0.83100313  0.00622185  1
  In  In73  1  0.65634925  0.33612999  0.74645818  1
  In  In74  1  0.65974301  0.66811424  0.75213839  1
  In  In75  1  0.49984550  0.17276323  0.49338368  1
  In  In76  1  0.66501005  -0.00623511  0.73261319  1
  In  In77  1  0.82851487  0.17522160  0.00858557  1
  In  In78  1  0.66930784  0.67366184  0.25676011  1
  In  In79  1  0.00490012  0.33487986  0.74349876  1
  In  In80  1  0.33387497  -0.00357279  0.74820758  1
  In  In81  1  0.00830589  0.66317840  0.75083650  1
  In  In82  1  0.01045549  0.00556787  0.72262135  1
  In  In83  1  0.49566594  0.50936881  0.49898206  1
  In  In84  1  0.66834100  0.32330918  0.25734199  1
  In  In85  1  0.16593670  0.83094901  0.00663769  1
  Cu  Cu86  1  0.66617754  0.32831935  0.00541580  1
  Cu  Cu87  1  0.16045875  0.84407385  0.25938368  1
  Cu  Cu88  1  0.00476122  0.65529229  0.01601482  1
  Cu  Cu89  1  0.00556188  0.33750821  0.48766679  1
  Cu  Cu90  1  0.66620425  0.66497322  -0.00005996  1
  Cu  Cu91  1  0.50157706  0.16405940  0.25245193  1
  Cu  Cu92  1  0.66970853  0.67059159  0.49390485  1
  Cu  Cu93  1  0.32549814  0.66148070  0.00568267  1
  Cu  Cu94  1  0.00700575  0.65463644  0.49249017  1
  Cu  Cu95  1  0.84797374  0.84502686  0.73642922  1
  Cu  Cu96  1  0.84167271  0.49466738  0.25630386  1
  Cu  Cu97  1  0.33994685  -0.00473245  0.49073690  1
  Cu  Cu98  1  0.16523851  0.16483112  0.75045680  1
  Cu  Cu99  1  0.83421406  0.83642355  0.26498201  1
  Cu  Cu100  1  0.65521076  0.00267730  0.00920350  1
  Cu  Cu101  1  0.00146948  0.00597973  0.01194819  1
  Cu  Cu102  1  0.49985021  0.83246535  0.74820562  1
  Cu  Cu103  1  0.33081220  0.00672476  0.00772293  1
  Cu  Cu104  1  0.33137630  0.33731707  0.00756824  1
  Cu  Cu105  1  0.17173631  0.16874360  0.25624345  1
  Cu  Cu106  1  0.48478302  0.17437500  0.75563694  1
  Cu  Cu107  1  0.33315023  0.65944150  0.49146657  1
  Cu  Cu108  1  0.49601444  0.50074139  0.24467444  1
  Cu  Cu109  1  0.83511578  0.50331247  0.75071611  1
  Cu  Cu110  1  0.48728810  0.50133354  0.75481228  1
  Cu  Cu111  1  0.00660957  0.33545362  0.00733278  1
  Cu  Cu112  1  0.49700427  0.83261110  0.25084869  1
  Cu  Cu113  1  0.83068929  0.16298940  0.73459106  1
  Cu  Cu114  1  0.17372935  0.49535432  0.74864223  1
  Se  Se115  1  0.08706426  0.09074679  0.05869036  1
  Se  Se116  1  0.06662362  0.06002363  0.54026882  1
  Se  Se117  1  0.08760768  0.41874482  0.06234418  1
  Se  Se118  1  0.08729431  0.42023397  0.54457392  1
  Se  Se119  1  0.08060090  0.74411914  0.07040522  1
  Se  Se120  1  0.08706614  0.73627081  0.55201582  1
  Se  Se121  1  0.41687712  0.08688371  0.06106501  1
  Se  Se122  1  0.41147889  0.07891051  0.55683644  1
  Se  Se123  1  0.41647921  0.42120446  0.05925848  1
  Se  Se124  1  0.40963921  0.41266783  0.55771724  1
  Se  Se125  1  0.41195036  0.75072768  0.05020423  1
  Se  Se126  1  0.41928144  0.74355785  0.54408701  1
  Se  Se127  1  0.74990879  0.07098097  0.06546477  1
  Se  Se128  1  0.73824759  0.09389446  0.53551204  1
  Se  Se129  1  0.75270039  0.41207906  0.05388463  1
  Se  Se130  1  0.74882638  0.42576423  0.53891962  1
  Se  Se131  1  0.74241670  0.73940097  0.06883852  1
  Se  Se132  1  0.75558073  0.75311640  0.54592735  1
  Se  Se133  1  0.25031944  0.25306561  0.06205772  1
  Se  Se134  1  0.22975204  0.22617902  0.55079280  1
  Se  Se135  1  0.24490067  0.58465791  0.06533413  1
  Se  Se136  1  0.25369529  0.57696480  0.55070684  1
  Se  Se137  1  0.25133939  0.92372632  0.06724083  1
  Se  Se138  1  0.25914814  0.91276137  0.54803735  1
  Se  Se139  1  0.58335364  0.24485226  0.05648390  1
  Se  Se140  1  0.58624328  0.26468861  0.55797291  1
  Se  Se141  1  0.58353280  0.57873968  0.05133621  1
  Se  Se142  1  0.59202927  0.59541645  0.56146400  1
  Se  Se143  1  0.57606127  0.91281974  0.05896211  1
  Se  Se144  1  0.58527217  0.92575759  0.54100321  1
  Se  Se145  1  0.92650319  0.25420428  0.06782873  1
  Se  Se146  1  0.92218492  0.25377015  0.54303579  1
  Se  Se147  1  0.91248538  0.57429461  0.06186780  1
  Se  Se148  1  0.91655094  0.57684494  0.54673672  1
  Se  Se149  1  0.91734494  0.92305808  0.06514133  1
  Se  Se150  1  0.92089838  0.90563546  0.53114775  1
  Se  Se151  1  0.08573071  0.25059332  0.43586317  1
  Se  Se152  1  0.08480735  0.24924153  0.95109485  1
  Se  Se153  1  0.09173075  0.57638001  0.43743827  1
  Se  Se154  1  0.08882242  0.58345940  0.95406580  1
  Se  Se155  1  0.09639987  0.90997450  0.45191024  1
  Se  Se156  1  0.07230137  0.92353961  0.94543374  1
  Se  Se157  1  0.39955662  0.26451826  0.44591683  1
  Se  Se158  1  0.41548570  0.25084050  0.95457856  1
  Se  Se159  1  0.40643640  0.57974553  0.42712733  1
  Se  Se160  1  0.41156524  0.58262196  0.94852661  1
  Se  Se161  1  0.42234284  0.90944867  0.44135563  1
  Se  Se162  1  0.40781572  0.91847868  0.95197465  1
  Se  Se163  1  0.73547888  0.27234834  0.44316797  1
  Se  Se164  1  0.74353438  0.25563334  0.93471510  1
  Se  Se165  1  0.75034071  0.58218284  0.44503413  1
  Se  Se166  1  0.75438074  0.58325024  0.94907893  1
  Se  Se167  1  0.75945216  0.91978259  0.44958615  1
  Se  Se168  1  0.73745982  0.92445309  0.94487125  1
  Se  Se169  1  0.25491619  0.08356348  0.44572774  1
  Se  Se170  1  0.24446496  0.08617249  0.95367986  1
  Se  Se171  1  0.24427441  0.42826954  0.43763507  1
  Se  Se172  1  0.24889110  0.42004222  0.95096829  1
  Se  Se173  1  0.24877537  0.74778996  0.44401219  1
  Se  Se174  1  0.25287872  0.74529993  0.94004834  1
  Se  Se175  1  0.58154024  0.07916194  0.43284556  1
  Se  Se176  1  0.57781964  0.09018981  0.95447639  1
  Se  Se177  1  0.58037494  0.41087886  0.44216126  1
  Se  Se178  1  0.58366455  0.41438316  0.95119902  1
  Se  Se179  1  0.58015578  0.75104127  0.44569292  1
  Se  Se180  1  0.58367970  0.75250986  0.94919956  1
  Se  Se181  1  0.90710229  0.10195643  0.44025892  1
  Se  Se182  1  0.91972252  0.08136950  0.94609499  1
  Se  Se183  1  0.92172361  0.42379403  0.43693309  1
  Se  Se184  1  0.91627442  0.41581699  0.95629639  1
  Se  Se185  1  0.92158700  0.74356759  0.44768351  1
  Se  Se186  1  0.92648764  0.73816419  0.95222219  1
  Se  Se187  1  0.25911877  0.25332862  0.30398751  1
  Se  Se188  1  0.24503011  0.24454358  0.80902425  1
  Se  Se189  1  0.25296261  0.60089573  0.29255159  1
  Se  Se190  1  0.24911400  0.58218526  0.80532161  1
  Se  Se191  1  0.25062813  0.92394119  0.30828270  1
  Se  Se192  1  0.23968517  0.90829557  0.80668187  1
  Se  Se193  1  0.57975262  0.23546098  0.31965228  1
  Se  Se194  1  0.57513326  0.24675101  0.81371856  1
  Se  Se195  1  0.57428350  0.57676980  0.30817261  1
  Se  Se196  1  0.57561870  0.57602609  0.81401854  1
  Se  Se197  1  0.58618653  0.91161386  0.30205728  1
  Se  Se198  1  0.57888396  0.91586690  0.80828497  1
  Se  Se199  1  0.91061151  0.24791863  0.29708414  1
  Se  Se200  1  0.90881893  0.23978203  0.79999067  1
  Se  Se201  1  0.92464771  0.58436053  0.30206214  1
  Se  Se202  1  0.91436300  0.57759951  0.81454406  1
  Se  Se203  1  0.92205605  0.91932702  0.31225374  1
  Se  Se204  1  0.92510301  0.92073602  0.80098930  1
  Se  Se205  1  0.08798784  0.08382985  0.30683657  1
  Se  Se206  1  0.08382654  0.08310250  0.80799973  1
  Se  Se207  1  0.09609172  0.41820699  0.29119395  1
  Se  Se208  1  0.08814508  0.42185448  0.81112205  1
  Se  Se209  1  0.07865795  0.75561672  0.30870454  1
  Se  Se210  1  0.09439075  0.76152402  0.80669582  1
  Se  Se211  1  0.41145694  0.08222270  0.30071573  1
  Se  Se212  1  0.41692701  0.08445266  0.81553727  1
  Se  Se213  1  0.41431290  0.41243415  0.29544763  1
  Se  Se214  1  0.40961528  0.41292602  0.80718316  1
  Se  Se215  1  0.41051368  0.75018736  0.30088501  1
  Se  Se216  1  0.41950957  0.75056049  0.80448554  1
  Se  Se217  1  0.74602841  0.07609780  0.30065064  1
  Se  Se218  1  0.75717015  0.08301126  0.79960092  1
  Se  Se219  1  0.75825770  0.41614321  0.31411437  1
  Se  Se220  1  0.75647116  0.41917989  0.80903678  1
  Se  Se221  1  0.75328844  0.75615468  0.32410645  1
  Se  Se222  1  0.76549635  0.76468471  0.79890464  1
  Se  Se223  1  0.25257279  0.08428370  0.20078421  1
  Se  Se224  1  0.24043407  0.08214561  0.68775449  1
  Se  Se225  1  0.23475436  0.43256404  0.20494848  1
  Se  Se226  1  0.24890280  0.40831307  0.69235823  1
  Se  Se227  1  0.24203553  0.76557046  0.19976608  1
  Se  Se228  1  0.25882207  0.74704267  0.69676508  1
  Se  Se229  1  0.58475399  0.07727002  0.20175042  1
  Se  Se230  1  0.56814725  0.09929875  0.69278434  1
  Se  Se231  1  0.58233587  0.41773238  0.19284444  1
  Se  Se232  1  0.57031570  0.43393500  0.68749421  1
  Se  Se233  1  0.57318852  0.74756210  0.18983795  1
  Se  Se234  1  0.58393581  0.76069164  0.68386379  1
  Se  Se235  1  0.92100675  0.08599450  0.21012204  1
  Se  Se236  1  0.90877642  0.09017210  0.66979748  1
  Se  Se237  1  0.92176261  0.41133213  0.20098655  1
  Se  Se238  1  0.90618028  0.42081020  0.68625237  1
  Se  Se239  1  0.90870318  0.75242818  0.20496743  1
  Se  Se240  1  0.92443530  0.75383321  0.68390732  1
  Se  Se241  1  0.08834040  0.25127607  0.20194250  1
  Se  Se242  1  0.09045112  0.24224349  0.68463633  1
  Se  Se243  1  0.05903467  0.60426995  0.20127800  1
  Se  Se244  1  0.09158644  0.57270370  0.68706920  1
  Se  Se245  1  0.07607837  0.92464094  0.20311254  1
  Se  Se246  1  0.10269339  0.90158393  0.68286907  1
  Se  Se247  1  0.42105591  0.25095767  0.19903394  1
  Se  Se248  1  0.40166286  0.25424083  0.70078820  1
  Se  Se249  1  0.41412876  0.58740879  0.19420224  1
  Se  Se250  1  0.40965918  0.58730346  0.69934616  1
  Se  Se251  1  0.41316522  0.91783587  0.19860243  1
  Se  Se252  1  0.42356753  0.91128836  0.68459956  1
  Se  Se253  1  0.75720545  0.23806270  0.19263524  1
  Se  Se254  1  0.75149703  0.25227973  0.68292092  1
  Se  Se255  1  0.75048497  0.56978266  0.19953485  1
  Se  Se256  1  0.75731686  0.58523089  0.69112971  1
  Se  Se257  1  0.74900904  0.91142034  0.20614158  1
  Se  Se258  1  0.77018968  0.92213019  0.67331488  1
