# generated using pymatgen
data_In86Cu29Se144
_symmetry_space_group_name_H-M   'P 1'
_cell_length_a   17.58304597
_cell_length_b   17.58111752
_cell_length_c   23.44687407
_cell_angle_alpha   89.96975668
_cell_angle_beta   90.00128325
_cell_angle_gamma   90.00270930
_symmetry_Int_Tables_number   1
_chemical_formula_structural   In86Cu29Se144
_chemical_formula_sum   'In86 Cu29 Se144'
_cell_volume   7248.12172415
_cell_formula_units_Z   1
loop_
 _symmetry_equiv_pos_site_id
 _symmetry_equiv_pos_as_xyz
  1  'x, y, z'
loop_
 _atom_site_type_symbol
 _atom_site_label
 _atom_site_symmetry_multiplicity
 _atom_site_fract_x
 _atom_site_fract_y
 _atom_site_fract_z
 _atom_site_occupancy
  In  In0  1  -0.00138088  0.17589088  0.12321041  1
  In  In1  1  0.00150689  0.16563637  0.62967537  1
  In  In2  1  -0.01103020  0.50413959  0.13043984  1
  In  In3  1  -0.00885864  0.48131186  0.61293983  1
  In  In4  1  -0.01300249  0.82622701  0.11415502  1
  In  In5  1  0.00914653  0.84057074  0.63096352  1
  In  In6  1  0.33201747  0.17764492  0.12592178  1
  In  In7  1  0.33845708  0.16830859  0.62067717  1
  In  In8  1  0.33012411  0.48263109  0.12861509  1
  In  In9  1  0.33722563  0.50691682  0.61706007  1
  In  In10  1  0.32929832  0.84359685  0.12127024  1
  In  In11  1  0.33896640  0.82125336  0.62643247  1
  In  In12  1  0.67706697  0.16333560  0.13793413  1
  In  In13  1  0.66982823  0.17497569  0.62147283  1
  In  In14  1  0.67100776  0.49830136  0.12530990  1
  In  In15  1  0.66794457  0.49899729  0.61643498  1
  In  In16  1  0.67379179  0.82266263  0.13315413  1
  In  In17  1  0.66817572  0.84432672  0.61907838  1
  In  In18  1  0.17410822  0.00461726  0.37746678  1
  In  In19  1  0.14670588  0.01596054  0.88410523  1
  In  In20  1  0.17010945  0.33224131  0.37649132  1
  In  In21  1  0.13473428  0.33820476  0.87133956  1
  In  In22  1  0.14645177  0.66053229  0.36898866  1
  In  In23  1  0.18119211  0.65832826  0.87391837  1
  In  In24  1  0.51721492  -0.00211474  0.38921432  1
  In  In25  1  0.51018164  -0.00944159  0.87247910  1
  In  In26  1  0.49961400  0.33205003  0.37313698  1
  In  In27  1  0.51635318  0.33529633  0.87932902  1
  In  In28  1  0.51261020  0.65553739  0.38119689  1
  In  In29  1  0.48866959  0.66014547  0.87257341  1
  In  In30  1  0.82031649  0.01519686  0.37415429  1
  In  In31  1  0.83312041  -0.00040130  0.87512073  1
  In  In32  1  0.84405084  0.34034729  0.35512208  1
  In  In33  1  0.83491485  0.33359375  0.88848898  1
  In  In34  1  0.82253008  0.65186529  0.36581400  1
  In  In35  1  0.83755478  0.66054016  0.88352159  1
  In  In36  1  -0.01011178  0.21348501  0.38457393  1
  In  In37  1  -0.00934832  0.17234990  0.87590574  1
  In  In38  1  -0.00390544  0.49052208  0.37814908  1
  In  In39  1  -0.00544415  0.47994833  0.86560569  1
  In  In40  1  0.00858668  0.82831449  0.37207807  1
  In  In41  1  -0.01286127  0.84177675  0.88532747  1
  In  In42  1  0.32313721  0.17480347  0.38222796  1
  In  In43  1  0.32747611  0.15596694  0.87296807  1
  In  In44  1  0.34443068  0.48753677  0.38061871  1
  In  In45  1  0.32797949  0.50978634  0.87096274  1
  In  In46  1  0.33612902  0.84885280  0.37789129  1
  In  In47  1  0.33501372  0.81604607  0.87369078  1
  In  In48  1  0.66527588  0.16196313  0.36474325  1
  In  In49  1  0.71173120  0.17029262  0.87569223  1
  In  In50  1  0.66816225  0.49607764  0.37192347  1
  In  In51  1  0.66760118  0.48481671  0.89385282  1
  In  In52  1  0.67081727  0.83085139  0.37264095  1
  In  In53  1  0.66824999  0.84577459  0.87370844  1
  In  In54  1  0.15890195  0.00027502  0.11482798  1
  In  In55  1  0.15349321  0.00491009  0.63115050  1
  In  In56  1  0.16864419  0.32396624  0.13221563  1
  In  In57  1  0.15559391  0.33119034  0.61607404  1
  In  In58  1  0.14852547  0.66001149  0.12206643  1
  In  In59  1  0.17914143  0.67078694  0.62719948  1
  In  In60  1  0.50466589  0.01064962  0.12754688  1
  In  In61  1  0.52176834  0.01244296  0.60817499  1
  In  In62  1  0.49365285  0.33754484  0.13323985  1
  In  In63  1  0.50210966  0.33497785  0.61238235  1
  In  In64  1  0.51754099  0.66733112  0.12959820  1
  In  In65  1  0.49358103  0.65623217  0.61357669  1
  In  In66  1  0.82489790  -0.00375420  0.11955193  1
  In  In67  1  0.83014022  0.01025592  0.63837491  1
  In  In68  1  0.82814986  0.33740472  0.12755472  1
  In  In69  1  0.83986863  0.33962891  0.62717371  1
  In  In70  1  0.83187385  0.66400309  0.12310499  1
  In  In71  1  0.84274208  0.65121505  0.62541655  1
  In  In72  1  0.67719153  0.32855711  0.75170010  1
  In  In73  1  0.17252876  0.83413422  0.50603877  1
  In  In74  1  0.83404572  0.83108858  0.49749979  1
  In  In75  1  0.00708553  0.66434984  0.75392923  1
  In  In76  1  0.33698079  0.00741190  0.25249495  1
  In  In77  1  -0.00381323  0.00263277  0.25341370  1
  In  In78  1  0.33083448  0.33644264  0.74164606  1
  In  In79  1  0.33471036  0.66403505  0.25779498  1
  In  In80  1  0.33063081  -0.00968355  0.74691988  1
  In  In81  1  0.16192226  0.49684757  -0.00503413  1
  In  In82  1  0.50211288  0.82853016  -0.00173593  1
  In  In83  1  0.66474130  0.66243616  0.74662867  1
  In  In84  1  0.50285250  0.16851797  0.00260473  1
  In  In85  1  0.82993136  0.17279740  0.49966940  1
  Cu  Cu86  1  0.32815902  0.33098288  0.00241191  1
  Cu  Cu87  1  0.34109555  0.00421293  0.50223652  1
  Cu  Cu88  1  0.83455944  0.50131891  0.24600992  1
  Cu  Cu89  1  0.50204432  0.16842977  0.25278975  1
  Cu  Cu90  1  -0.00302082  0.65462172  0.49852903  1
  Cu  Cu91  1  0.33347929  0.66186058  -0.00248222  1
  Cu  Cu92  1  0.50145629  0.83196995  0.74787597  1
  Cu  Cu93  1  0.16181805  0.16966035  0.25488291  1
  Cu  Cu94  1  0.51441553  0.15989904  0.74638621  1
  Cu  Cu95  1  0.33196472  0.67060032  0.49579286  1
  Cu  Cu96  1  0.00055632  0.66928087  0.00006322  1
  Cu  Cu97  1  0.83471221  0.83760194  0.75424181  1
  Cu  Cu98  1  -0.00616736  0.33175922  0.00309978  1
  Cu  Cu99  1  0.33145775  0.33740494  0.50017429  1
  Cu  Cu100  1  0.50462436  0.50104185  0.25423606  1
  Cu  Cu101  1  0.83519096  0.83141223  0.24426232  1
  Cu  Cu102  1  0.15810775  0.49096549  0.25132077  1
  Cu  Cu103  1  0.66956784  0.00149269  -0.00009787  1
  Cu  Cu104  1  0.15757202  0.17664886  0.75198305  1
  Cu  Cu105  1  0.16703805  0.83719474  0.75566101  1
  Cu  Cu106  1  0.31918820  -0.00120218  -0.00360216  1
  Cu  Cu107  1  0.15971312  0.82444886  0.24298907  1
  Cu  Cu108  1  0.66966086  0.66157033  0.49391454  1
  Cu  Cu109  1  0.66539669  0.33508997  0.49380752  1
  Cu  Cu110  1  -0.00833570  0.01020466  0.00007988  1
  Cu  Cu111  1  0.49833523  0.50133549  0.74553015  1
  Cu  Cu112  1  0.66910436  0.66388557  0.00570087  1
  Cu  Cu113  1  -0.00179571  0.00958141  0.50597720  1
  Cu  Cu114  1  0.51000818  0.83598623  0.25746135  1
  Se  Se115  1  0.07838612  0.09078226  0.05267951  1
  Se  Se116  1  0.08666790  0.08929202  0.55622900  1
  Se  Se117  1  0.07836780  0.41148392  0.06270179  1
  Se  Se118  1  0.09126957  0.42370798  0.54491385  1
  Se  Se119  1  0.08610041  0.75269646  0.05057771  1
  Se  Se120  1  0.07245049  0.74259210  0.55722848  1
  Se  Se121  1  0.40441384  0.07424660  0.05700011  1
  Se  Se122  1  0.42378113  0.09232052  0.55080548  1
  Se  Se123  1  0.41325661  0.41120091  0.05525111  1
  Se  Se124  1  0.41889757  0.42201312  0.54925450  1
  Se  Se125  1  0.41152820  0.74057095  0.06184023  1
  Se  Se126  1  0.41730663  0.75172963  0.54875003  1
  Se  Se127  1  0.74498836  0.08893923  0.05550440  1
  Se  Se128  1  0.74672163  0.07359862  0.55675437  1
  Se  Se129  1  0.76643875  0.43359727  0.05657879  1
  Se  Se130  1  0.74970636  0.40783189  0.55493299  1
  Se  Se131  1  0.75039461  0.75262185  0.05491707  1
  Se  Se132  1  0.74823416  0.73688435  0.56022534  1
  Se  Se133  1  0.24422272  0.24801795  0.05429008  1
  Se  Se134  1  0.25328667  0.25146217  0.55615211  1
  Se  Se135  1  0.25388288  0.58310456  0.06017526  1
  Se  Se136  1  0.24895453  0.59010892  0.55099097  1
  Se  Se137  1  0.24139392  0.91156759  0.04980566  1
  Se  Se138  1  0.25928292  0.92814622  0.56651004  1
  Se  Se139  1  0.58591626  0.25135400  0.06947282  1
  Se  Se140  1  0.58629558  0.24859866  0.54845818  1
  Se  Se141  1  0.58289654  0.58156682  0.05598938  1
  Se  Se142  1  0.58417129  0.57883634  0.54797934  1
  Se  Se143  1  0.58774151  0.92083345  0.05990357  1
  Se  Se144  1  0.57912532  0.90579251  0.54621849  1
  Se  Se145  1  0.90796734  0.25099351  0.05582819  1
  Se  Se146  1  0.92671782  0.25653549  0.55677203  1
  Se  Se147  1  0.91918919  0.58424177  0.05388492  1
  Se  Se148  1  0.90918461  0.57244616  0.54779180  1
  Se  Se149  1  0.91138007  0.91944484  0.05018849  1
  Se  Se150  1  0.92041372  0.92281786  0.56156600  1
  Se  Se151  1  0.10566587  0.23445364  0.44636718  1
  Se  Se152  1  0.07807820  0.25066455  0.94792197  1
  Se  Se153  1  0.08359487  0.57602966  0.44517670  1
  Se  Se154  1  0.07297807  0.58799940  0.93517357  1
  Se  Se155  1  0.07646876  0.92335257  0.44632152  1
  Se  Se156  1  0.07692547  0.92149292  0.95106914  1
  Se  Se157  1  0.41497329  0.25442935  0.44567042  1
  Se  Se158  1  0.40894562  0.25307548  0.93837047  1
  Se  Se159  1  0.41617621  0.58447967  0.44523046  1
  Se  Se160  1  0.41520879  0.57667757  0.94600828  1
  Se  Se161  1  0.42081404  0.91732432  0.45041382  1
  Se  Se162  1  0.40810960  0.92202038  0.94046983  1
  Se  Se163  1  0.74699533  0.25895114  0.43261742  1
  Se  Se164  1  0.72470390  0.27537070  0.94880906  1
  Se  Se165  1  0.75329904  0.57508852  0.44435403  1
  Se  Se166  1  0.75129912  0.58056527  0.95072263  1
  Se  Se167  1  0.74381438  0.92690906  0.44546888  1
  Se  Se168  1  0.75146809  0.91541499  0.94736527  1
  Se  Se169  1  0.25067893  0.08144375  0.45104586  1
  Se  Se170  1  0.24240643  0.09171342  0.94834325  1
  Se  Se171  1  0.24745737  0.42013785  0.44684874  1
  Se  Se172  1  0.25181565  0.40600404  0.93464627  1
  Se  Se173  1  0.24974631  0.74589012  0.43346210  1
  Se  Se174  1  0.24928831  0.74695637  0.94774597  1
  Se  Se175  1  0.58809262  0.09981757  0.44682968  1
  Se  Se176  1  0.59116143  0.08177269  0.93793600  1
  Se  Se177  1  0.58076143  0.41884409  0.44170822  1
  Se  Se178  1  0.56847425  0.41982702  0.95835343  1
  Se  Se179  1  0.58938740  0.75081895  0.44419968  1
  Se  Se180  1  0.59185762  0.73886415  0.93706974  1
  Se  Se181  1  0.92491271  0.08464651  0.43815840  1
  Se  Se182  1  0.90676913  0.08997946  0.94500574  1
  Se  Se183  1  0.91740918  0.39563638  0.44004065  1
  Se  Se184  1  0.91952313  0.42474183  0.95102937  1
  Se  Se185  1  0.92198962  0.73939300  0.43748274  1
  Se  Se186  1  0.91062778  0.75118957  0.95143859  1
  Se  Se187  1  0.25248043  0.25070944  0.30349904  1
  Se  Se188  1  0.24432546  0.25139442  0.81040912  1
  Se  Se189  1  0.24199175  0.57053090  0.31103048  1
  Se  Se190  1  0.25245756  0.58456106  0.79620851  1
  Se  Se191  1  0.23841715  0.90815552  0.30171391  1
  Se  Se192  1  0.24359479  0.91699103  0.81961105  1
  Se  Se193  1  0.58510031  0.25574587  0.30205676  1
  Se  Se194  1  0.58766183  0.23655123  0.81291712  1
  Se  Se195  1  0.58926084  0.58648904  0.30297262  1
  Se  Se196  1  0.58179001  0.57077566  0.81121355  1
  Se  Se197  1  0.58873594  0.92363859  0.30946045  1
  Se  Se198  1  0.58701812  0.91563387  0.79710583  1
  Se  Se199  1  0.90202968  0.22618360  0.29917942  1
  Se  Se200  1  0.91538201  0.26675577  0.81197858  1
  Se  Se201  1  0.92067463  0.57743969  0.30498296  1
  Se  Se202  1  0.90651194  0.57667146  0.80547745  1
  Se  Se203  1  0.90590594  0.90921005  0.31371782  1
  Se  Se204  1  0.92040246  0.91880928  0.80583989  1
  Se  Se205  1  0.08336847  0.09073681  0.31646970  1
  Se  Se206  1  0.07708466  0.09088392  0.80554440  1
  Se  Se207  1  0.07931161  0.40762388  0.30791424  1
  Se  Se208  1  0.10870539  0.44632429  0.80114838  1
  Se  Se209  1  0.07401172  0.74466318  0.29552147  1
  Se  Se210  1  0.08777420  0.75825440  0.81793674  1
  Se  Se211  1  0.42409405  0.08946408  0.31761187  1
  Se  Se212  1  0.42625515  0.08469313  0.80408374  1
  Se  Se213  1  0.41733863  0.41583685  0.30158332  1
  Se  Se214  1  0.42531988  0.41623012  0.80799392  1
  Se  Se215  1  0.42407024  0.75868966  0.31459266  1
  Se  Se216  1  0.41886408  0.74693601  0.79896581  1
  Se  Se217  1  0.75385461  0.08785950  0.29487250  1
  Se  Se218  1  0.74324431  0.06915655  0.80294210  1
  Se  Se219  1  0.74682576  0.41882382  0.29688803  1
  Se  Se220  1  0.75369332  0.42537144  0.81338353  1
  Se  Se221  1  0.75248697  0.75028455  0.30228170  1
  Se  Se222  1  0.75557876  0.75089227  0.80953485  1
  Se  Se223  1  0.23801183  0.08733453  0.19181080  1
  Se  Se224  1  0.24494566  0.09618029  0.69619533  1
  Se  Se225  1  0.24758992  0.41055484  0.20133621  1
  Se  Se226  1  0.24357022  0.42454250  0.68221421  1
  Se  Se227  1  0.24808707  0.74873382  0.18792756  1
  Se  Se228  1  0.24977562  0.75659908  0.70069798  1
  Se  Se229  1  0.58396194  0.08118326  0.20195417  1
  Se  Se230  1  0.59502140  0.08178822  0.68919219  1
  Se  Se231  1  0.58425788  0.41982014  0.19574696  1
  Se  Se232  1  0.58042131  0.41715847  0.69047380  1
  Se  Se233  1  0.58777224  0.74790312  0.20471726  1
  Se  Se234  1  0.57786463  0.75142002  0.68447115  1
  Se  Se235  1  0.91068593  0.08487912  0.18699277  1
  Se  Se236  1  0.93155661  0.07456517  0.69877903  1
  Se  Se237  1  0.91932836  0.41218772  0.19905220  1
  Se  Se238  1  0.92368702  0.41548186  0.69719496  1
  Se  Se239  1  0.91806725  0.74754920  0.19212116  1
  Se  Se240  1  0.91103107  0.75546274  0.69225792  1
  Se  Se241  1  0.07714040  0.25003233  0.20017741  1
  Se  Se242  1  0.07960484  0.25921766  0.69496066  1
  Se  Se243  1  0.08089970  0.58026602  0.19872773  1
  Se  Se244  1  0.08017530  0.58366722  0.67938453  1
  Se  Se245  1  0.08156142  0.91177566  0.18762643  1
  Se  Se246  1  0.08242993  0.92109932  0.70546521  1
  Se  Se247  1  0.41342444  0.24787313  0.20030165  1
  Se  Se248  1  0.43297686  0.24462570  0.69184548  1
  Se  Se249  1  0.42066249  0.57791160  0.19178808  1
  Se  Se250  1  0.41684532  0.58509922  0.69235236  1
  Se  Se251  1  0.42643530  0.90890348  0.19453631  1
  Se  Se252  1  0.42955275  0.91693113  0.68440471  1
  Se  Se253  1  0.74718474  0.25987228  0.20068847  1
  Se  Se254  1  0.76773838  0.23747688  0.69369391  1
  Se  Se255  1  0.74927849  0.58645395  0.19538479  1
  Se  Se256  1  0.75695173  0.56735864  0.69418673  1
  Se  Se257  1  0.74996797  0.91804584  0.19603848  1
  Se  Se258  1  0.74917626  0.91229902  0.69585770  1
