# generated using pymatgen
data_In86Cu29Se144
_symmetry_space_group_name_H-M   'P 1'
_cell_length_a   17.57811133
_cell_length_b   17.57828343
_cell_length_c   23.43749594
_cell_angle_alpha   90.03598210
_cell_angle_beta   90.00844188
_cell_angle_gamma   90.01833484
_symmetry_Int_Tables_number   1
_chemical_formula_structural   In86Cu29Se144
_chemical_formula_sum   'In86 Cu29 Se144'
_cell_volume   7242.02084531
_cell_formula_units_Z   1
loop_
 _symmetry_equiv_pos_site_id
 _symmetry_equiv_pos_as_xyz
  1  'x, y, z'
loop_
 _atom_site_type_symbol
 _atom_site_label
 _atom_site_symmetry_multiplicity
 _atom_site_fract_x
 _atom_site_fract_y
 _atom_site_fract_z
 _atom_site_occupancy
  In  In0  1  0.01226811  0.16301147  0.12707041  1
  In  In1  1  0.00207077  0.16274467  0.62281069  1
  In  In2  1  0.01108123  0.48865852  0.13585872  1
  In  In3  1  -0.00722668  0.49347151  0.62862830  1
  In  In4  1  0.00179532  0.82810815  0.12582921  1
  In  In5  1  0.01293488  0.84215209  0.61697111  1
  In  In6  1  0.33224061  0.18762962  0.12874596  1
  In  In7  1  0.33081421  0.16927361  0.62271556  1
  In  In8  1  0.33119861  0.49480515  0.11728202  1
  In  In9  1  0.33288090  0.47879804  0.62973045  1
  In  In10  1  0.32951395  0.82845311  0.11782028  1
  In  In11  1  0.33384220  0.84837781  0.62680070  1
  In  In12  1  0.64636385  0.16543102  0.13998659  1
  In  In13  1  0.67794818  0.17446337  0.61092024  1
  In  In14  1  0.66425698  0.51160579  0.12878506  1
  In  In15  1  0.65880176  0.50846837  0.62625295  1
  In  In16  1  0.66137971  0.83651958  0.13276292  1
  In  In17  1  0.66819763  0.82148545  0.62149384  1
  In  In18  1  0.16816091  0.00087907  0.38180560  1
  In  In19  1  0.16808490  0.00304180  0.87326622  1
  In  In20  1  0.16003999  0.32452710  0.36999185  1
  In  In21  1  0.16566667  0.33355850  0.87299663  1
  In  In22  1  0.15752129  0.67726984  0.37013572  1
  In  In23  1  0.17191527  0.66139427  0.88579169  1
  In  In24  1  0.51959954  0.00825145  0.37628597  1
  In  In25  1  0.48671738  0.00469931  0.87429871  1
  In  In26  1  0.49345292  0.33790563  0.38104863  1
  In  In27  1  0.50003785  0.34129012  0.86811226  1
  In  In28  1  0.49876625  0.64871677  0.37177415  1
  In  In29  1  0.50724367  0.65987143  0.88164111  1
  In  In30  1  0.81201131  0.01271179  0.39590170  1
  In  In31  1  0.84257562  -0.01185641  0.86944437  1
  In  In32  1  0.83812165  0.31671640  0.37194125  1
  In  In33  1  0.83245794  0.33289663  0.86587209  1
  In  In34  1  0.84467678  0.67228004  0.36389010  1
  In  In35  1  0.82667213  0.67778034  0.87065402  1
  In  In36  1  -0.00702385  0.17091568  0.38012886  1
  In  In37  1  0.01471331  0.18123311  0.86371848  1
  In  In38  1  -0.00431820  0.49763427  0.35809677  1
  In  In39  1  0.01223219  0.49210212  0.87629024  1
  In  In40  1  0.00247242  0.83022882  0.37599712  1
  In  In41  1  0.00014732  0.84563635  0.87150924  1
  In  In42  1  0.32463398  0.17588020  0.38297221  1
  In  In43  1  0.32349583  0.15595426  0.86542775  1
  In  In44  1  0.35303344  0.49276943  0.37394397  1
  In  In45  1  0.33493639  0.49671580  0.87648537  1
  In  In46  1  0.32046488  0.83172991  0.37859124  1
  In  In47  1  0.32474828  0.84147717  0.88202698  1
  In  In48  1  0.67529011  0.15807109  0.38984317  1
  In  In49  1  0.65365299  0.17257711  0.86856126  1
  In  In50  1  0.64864556  0.49733688  0.36777139  1
  In  In51  1  0.65894757  0.49560394  0.86901503  1
  In  In52  1  0.67870169  0.84448713  0.37178731  1
  In  In53  1  0.67175549  0.82216475  0.87386205  1
  In  In54  1  0.16304077  0.00288167  0.11726533  1
  In  In55  1  0.16842869  0.00091267  0.62443754  1
  In  In56  1  0.16868877  0.33541053  0.12186103  1
  In  In57  1  0.18232789  0.32011403  0.63950116  1
  In  In58  1  0.16873150  0.66504173  0.12061746  1
  In  In59  1  0.15419582  0.66767838  0.62535114  1
  In  In60  1  0.51106730  0.00180128  0.13031541  1
  In  In61  1  0.48445886  0.00284642  0.62626688  1
  In  In62  1  0.48194314  0.33135021  0.12919454  1
  In  In63  1  0.50041655  0.33480546  0.62205404  1
  In  In64  1  0.50266190  0.66929212  0.12123329  1
  In  In65  1  0.51296024  0.67061835  0.62262372  1
  In  In66  1  0.83115987  -0.00668655  0.13021399  1
  In  In67  1  0.84676793  0.01429652  0.60754786  1
  In  In68  1  0.83451457  0.34845625  0.13558463  1
  In  In69  1  0.84091899  0.32130612  0.62937751  1
  In  In70  1  0.83181214  0.66520020  0.14551479  1
  In  In71  1  0.82146646  0.66067157  0.62132220  1
  In  In72  1  0.66781802  0.00350027  0.73838867  1
  In  In73  1  0.33526471  -0.00052522  0.25915790  1
  In  In74  1  0.83606079  0.83116726  0.00405072  1
  In  In75  1  0.16719963  0.49921442  0.50371826  1
  In  In76  1  0.67011305  0.33085080  0.25638717  1
  In  In77  1  -0.00322497  0.66327787  0.75413967  1
  In  In78  1  0.49970035  0.83752911  0.49707716  1
  In  In79  1  0.48971098  0.16450039  0.00323123  1
  In  In80  1  0.83700561  0.50520194  0.01025592  1
  In  In81  1  0.82948790  0.49741923  0.49176684  1
  In  In82  1  0.83789307  0.16467018  0.00425188  1
  In  In83  1  -0.00635664  0.00444048  0.25382121  1
  In  In84  1  0.33719657  0.66613450  0.76126333  1
  In  In85  1  0.32949565  0.66028514  0.24370071  1
  Cu  Cu86  1  0.66634310  0.33732873  0.49713955  1
  Cu  Cu87  1  0.17311350  0.83838261  0.75094244  1
  Cu  Cu88  1  0.65869539  0.33518972  -0.00632729  1
  Cu  Cu89  1  0.33063059  0.66497341  0.49562356  1
  Cu  Cu90  1  0.83181221  0.16291323  0.74071758  1
  Cu  Cu91  1  0.66533702  0.66621910  0.49682375  1
  Cu  Cu92  1  0.82512296  0.49465062  0.74655878  1
  Cu  Cu93  1  0.50307926  0.83758702  0.74767240  1
  Cu  Cu94  1  0.50009921  0.50310322  0.74988023  1
  Cu  Cu95  1  0.33379026  0.33259034  0.50371425  1
  Cu  Cu96  1  0.00802175  0.66506953  0.00530579  1
  Cu  Cu97  1  0.32895001  0.33338162  -0.00327332  1
  Cu  Cu98  1  0.49430066  0.17928342  0.74553071  1
  Cu  Cu99  1  0.33742424  0.66557020  0.00000299  1
  Cu  Cu100  1  0.83717620  0.83315904  0.74385401  1
  Cu  Cu101  1  0.82651980  0.84206516  0.25641443  1
  Cu  Cu102  1  0.01158694  0.00726771  -0.00699661  1
  Cu  Cu103  1  0.00428843  0.32451972  0.50178890  1
  Cu  Cu104  1  0.32926905  0.00592474  0.50219270  1
  Cu  Cu105  1  0.17616738  0.49627283  0.24466603  1
  Cu  Cu106  1  0.66344955  0.66616783  0.00140423  1
  Cu  Cu107  1  0.49978626  0.82604144  0.25151193  1
  Cu  Cu108  1  0.17288696  0.17586848  0.24931729  1
  Cu  Cu109  1  0.00367618  -0.00466299  0.49939288  1
  Cu  Cu110  1  0.16609023  0.16346068  0.74732440  1
  Cu  Cu111  1  0.66156266  -0.00453441  0.00864650  1
  Cu  Cu112  1  0.00735108  0.33349323  0.00137686  1
  Cu  Cu113  1  -0.00030993  0.67232390  0.49391907  1
  Cu  Cu114  1  0.33006435  -0.00285230  -0.00219644  1
  Se  Se115  1  0.08890996  0.09328444  0.04845884  1
  Se  Se116  1  0.08544158  0.08090303  0.55373310  1
  Se  Se117  1  0.08573694  0.42211189  0.05421069  1
  Se  Se118  1  0.07989606  0.40673138  0.56331885  1
  Se  Se119  1  0.08758337  0.75570215  0.05427599  1
  Se  Se120  1  0.08747848  0.74913689  0.54904862  1
  Se  Se121  1  0.40444914  0.07367151  0.06598708  1
  Se  Se122  1  0.41574797  0.08808791  0.55243588  1
  Se  Se123  1  0.41775504  0.41155334  0.04978437  1
  Se  Se124  1  0.41788159  0.41994875  0.55188899  1
  Se  Se125  1  0.41957443  0.75097470  0.05221290  1
  Se  Se126  1  0.40888337  0.74691384  0.55881442  1
  Se  Se127  1  0.73956559  0.08100695  0.06437275  1
  Se  Se128  1  0.74261534  0.07584456  0.54625752  1
  Se  Se129  1  0.73992331  0.40862927  0.05823150  1
  Se  Se130  1  0.74790610  0.41353306  0.56170979  1
  Se  Se131  1  0.74812636  0.74005841  0.06359586  1
  Se  Se132  1  0.75180376  0.74714939  0.54804951  1
  Se  Se133  1  0.24816451  0.24899320  0.05107359  1
  Se  Se134  1  0.24477141  0.25170345  0.55387711  1
  Se  Se135  1  0.25094702  0.58292017  0.05169608  1
  Se  Se136  1  0.25815428  0.58877789  0.56473091  1
  Se  Se137  1  0.24628560  0.91538478  0.05279246  1
  Se  Se138  1  0.24915290  0.91578584  0.55260659  1
  Se  Se139  1  0.58615551  0.25347353  0.05862102  1
  Se  Se140  1  0.58223417  0.25413258  0.55073810  1
  Se  Se141  1  0.58157611  0.57959390  0.05250377  1
  Se  Se142  1  0.58122040  0.58339605  0.54914082  1
  Se  Se143  1  0.57857360  0.91081598  0.05820400  1
  Se  Se144  1  0.58395492  0.92185364  0.56409300  1
  Se  Se145  1  0.92182430  0.26175544  0.06342362  1
  Se  Se146  1  0.91539252  0.24455923  0.55330739  1
  Se  Se147  1  0.92589580  0.59506373  0.06969134  1
  Se  Se148  1  0.92374078  0.58702299  0.55387229  1
  Se  Se149  1  0.92871599  0.93089840  0.05549724  1
  Se  Se150  1  0.91759809  0.90946755  0.54914969  1
  Se  Se151  1  0.08877459  0.24475438  0.44653001  1
  Se  Se152  1  0.08593677  0.24895726  0.94577166  1
  Se  Se153  1  0.07520337  0.58148287  0.43846475  1
  Se  Se154  1  0.08288800  0.57825405  0.94905050  1
  Se  Se155  1  0.08592850  0.91203717  0.44533619  1
  Se  Se156  1  0.08801554  0.91469932  0.94290507  1
  Se  Se157  1  0.41765669  0.24946337  0.45047380  1
  Se  Se158  1  0.40924468  0.25223307  0.93544072  1
  Se  Se159  1  0.41774445  0.58058010  0.44920020  1
  Se  Se160  1  0.41719475  0.57996322  0.94527148  1
  Se  Se161  1  0.40758971  0.92760941  0.43755563  1
  Se  Se162  1  0.41977524  0.91775926  0.94757772  1
  Se  Se163  1  0.75678257  0.25422420  0.45114916  1
  Se  Se164  1  0.74343966  0.25213060  0.94118965  1
  Se  Se165  1  0.74320989  0.58904870  0.43201599  1
  Se  Se166  1  0.74803386  0.58850785  0.94206889  1
  Se  Se167  1  0.74377958  0.91006690  0.45630340  1
  Se  Se168  1  0.74529118  0.92413856  0.94421757  1
  Se  Se169  1  0.24424634  0.08860567  0.45001060  1
  Se  Se170  1  0.25037064  0.08450102  0.94499001  1
  Se  Se171  1  0.25460521  0.41173818  0.43995066  1
  Se  Se172  1  0.24625227  0.41777052  0.94357164  1
  Se  Se173  1  0.24261214  0.74541214  0.44658979  1
  Se  Se174  1  0.25113019  0.75072908  0.95007878  1
  Se  Se175  1  0.58516440  0.08100321  0.45684168  1
  Se  Se176  1  0.58901441  0.07779317  0.94390156  1
  Se  Se177  1  0.58134617  0.42159534  0.44765371  1
  Se  Se178  1  0.57739624  0.42041209  0.94294812  1
  Se  Se179  1  0.58376449  0.74490339  0.43524757  1
  Se  Se180  1  0.58586519  0.75352613  0.94694703  1
  Se  Se181  1  0.92020465  0.08325166  0.45073436  1
  Se  Se182  1  0.92381463  0.08191100  0.93509767  1
  Se  Se183  1  0.93056620  0.41009249  0.44031318  1
  Se  Se184  1  0.91600677  0.40893088  0.94519323  1
  Se  Se185  1  0.91125318  0.75162274  0.44320518  1
  Se  Se186  1  0.92749108  0.74172525  0.94170347  1
  Se  Se187  1  0.25862340  0.25592366  0.30309461  1
  Se  Se188  1  0.24742537  0.24941001  0.80185932  1
  Se  Se189  1  0.24615145  0.57436853  0.31400601  1
  Se  Se190  1  0.23753218  0.57505444  0.80803586  1
  Se  Se191  1  0.23390210  0.90747150  0.30537335  1
  Se  Se192  1  0.25568899  0.92144567  0.80473779  1
  Se  Se193  1  0.58592046  0.24502758  0.32173062  1
  Se  Se194  1  0.58224666  0.25818308  0.79804175  1
  Se  Se195  1  0.57992992  0.58373897  0.29531262  1
  Se  Se196  1  0.58347390  0.58840312  0.80265755  1
  Se  Se197  1  0.58010037  0.91216127  0.30547720  1
  Se  Se198  1  0.58467315  0.91799972  0.80955252  1
  Se  Se199  1  0.93029563  0.25264726  0.30191276  1
  Se  Se200  1  0.91158131  0.24522133  0.80006982  1
  Se  Se201  1  0.92182582  0.58915341  0.29410832  1
  Se  Se202  1  0.90409527  0.57163909  0.81284768  1
  Se  Se203  1  0.90528708  0.92095711  0.31840817  1
  Se  Se204  1  0.92239372  0.91675874  0.79376622  1
  Se  Se205  1  0.09383349  0.09207684  0.30864522  1
  Se  Se206  1  0.08260289  0.07913065  0.80154200  1
  Se  Se207  1  0.09036028  0.41539137  0.29965242  1
  Se  Se208  1  0.06969712  0.40089970  0.80418662  1
  Se  Se209  1  0.06969660  0.74597515  0.29986835  1
  Se  Se210  1  0.09368679  0.75421344  0.81020920  1
  Se  Se211  1  0.42088707  0.09173423  0.31703562  1
  Se  Se212  1  0.41993257  0.08674024  0.79802788  1
  Se  Se213  1  0.42403067  0.41246079  0.30056259  1
  Se  Se214  1  0.41296630  0.42081337  0.80041984  1
  Se  Se215  1  0.41415804  0.75247073  0.31103771  1
  Se  Se216  1  0.42719226  0.76147762  0.81542020  1
  Se  Se217  1  0.75747474  0.09026938  0.31304762  1
  Se  Se218  1  0.75577204  0.08715270  0.80955179  1
  Se  Se219  1  0.76038138  0.42247987  0.31498476  1
  Se  Se220  1  0.74216551  0.41196147  0.80169659  1
  Se  Se221  1  0.74590118  0.74931699  0.30330451  1
  Se  Se222  1  0.74965989  0.75258689  0.79525636  1
  Se  Se223  1  0.24715146  0.08673726  0.19141020  1
  Se  Se224  1  0.25248557  0.08299479  0.69317335  1
  Se  Se225  1  0.25795101  0.41204282  0.19165053  1
  Se  Se226  1  0.24136713  0.42422610  0.70307773  1
  Se  Se227  1  0.24102672  0.76003804  0.19386198  1
  Se  Se228  1  0.24825869  0.75140421  0.69268037  1
  Se  Se229  1  0.58353228  0.07197069  0.20902889  1
  Se  Se230  1  0.57589252  0.09782590  0.68547401  1
  Se  Se231  1  0.58073754  0.41377506  0.18974393  1
  Se  Se232  1  0.58090118  0.41963289  0.69309478  1
  Se  Se233  1  0.58272558  0.74420139  0.19676400  1
  Se  Se234  1  0.58542932  0.75165203  0.69771948  1
  Se  Se235  1  0.90739161  0.09497342  0.19098772  1
  Se  Se236  1  0.91723670  0.07841871  0.69180398  1
  Se  Se237  1  0.91692249  0.42381165  0.20488976  1
  Se  Se238  1  0.91379918  0.41251831  0.69872640  1
  Se  Se239  1  0.91268187  0.76501978  0.19970874  1
  Se  Se240  1  0.91637027  0.74926867  0.68454820  1
  Se  Se241  1  0.08666844  0.25368871  0.19384842  1
  Se  Se242  1  0.07883037  0.24597590  0.69575870  1
  Se  Se243  1  0.09347380  0.58424973  0.19483870  1
  Se  Se244  1  0.08800341  0.57204117  0.69624556  1
  Se  Se245  1  0.08621994  0.91855575  0.19240960  1
  Se  Se246  1  0.08687750  0.91564348  0.69503054  1
  Se  Se247  1  0.44300115  0.22106750  0.19500421  1
  Se  Se248  1  0.40964720  0.25884815  0.69075630  1
  Se  Se249  1  0.42340649  0.57332554  0.18805297  1
  Se  Se250  1  0.42095494  0.58447775  0.68913622  1
  Se  Se251  1  0.41811959  0.90694893  0.19283614  1
  Se  Se252  1  0.41425156  0.92065287  0.70220299  1
  Se  Se253  1  0.75703395  0.24174549  0.19121812  1
  Se  Se254  1  0.74409625  0.24762896  0.69398765  1
  Se  Se255  1  0.75108484  0.57250709  0.20343175  1
  Se  Se256  1  0.74633878  0.58503840  0.69709438  1
  Se  Se257  1  0.74352615  0.92205515  0.20013634  1
  Se  Se258  1  0.76067090  0.91438377  0.68155327  1
