# generated using pymatgen
data_In86Cu29Se144
_symmetry_space_group_name_H-M   'P 1'
_cell_length_a   17.57708179
_cell_length_b   17.57950416
_cell_length_c   23.43047845
_cell_angle_alpha   89.98242744
_cell_angle_beta   89.99933252
_cell_angle_gamma   90.01201416
_symmetry_Int_Tables_number   1
_chemical_formula_structural   In86Cu29Se144
_chemical_formula_sum   'In86 Cu29 Se144'
_cell_volume   7239.93257705
_cell_formula_units_Z   1
loop_
 _symmetry_equiv_pos_site_id
 _symmetry_equiv_pos_as_xyz
  1  'x, y, z'
loop_
 _atom_site_type_symbol
 _atom_site_label
 _atom_site_symmetry_multiplicity
 _atom_site_fract_x
 _atom_site_fract_y
 _atom_site_fract_z
 _atom_site_occupancy
  In  In0  1  0.01361269  0.17728157  0.10966566  1
  In  In1  1  -0.00582729  0.16358694  0.64463099  1
  In  In2  1  -0.00730135  0.49263131  0.11205649  1
  In  In3  1  -0.00510578  0.50736624  0.63429409  1
  In  In4  1  0.00470453  0.82579200  0.11919618  1
  In  In5  1  0.00045344  0.83128954  0.63424687  1
  In  In6  1  0.33169085  0.18010088  0.12072475  1
  In  In7  1  0.34639693  0.15737165  0.64279839  1
  In  In8  1  0.32246633  0.49928290  0.11826066  1
  In  In9  1  0.32847726  0.50154841  0.63885678  1
  In  In10  1  0.33809640  0.83403482  0.10966679  1
  In  In11  1  0.33005749  0.83712582  0.63173470  1
  In  In12  1  0.67236020  0.16277501  0.12686917  1
  In  In13  1  0.65762098  0.17052763  0.62999077  1
  In  In14  1  0.66082430  0.48354650  0.12389526  1
  In  In15  1  0.68439048  0.49911408  0.62148704  1
  In  In16  1  0.66525224  0.84742624  0.12613159  1
  In  In17  1  0.67061113  0.82100599  0.63120718  1
  In  In18  1  0.15779346  -0.00500067  0.37957555  1
  In  In19  1  0.16551380  -0.00339194  0.87996702  1
  In  In20  1  0.16471685  0.33878052  0.36327724  1
  In  In21  1  0.16315045  0.33516374  0.87628507  1
  In  In22  1  0.17685426  0.67335248  0.37995957  1
  In  In23  1  0.16831279  0.67081392  0.87480477  1
  In  In24  1  0.51874749  -0.00400548  0.37790779  1
  In  In25  1  0.48646353  -0.00483213  0.86221945  1
  In  In26  1  0.49207210  0.32199591  0.37112324  1
  In  In27  1  0.48810078  0.34363983  0.86543192  1
  In  In28  1  0.48665993  0.66943001  0.37978222  1
  In  In29  1  0.50955732  0.66986467  0.86415183  1
  In  In30  1  0.82333853  0.00526110  0.37938805  1
  In  In31  1  0.84750152  0.02897968  0.84703659  1
  In  In32  1  0.83778610  0.33863555  0.36923608  1
  In  In33  1  0.84879814  0.31737077  0.88254911  1
  In  In34  1  0.83864731  0.66584298  0.38793847  1
  In  In35  1  0.82794870  0.65799857  0.87155870  1
  In  In36  1  -0.01233990  0.17012486  0.37259570  1
  In  In37  1  -0.00350416  0.16427726  0.87748056  1
  In  In38  1  0.00127879  0.49114980  0.37365444  1
  In  In39  1  -0.00089934  0.49955283  0.87531334  1
  In  In40  1  0.00429736  0.82863873  0.38833046  1
  In  In41  1  0.01420616  0.84953372  0.87141159  1
  In  In42  1  0.32970890  0.17814362  0.37546209  1
  In  In43  1  0.32619610  0.15437842  0.86147977  1
  In  In44  1  0.33834388  0.49664357  0.37607816  1
  In  In45  1  0.32903643  0.49387359  0.86492351  1
  In  In46  1  0.32707419  0.82541353  0.37818731  1
  In  In47  1  0.33043246  0.83165759  0.87633978  1
  In  In48  1  0.65971817  0.15460722  0.37074867  1
  In  In49  1  0.67970240  0.16881285  0.86993865  1
  In  In50  1  0.68007102  0.50041582  0.37580320  1
  In  In51  1  0.66617211  0.51199657  0.87286243  1
  In  In52  1  0.66330405  0.85355633  0.37827335  1
  In  In53  1  0.66373503  0.83018194  0.87173472  1
  In  In54  1  0.15974530  -0.00097734  0.10597838  1
  In  In55  1  0.17536440  -0.01051468  0.63671046  1
  In  In56  1  0.16510252  0.33472252  0.11810860  1
  In  In57  1  0.16609620  0.32588137  0.63459665  1
  In  In58  1  0.18227196  0.66761304  0.10324700  1
  In  In59  1  0.16365826  0.67161043  0.63672376  1
  In  In60  1  0.51284756  -0.00335375  0.12030021  1
  In  In61  1  0.49965144  0.01368209  0.64090992  1
  In  In62  1  0.50186846  0.32936535  0.13425542  1
  In  In63  1  0.49955010  0.31842220  0.62771347  1
  In  In64  1  0.48822536  0.67283296  0.11942138  1
  In  In65  1  0.48925929  0.66735711  0.63993602  1
  In  In66  1  0.82007689  -0.00012402  0.12550870  1
  In  In67  1  0.84498198  -0.01192840  0.64093061  1
  In  In68  1  0.83422778  0.33509908  0.12246840  1
  In  In69  1  0.83260851  0.34323141  0.62570741  1
  In  In70  1  0.84519346  0.66910197  0.11733176  1
  In  In71  1  0.83473493  0.66609999  0.62836253  1
  In  In72  1  0.16198148  0.50614833  0.50591805  1
  In  In73  1  0.49848679  0.16257356  -0.00440080  1
  In  In74  1  0.33527721  0.66421601  0.25347207  1
  In  In75  1  0.49805476  0.50398594  -0.00596394  1
  In  In76  1  0.83096627  0.16354418  0.50247998  1
  In  In77  1  0.50123954  0.50123113  0.49974746  1
  In  In78  1  0.50151480  0.83555042  0.50524862  1
  In  In79  1  0.83691231  0.84057277  -0.00742755  1
  In  In80  1  0.66854766  0.33484502  0.75082747  1
  In  In81  1  0.66634086  0.66431691  0.25079049  1
  In  In82  1  0.00455544  0.66072114  0.24170532  1
  In  In83  1  0.16699222  0.16415584  0.50489204  1
  In  In84  1  -0.00503394  0.00749621  0.24689986  1
  In  In85  1  0.33972792  0.00579839  0.23774219  1
  Cu  Cu86  1  0.00542355  -0.01098314  0.51277104  1
  Cu  Cu87  1  0.66964704  -0.00061512  0.50502819  1
  Cu  Cu88  1  0.33789904  0.32998841  0.50033357  1
  Cu  Cu89  1  0.16285849  0.49207674  0.23909707  1
  Cu  Cu90  1  0.82666799  0.84068980  0.25672155  1
  Cu  Cu91  1  0.67566817  0.33203334  -0.00206105  1
  Cu  Cu92  1  0.49655091  0.83568319  0.75050383  1
  Cu  Cu93  1  0.50092758  0.16418562  0.24946517  1
  Cu  Cu94  1  0.17218203  0.83359153  0.24744196  1
  Cu  Cu95  1  0.83656280  0.49817974  0.75156616  1
  Cu  Cu96  1  0.66562152  0.67111267  -0.00695776  1
  Cu  Cu97  1  0.67158785  0.66630805  0.50436989  1
  Cu  Cu98  1  0.32695064  0.33374574  -0.00472059  1
  Cu  Cu99  1  0.16573186  0.17727850  0.24217191  1
  Cu  Cu100  1  0.83094349  0.82211180  0.75450369  1
  Cu  Cu101  1  0.33118894  -0.00124557  -0.01050902  1
  Cu  Cu102  1  0.15938436  0.49888848  0.75624133  1
  Cu  Cu103  1  0.00093976  0.33646793  -0.00352077  1
  Cu  Cu104  1  0.66699901  -0.00427777  -0.00508480  1
  Cu  Cu105  1  -0.00307665  0.66922634  0.51316072  1
  Cu  Cu106  1  0.33898980  0.00239594  0.51357552  1
  Cu  Cu107  1  0.00434018  0.66553363  -0.00632085  1
  Cu  Cu108  1  0.83158697  0.17658923  0.24689737  1
  Cu  Cu109  1  0.16888805  0.83664467  0.75583373  1
  Cu  Cu110  1  0.83140590  0.49540844  0.24565956  1
  Cu  Cu111  1  0.16358802  0.16898192  0.75951548  1
  Cu  Cu112  1  -0.00384523  0.33548255  0.49762654  1
  Cu  Cu113  1  0.49946605  0.49062972  0.25329245  1
  Cu  Cu114  1  0.66592421  0.32875309  0.50447746  1
  Se  Se115  1  0.07673864  0.08140173  0.04169456  1
  Se  Se116  1  0.07710844  0.07982535  0.56901535  1
  Se  Se117  1  0.08799518  0.42051928  0.04732585  1
  Se  Se118  1  0.07748309  0.40802676  0.56219282  1
  Se  Se119  1  0.08573902  0.75128947  0.04682282  1
  Se  Se120  1  0.08460304  0.75016903  0.56292108  1
  Se  Se121  1  0.40743127  0.07404448  0.05861836  1
  Se  Se122  1  0.42193696  0.08697047  0.56307126  1
  Se  Se123  1  0.41710067  0.40445005  0.05609201  1
  Se  Se124  1  0.41002020  0.41517722  0.56179725  1
  Se  Se125  1  0.41287899  0.74353410  0.04392323  1
  Se  Se126  1  0.41107873  0.74458323  0.56168190  1
  Se  Se127  1  0.74491811  0.08092168  0.05164118  1
  Se  Se128  1  0.74946294  0.07558758  0.56848802  1
  Se  Se129  1  0.75199447  0.42053902  0.05205215  1
  Se  Se130  1  0.75500308  0.41409533  0.54757249  1
  Se  Se131  1  0.74518790  0.75046045  0.05701423  1
  Se  Se132  1  0.75420044  0.75052091  0.55669802  1
  Se  Se133  1  0.24531343  0.24803697  0.04803732  1
  Se  Se134  1  0.25975059  0.25115071  0.56342962  1
  Se  Se135  1  0.26385956  0.58111099  0.04022673  1
  Se  Se136  1  0.25498327  0.59041220  0.56480804  1
  Se  Se137  1  0.24936052  0.91477871  0.04557952  1
  Se  Se138  1  0.25095827  0.91726045  0.55806669  1
  Se  Se139  1  0.58664120  0.25609099  0.05590851  1
  Se  Se140  1  0.58109966  0.24458517  0.55285569  1
  Se  Se141  1  0.59077221  0.59017243  0.05918911  1
  Se  Se142  1  0.58560231  0.59216778  0.56352492  1
  Se  Se143  1  0.58351381  0.91149766  0.04663198  1
  Se  Se144  1  0.58783545  0.92399111  0.56794254  1
  Se  Se145  1  0.91486992  0.25453701  0.05075152  1
  Se  Se146  1  0.92593684  0.24982810  0.56079990  1
  Se  Se147  1  0.91633529  0.58505167  0.04551868  1
  Se  Se148  1  0.91430582  0.57829421  0.55802984  1
  Se  Se149  1  0.92170953  0.92470875  0.06153628  1
  Se  Se150  1  0.91501241  0.91085257  0.56220662  1
  Se  Se151  1  0.07954473  0.25583079  0.43968399  1
  Se  Se152  1  0.08226626  0.24984925  0.94445051  1
  Se  Se153  1  0.07154136  0.59505946  0.44168909  1
  Se  Se154  1  0.08707391  0.58072724  0.94205785  1
  Se  Se155  1  0.08978905  0.91229463  0.45436275  1
  Se  Se156  1  0.07790077  0.92451333  0.95201568  1
  Se  Se157  1  0.41902683  0.24416867  0.44873554  1
  Se  Se158  1  0.40961435  0.25456698  0.93636290  1
  Se  Se159  1  0.39839327  0.59295564  0.45044982  1
  Se  Se160  1  0.41266839  0.58929496  0.93100493  1
  Se  Se161  1  0.41137005  0.92522537  0.44272537  1
  Se  Se162  1  0.42018676  0.91715079  0.94189864  1
  Se  Se163  1  0.74542791  0.25221957  0.43837762  1
  Se  Se164  1  0.75390004  0.24183528  0.94831383  1
  Se  Se165  1  0.75201145  0.58000027  0.45118099  1
  Se  Se166  1  0.74957741  0.58241886  0.94831835  1
  Se  Se167  1  0.75384693  0.91722004  0.45187650  1
  Se  Se168  1  0.75142210  0.92797699  0.92981975  1
  Se  Se169  1  0.25879182  0.07393801  0.44414815  1
  Se  Se170  1  0.25075509  0.08966601  0.94303861  1
  Se  Se171  1  0.25059797  0.40880014  0.44477575  1
  Se  Se172  1  0.24972989  0.42142970  0.94206480  1
  Se  Se173  1  0.24702562  0.75562066  0.45245972  1
  Se  Se174  1  0.23699422  0.76268866  0.94490765  1
  Se  Se175  1  0.58641063  0.08290319  0.45152605  1
  Se  Se176  1  0.58741412  0.07657835  0.93362028  1
  Se  Se177  1  0.58838052  0.40876662  0.43953267  1
  Se  Se178  1  0.58969795  0.40738226  0.93839208  1
  Se  Se179  1  0.59123286  0.74369632  0.44173816  1
  Se  Se180  1  0.57952202  0.75128367  0.94262304  1
  Se  Se181  1  0.93015340  0.07124738  0.44775819  1
  Se  Se182  1  0.90115771  0.08396507  0.93909557  1
  Se  Se183  1  0.91408612  0.41845873  0.44460015  1
  Se  Se184  1  0.91393019  0.41967791  0.94627321  1
  Se  Se185  1  0.91565858  0.75301911  0.45554784  1
  Se  Se186  1  0.92370609  0.74672214  0.93395190  1
  Se  Se187  1  0.25087272  0.25243649  0.30048252  1
  Se  Se188  1  0.24989336  0.25713086  0.80537726  1
  Se  Se189  1  0.23637424  0.57107648  0.30705488  1
  Se  Se190  1  0.24552007  0.58554902  0.80292957  1
  Se  Se191  1  0.24847726  0.91843193  0.30567375  1
  Se  Se192  1  0.25259457  0.92207587  0.80763323  1
  Se  Se193  1  0.58410040  0.24699166  0.30457900  1
  Se  Se194  1  0.57563805  0.24620821  0.80923240  1
  Se  Se195  1  0.57156993  0.57680218  0.31391435  1
  Se  Se196  1  0.58192049  0.57532421  0.79806245  1
  Se  Se197  1  0.58300053  0.91613305  0.30047458  1
  Se  Se198  1  0.58330370  0.91542655  0.80268475  1
  Se  Se199  1  0.91973197  0.25522953  0.29949930  1
  Se  Se200  1  0.91533957  0.24327072  0.80357472  1
  Se  Se201  1  0.90872547  0.58011272  0.30609645  1
  Se  Se202  1  0.91918408  0.58391689  0.80382556  1
  Se  Se203  1  0.91696279  0.91275092  0.31455958  1
  Se  Se204  1  0.91371848  0.91056825  0.80281120  1
  Se  Se205  1  0.09246764  0.09486177  0.30741610  1
  Se  Se206  1  0.08339619  0.08062064  0.81016846  1
  Se  Se207  1  0.07622259  0.41699050  0.29636653  1
  Se  Se208  1  0.07618185  0.41218928  0.80551413  1
  Se  Se209  1  0.08897524  0.75501159  0.30665760  1
  Se  Se210  1  0.08209968  0.75188025  0.80488205  1
  Se  Se211  1  0.42091445  0.08600867  0.31200965  1
  Se  Se212  1  0.42370469  0.09242727  0.79440906  1
  Se  Se213  1  0.41074834  0.41152040  0.30527939  1
  Se  Se214  1  0.42659815  0.43413363  0.79347486  1
  Se  Se215  1  0.42629022  0.76445112  0.30491581  1
  Se  Se216  1  0.41402581  0.75216058  0.80438257  1
  Se  Se217  1  0.75628891  0.08630230  0.30254650  1
  Se  Se218  1  0.72704676  0.07438719  0.79220554  1
  Se  Se219  1  0.74758116  0.41564448  0.30096508  1
  Se  Se220  1  0.75981993  0.41792381  0.81496721  1
  Se  Se221  1  0.75477013  0.75229088  0.31558487  1
  Se  Se222  1  0.74301646  0.74084138  0.80485260  1
  Se  Se223  1  0.23636904  0.08801997  0.18373281  1
  Se  Se224  1  0.24505345  0.08598370  0.70242111  1
  Se  Se225  1  0.25296906  0.41191752  0.19006140  1
  Se  Se226  1  0.24255239  0.41579477  0.70108959  1
  Se  Se227  1  0.24898043  0.75213411  0.18762781  1
  Se  Se228  1  0.25253940  0.75222907  0.70253642  1
  Se  Se229  1  0.58265583  0.08274084  0.19315566  1
  Se  Se230  1  0.60330853  0.07676825  0.70472388  1
  Se  Se231  1  0.58721885  0.41072784  0.20211279  1
  Se  Se232  1  0.58495755  0.42050527  0.68318455  1
  Se  Se233  1  0.57837379  0.75243102  0.18958734  1
  Se  Se234  1  0.58098564  0.74838656  0.70091010  1
  Se  Se235  1  0.91039591  0.09688528  0.18439685  1
  Se  Se236  1  0.91212605  0.08064734  0.71001535  1
  Se  Se237  1  0.91946806  0.41936473  0.19101764  1
  Se  Se238  1  0.91857461  0.41275308  0.69875974  1
  Se  Se239  1  0.90754368  0.76250093  0.19556734  1
  Se  Se240  1  0.91847034  0.74316321  0.70003370  1
  Se  Se241  1  0.07896897  0.25606690  0.18950081  1
  Se  Se242  1  0.07971154  0.25190435  0.70531968  1
  Se  Se243  1  0.09614068  0.58069409  0.17735812  1
  Se  Se244  1  0.07997199  0.58606762  0.70227130  1
  Se  Se245  1  0.08900931  0.91379426  0.19025372  1
  Se  Se246  1  0.08094183  0.91788574  0.70283651  1
  Se  Se247  1  0.41361189  0.24621990  0.19841048  1
  Se  Se248  1  0.41024264  0.26235534  0.70313698  1
  Se  Se249  1  0.42350809  0.57196265  0.19117302  1
  Se  Se250  1  0.41934573  0.57410939  0.70607132  1
  Se  Se251  1  0.42523348  0.90554398  0.18665978  1
  Se  Se252  1  0.41356085  0.92124231  0.69871876  1
  Se  Se253  1  0.74634810  0.25648296  0.19246434  1
  Se  Se254  1  0.76090710  0.24490611  0.69188520  1
  Se  Se255  1  0.75728745  0.58112792  0.18548542  1
  Se  Se256  1  0.75203657  0.58073785  0.69792885  1
  Se  Se257  1  0.74518606  0.92175737  0.20153145  1
  Se  Se258  1  0.74951401  0.90650285  0.70020749  1
