# generated using pymatgen
data_In86Cu29Se144
_symmetry_space_group_name_H-M   'P 1'
_cell_length_a   17.57639625
_cell_length_b   17.57600547
_cell_length_c   23.43527664
_cell_angle_alpha   90.00866034
_cell_angle_beta   89.98716040
_cell_angle_gamma   89.99662021
_symmetry_Int_Tables_number   1
_chemical_formula_structural   In86Cu29Se144
_chemical_formula_sum   'In86 Cu29 Se144'
_cell_volume   7239.69185776
_cell_formula_units_Z   1
loop_
 _symmetry_equiv_pos_site_id
 _symmetry_equiv_pos_as_xyz
  1  'x, y, z'
loop_
 _atom_site_type_symbol
 _atom_site_label
 _atom_site_symmetry_multiplicity
 _atom_site_fract_x
 _atom_site_fract_y
 _atom_site_fract_z
 _atom_site_occupancy
  In  In0  1  -0.00049552  0.16572854  0.12367869  1
  In  In1  1  0.01102211  0.16566792  0.62234342  1
  In  In2  1  -0.01153246  0.51370205  0.13674726  1
  In  In3  1  -0.00036432  0.50499898  0.63257497  1
  In  In4  1  -0.00109964  0.83837652  0.12654881  1
  In  In5  1  -0.00200669  0.83385012  0.62654833  1
  In  In6  1  0.33172287  0.17323585  0.12769224  1
  In  In7  1  0.33333141  0.16496080  0.62380114  1
  In  In8  1  0.31901135  0.49810302  0.12695581  1
  In  In9  1  0.34137709  0.50149423  0.62375310  1
  In  In10  1  0.33313982  0.84261644  0.12031959  1
  In  In11  1  0.33672407  0.82441847  0.63411467  1
  In  In12  1  0.66343829  0.15182619  0.12832119  1
  In  In13  1  0.65363899  0.16281463  0.62354569  1
  In  In14  1  0.68408238  0.50747100  0.12284290  1
  In  In15  1  0.67322968  0.51521024  0.60365154  1
  In  In16  1  0.68450446  0.81539801  0.14044097  1
  In  In17  1  0.67863966  0.83541863  0.61467547  1
  In  In18  1  0.16726156  0.00618738  0.37377588  1
  In  In19  1  0.16843673  -0.00512072  0.88234429  1
  In  In20  1  0.15096012  0.31524785  0.36930982  1
  In  In21  1  0.14788889  0.33852376  0.87552150  1
  In  In22  1  0.14858140  0.67445263  0.36969159  1
  In  In23  1  0.16541114  0.67277700  0.85644721  1
  In  In24  1  0.51171390  -0.01336558  0.38804256  1
  In  In25  1  0.49552236  -0.00296263  0.85997669  1
  In  In26  1  0.49021362  0.33859151  0.38069489  1
  In  In27  1  0.49959257  0.32693009  0.87268366  1
  In  In28  1  0.51524972  0.65859382  0.39088738  1
  In  In29  1  0.49884744  0.67890568  0.86981892  1
  In  In30  1  0.82325195  -0.01136459  0.36745286  1
  In  In31  1  0.82599925  0.00375779  0.88111250  1
  In  In32  1  0.85549106  0.34101313  0.37457172  1
  In  In33  1  0.84506016  0.32637505  0.88190842  1
  In  In34  1  0.83619062  0.66756442  0.37945628  1
  In  In35  1  0.84076054  0.65230934  0.89169900  1
  In  In36  1  0.01084298  0.17340136  0.36864904  1
  In  In37  1  -0.00719965  0.17294535  0.88328937  1
  In  In38  1  -0.01217893  0.49097080  0.37267716  1
  In  In39  1  -0.00316340  0.49570085  0.86760601  1
  In  In40  1  -0.01221035  0.81681364  0.35845499  1
  In  In41  1  0.00560141  0.82230623  0.88107076  1
  In  In42  1  0.32201341  0.17192507  0.38261480  1
  In  In43  1  0.32792466  0.13776635  0.86503763  1
  In  In44  1  0.34559317  0.49586208  0.37701727  1
  In  In45  1  0.31519902  0.50520900  0.86539449  1
  In  In46  1  0.33753276  0.84482082  0.37898182  1
  In  In47  1  0.31684728  0.82956141  0.85784475  1
  In  In48  1  0.66882560  0.15099787  0.37422360  1
  In  In49  1  0.67374881  0.16561968  0.87438970  1
  In  In50  1  0.66465344  0.51382885  0.38651911  1
  In  In51  1  0.68525345  0.51324573  0.87569237  1
  In  In52  1  0.67096925  0.83066636  0.37890833  1
  In  In53  1  0.66749550  0.83786057  0.87799308  1
  In  In54  1  0.14564083  -0.01966766  0.10923556  1
  In  In55  1  0.16370513  0.01535925  0.62706562  1
  In  In56  1  0.16848028  0.32860684  0.13090173  1
  In  In57  1  0.16587418  0.32332530  0.62599923  1
  In  In58  1  0.15433053  0.67004222  0.12688453  1
  In  In59  1  0.16362415  0.66864708  0.64943518  1
  In  In60  1  0.50036128  0.00666013  0.13081066  1
  In  In61  1  0.50452076  0.00225851  0.62693848  1
  In  In62  1  0.49606790  0.32033540  0.13364986  1
  In  In63  1  0.49956965  0.33626175  0.61284293  1
  In  In64  1  0.50295106  0.68180581  0.13011265  1
  In  In65  1  0.49722033  0.66124197  0.61377430  1
  In  In66  1  0.83333761  -0.00091491  0.12528071  1
  In  In67  1  0.83575152  -0.01855419  0.62416286  1
  In  In68  1  0.84488098  0.34447313  0.12293460  1
  In  In69  1  0.83563850  0.34519977  0.62185679  1
  In  In70  1  0.83265239  0.67201142  0.12283873  1
  In  In71  1  0.83764664  0.67509939  0.61663294  1
  In  In72  1  0.16632703  0.83818165  0.50006867  1
  In  In73  1  0.50454852  0.49744415  0.00000264  1
  In  In74  1  0.83608959  0.16825217  0.49263159  1
  In  In75  1  0.33511345  0.66332603  0.25233532  1
  In  In76  1  0.66574718  0.33044698  0.73992455  1
  In  In77  1  0.15830193  0.50282798  -0.00278854  1
  In  In78  1  0.17138838  0.49570336  0.50737802  1
  In  In79  1  0.66750098  0.67060293  0.74571875  1
  In  In80  1  0.32842946  0.33455766  0.74087648  1
  In  In81  1  0.00088904  -0.00525317  0.75099017  1
  In  In82  1  0.67200254  0.33601858  0.25069252  1
  In  In83  1  0.50149488  0.16499758  0.00139035  1
  In  In84  1  0.50486885  0.83793384  -0.00602463  1
  In  In85  1  0.32896334  0.00422354  0.25376144  1
  Cu  Cu86  1  0.33736703  0.00654716  0.50394021  1
  Cu  Cu87  1  0.33430005  0.67138892  0.50257215  1
  Cu  Cu88  1  0.16343623  0.17045088  0.75064333  1
  Cu  Cu89  1  0.49665342  0.16291251  0.25695038  1
  Cu  Cu90  1  0.49809206  0.50188724  0.74116369  1
  Cu  Cu91  1  -0.00278350  0.67162790  0.00363299  1
  Cu  Cu92  1  0.83248253  0.82830552  0.74791158  1
  Cu  Cu93  1  -0.00649408  0.00168874  0.00099558  1
  Cu  Cu94  1  0.33101808  0.32983683  0.50081411  1
  Cu  Cu95  1  0.32804964  0.67196578  -0.01487931  1
  Cu  Cu96  1  0.67849971  0.33442147  -0.00156652  1
  Cu  Cu97  1  0.83796449  0.16611165  0.75634831  1
  Cu  Cu98  1  -0.00084875  0.66417296  0.50217435  1
  Cu  Cu99  1  0.16688563  0.49053781  0.25251654  1
  Cu  Cu100  1  0.16410983  0.16228420  0.24684552  1
  Cu  Cu101  1  0.66956598  -0.00479244  0.00407728  1
  Cu  Cu102  1  0.51072494  0.83230847  0.26059496  1
  Cu  Cu103  1  -0.00383486  0.33734568  0.00364555  1
  Cu  Cu104  1  0.83923940  0.16366689  0.24896701  1
  Cu  Cu105  1  0.83407620  0.83439779  0.24823174  1
  Cu  Cu106  1  0.33095557  0.32488906  0.00344661  1
  Cu  Cu107  1  0.66757886  -0.00078530  0.49913031  1
  Cu  Cu108  1  0.49890637  0.83901291  0.74655571  1
  Cu  Cu109  1  -0.00495193  -0.00507562  0.49860813  1
  Cu  Cu110  1  0.50578779  0.50083156  0.25817025  1
  Cu  Cu111  1  0.83532893  0.50955425  0.25227801  1
  Cu  Cu112  1  0.32094201  -0.00276653  -0.00636207  1
  Cu  Cu113  1  0.83726127  0.49710106  0.75059018  1
  Cu  Cu114  1  0.66516786  0.33403612  0.49647782  1
  Se  Se115  1  0.08108207  0.08659896  0.04998398  1
  Se  Se116  1  0.08050992  0.07916441  0.54884171  1
  Se  Se117  1  0.07553547  0.41768968  0.06550508  1
  Se  Se118  1  0.07498636  0.40917106  0.56163104  1
  Se  Se119  1  0.08257887  0.75419051  0.05494677  1
  Se  Se120  1  0.08576238  0.74005846  0.56172403  1
  Se  Se121  1  0.40474713  0.07165239  0.05668776  1
  Se  Se122  1  0.42297878  0.08765790  0.55684333  1
  Se  Se123  1  0.41080437  0.40697631  0.06108199  1
  Se  Se124  1  0.41304820  0.42053102  0.54832958  1
  Se  Se125  1  0.40974624  0.74358430  0.05143124  1
  Se  Se126  1  0.41478917  0.75766361  0.55455461  1
  Se  Se127  1  0.74944804  0.08412443  0.05511871  1
  Se  Se128  1  0.75222347  0.07790704  0.55853713  1
  Se  Se129  1  0.75652533  0.42000911  0.05277010  1
  Se  Se130  1  0.75217887  0.41502996  0.54757970  1
  Se  Se131  1  0.74671888  0.75298905  0.05482322  1
  Se  Se132  1  0.73753357  0.73290691  0.54937602  1
  Se  Se133  1  0.24491797  0.24667411  0.05675167  1
  Se  Se134  1  0.24887399  0.24689858  0.55497835  1
  Se  Se135  1  0.25506555  0.59444622  0.05382974  1
  Se  Se136  1  0.25058049  0.59882351  0.56482533  1
  Se  Se137  1  0.24565598  0.90735604  0.04656511  1
  Se  Se138  1  0.25470871  0.92496201  0.56351340  1
  Se  Se139  1  0.59397412  0.25885622  0.05909111  1
  Se  Se140  1  0.58492535  0.24893651  0.54972121  1
  Se  Se141  1  0.58477673  0.59188905  0.06179949  1
  Se  Se142  1  0.57693019  0.58499059  0.54143315  1
  Se  Se143  1  0.58665523  0.91975027  0.06547898  1
  Se  Se144  1  0.58472816  0.91865003  0.55538118  1
  Se  Se145  1  0.91459240  0.25004234  0.05539364  1
  Se  Se146  1  0.92257742  0.25387216  0.55710420  1
  Se  Se147  1  0.91720571  0.58394542  0.05618275  1
  Se  Se148  1  0.91971953  0.57965132  0.55731378  1
  Se  Se149  1  0.91340877  0.91558588  0.05508105  1
  Se  Se150  1  0.91708832  0.90672046  0.55062725  1
  Se  Se151  1  0.08324397  0.24227111  0.44914124  1
  Se  Se152  1  0.08062331  0.25468303  0.95063836  1
  Se  Se153  1  0.08129989  0.58408523  0.44384043  1
  Se  Se154  1  0.07550573  0.59590995  0.93665164  1
  Se  Se155  1  0.07363803  0.91564136  0.43487987  1
  Se  Se156  1  0.07752558  0.91772107  0.94735642  1
  Se  Se157  1  0.41632780  0.24655970  0.44808576  1
  Se  Se158  1  0.40690396  0.24790595  0.93885235  1
  Se  Se159  1  0.41313458  0.58330775  0.44961963  1
  Se  Se160  1  0.41125696  0.58431742  0.93576514  1
  Se  Se161  1  0.41639617  0.91579522  0.45493548  1
  Se  Se162  1  0.40851626  0.92055054  0.93480451  1
  Se  Se163  1  0.74526884  0.25912943  0.43204730  1
  Se  Se164  1  0.75432884  0.24457953  0.94559906  1
  Se  Se165  1  0.76020684  0.58330915  0.45069855  1
  Se  Se166  1  0.74566953  0.58331600  0.95850714  1
  Se  Se167  1  0.75434267  0.91603114  0.44849397  1
  Se  Se168  1  0.75178297  0.91232634  0.94992012  1
  Se  Se169  1  0.24677821  0.07955067  0.44930192  1
  Se  Se170  1  0.24313763  0.09200967  0.94794443  1
  Se  Se171  1  0.25082399  0.40757467  0.43773113  1
  Se  Se172  1  0.25601652  0.41046921  0.94305411  1
  Se  Se173  1  0.25245068  0.74227959  0.43842332  1
  Se  Se174  1  0.24179118  0.75138604  0.93353291  1
  Se  Se175  1  0.58412416  0.08710053  0.45088518  1
  Se  Se176  1  0.58613172  0.07110548  0.94079107  1
  Se  Se177  1  0.58055588  0.41879646  0.44501689  1
  Se  Se178  1  0.59489714  0.40821308  0.93657203  1
  Se  Se179  1  0.56762300  0.77258297  0.44574143  1
  Se  Se180  1  0.59394862  0.73620650  0.94454411  1
  Se  Se181  1  0.92116249  0.07441299  0.43293750  1
  Se  Se182  1  0.91042968  0.08630442  0.94847970  1
  Se  Se183  1  0.92091796  0.41730441  0.45360902  1
  Se  Se184  1  0.91935028  0.42281096  0.94561866  1
  Se  Se185  1  0.92446247  0.75250777  0.44587382  1
  Se  Se186  1  0.91218165  0.75476934  0.95112868  1
  Se  Se187  1  0.24797757  0.24387148  0.30294796  1
  Se  Se188  1  0.24549109  0.24926739  0.81216304  1
  Se  Se189  1  0.24288347  0.57472196  0.31415391  1
  Se  Se190  1  0.25655438  0.59356639  0.79224289  1
  Se  Se191  1  0.24057935  0.90512304  0.30652788  1
  Se  Se192  1  0.26269882  0.94641345  0.80580809  1
  Se  Se193  1  0.58037623  0.24734876  0.31173220  1
  Se  Se194  1  0.57897045  0.24121344  0.80331014  1
  Se  Se195  1  0.58597641  0.58674564  0.30926667  1
  Se  Se196  1  0.57917907  0.57482307  0.80714310  1
  Se  Se197  1  0.59172689  0.92150807  0.30913779  1
  Se  Se198  1  0.58885807  0.91133066  0.80249680  1
  Se  Se199  1  0.91914970  0.25012593  0.30154245  1
  Se  Se200  1  0.92143014  0.25204307  0.80484991  1
  Se  Se201  1  0.92145592  0.58963470  0.30677663  1
  Se  Se202  1  0.90959606  0.58658653  0.80718045  1
  Se  Se203  1  0.91819909  0.92073719  0.29885413  1
  Se  Se204  1  0.90784932  0.91018055  0.81175277  1
  Se  Se205  1  0.08248535  0.07875313  0.30102502  1
  Se  Se206  1  0.08362359  0.09011850  0.81237341  1
  Se  Se207  1  0.07865534  0.41295802  0.30606058  1
  Se  Se208  1  0.09677099  0.43182021  0.80185361  1
  Se  Se209  1  0.08600309  0.75245519  0.29148199  1
  Se  Se210  1  0.07321364  0.75697272  0.79774759  1
  Se  Se211  1  0.42133370  0.08203514  0.32015827  1
  Se  Se212  1  0.43107597  0.09643629  0.79571182  1
  Se  Se213  1  0.41761567  0.41436210  0.30143073  1
  Se  Se214  1  0.42258436  0.42291056  0.80582306  1
  Se  Se215  1  0.42275469  0.75230915  0.31511490  1
  Se  Se216  1  0.41667602  0.75234922  0.79829842  1
  Se  Se217  1  0.75075795  0.08228590  0.29883308  1
  Se  Se218  1  0.75154376  0.08159942  0.80380638  1
  Se  Se219  1  0.75636030  0.42683392  0.31313842  1
  Se  Se220  1  0.75428253  0.41498321  0.80742801  1
  Se  Se221  1  0.75585446  0.75221577  0.30862722  1
  Se  Se222  1  0.75768930  0.74840048  0.81318384  1
  Se  Se223  1  0.24024519  0.08030217  0.18441096  1
  Se  Se224  1  0.24950960  0.09056616  0.69784860  1
  Se  Se225  1  0.25366812  0.41085243  0.20009203  1
  Se  Se226  1  0.23838631  0.42946108  0.68765420  1
  Se  Se227  1  0.25165446  0.75481858  0.18912708  1
  Se  Se228  1  0.24568989  0.76153122  0.70634491  1
  Se  Se229  1  0.58137916  0.08130709  0.20410402  1
  Se  Se230  1  0.59373407  0.07553345  0.69764874  1
  Se  Se231  1  0.58034192  0.42438590  0.18888784  1
  Se  Se232  1  0.58309794  0.42925293  0.68086815  1
  Se  Se233  1  0.58782676  0.74405784  0.20660332  1
  Se  Se234  1  0.57695251  0.75678779  0.68477612  1
  Se  Se235  1  0.91982637  0.08019277  0.19325309  1
  Se  Se236  1  0.91152329  0.08556511  0.68892351  1
  Se  Se237  1  0.91594922  0.41800795  0.20289247  1
  Se  Se238  1  0.91867044  0.41195662  0.69816345  1
  Se  Se239  1  0.91666373  0.75091746  0.19349698  1
  Se  Se240  1  0.91612530  0.74793267  0.69359645  1
  Se  Se241  1  0.07961028  0.24868044  0.19596176  1
  Se  Se242  1  0.07817938  0.25082021  0.69823964  1
  Se  Se243  1  0.08979083  0.58082617  0.20019905  1
  Se  Se244  1  0.07291470  0.58525274  0.70687487  1
  Se  Se245  1  0.08515448  0.91782226  0.19567312  1
  Se  Se246  1  0.09578676  0.91056027  0.69190701  1
  Se  Se247  1  0.41217672  0.24510346  0.20432602  1
  Se  Se248  1  0.42889630  0.24942068  0.68926649  1
  Se  Se249  1  0.42545394  0.57335960  0.18921865  1
  Se  Se250  1  0.41728785  0.59042447  0.69208414  1
  Se  Se251  1  0.42516075  0.90706672  0.19870691  1
  Se  Se252  1  0.41499178  0.92212564  0.69427893  1
  Se  Se253  1  0.75677799  0.24430367  0.18819416  1
  Se  Se254  1  0.76194201  0.23909176  0.68613006  1
  Se  Se255  1  0.75170793  0.59037519  0.19770420  1
  Se  Se256  1  0.75554284  0.57500891  0.68889232  1
  Se  Se257  1  0.74870714  0.92200787  0.19875813  1
  Se  Se258  1  0.74815974  0.91130570  0.69594495  1
