# generated using pymatgen
data_In86Cu29Se144
_symmetry_space_group_name_H-M   'P 1'
_cell_length_a   17.58149682
_cell_length_b   17.58761690
_cell_length_c   23.44645979
_cell_angle_alpha   90.01083870
_cell_angle_beta   90.00676317
_cell_angle_gamma   90.02757160
_symmetry_Int_Tables_number   1
_chemical_formula_structural   In86Cu29Se144
_chemical_formula_sum   'In86 Cu29 Se144'
_cell_volume   7250.03427520
_cell_formula_units_Z   1
loop_
 _symmetry_equiv_pos_site_id
 _symmetry_equiv_pos_as_xyz
  1  'x, y, z'
loop_
 _atom_site_type_symbol
 _atom_site_label
 _atom_site_symmetry_multiplicity
 _atom_site_fract_x
 _atom_site_fract_y
 _atom_site_fract_z
 _atom_site_occupancy
  In  In0  1  0.00130717  0.16572716  0.12643815  1
  In  In1  1  -0.00640512  0.16380130  0.61682913  1
  In  In2  1  0.00169754  0.49574831  0.13117360  1
  In  In3  1  0.00213494  0.49086427  0.62630274  1
  In  In4  1  0.00560114  0.82940091  0.13641405  1
  In  In5  1  0.00503014  0.84745677  0.61846472  1
  In  In6  1  0.33031531  0.15720400  0.11336591  1
  In  In7  1  0.32004337  0.17010990  0.62517019  1
  In  In8  1  0.33267591  0.50015698  0.12521308  1
  In  In9  1  0.33431882  0.49898465  0.61856036  1
  In  In10  1  0.32837757  0.83924041  0.13457367  1
  In  In11  1  0.34070627  0.83846614  0.62413796  1
  In  In12  1  0.66185273  0.16232703  0.10961215  1
  In  In13  1  0.67953862  0.15788070  0.63316112  1
  In  In14  1  0.67352879  0.49906367  0.11997329  1
  In  In15  1  0.66041302  0.50707612  0.62853989  1
  In  In16  1  0.66382446  0.83569387  0.13361198  1
  In  In17  1  0.67872041  0.83508043  0.62007323  1
  In  In18  1  0.16938428  0.00647197  0.37065298  1
  In  In19  1  0.17307361  0.01500885  0.86692708  1
  In  In20  1  0.15183700  0.34472587  0.37665277  1
  In  In21  1  0.16296749  0.33349425  0.88339253  1
  In  In22  1  0.15631475  0.65084788  0.36271681  1
  In  In23  1  0.16350014  0.65531254  0.87999867  1
  In  In24  1  0.49561587  -0.00775500  0.36520630  1
  In  In25  1  0.50418349  0.00711362  0.86804922  1
  In  In26  1  0.51249726  0.33971187  0.37422918  1
  In  In27  1  0.51896525  0.31603854  0.89407945  1
  In  In28  1  0.49016073  0.65829664  0.36585851  1
  In  In29  1  0.49564385  0.65759780  0.87962825  1
  In  In30  1  0.83518647  0.00107953  0.37362051  1
  In  In31  1  0.84331590  0.01163920  0.86807770  1
  In  In32  1  0.83924079  0.31791535  0.37763769  1
  In  In33  1  0.82065807  0.33530457  0.88408275  1
  In  In34  1  0.84297813  0.67631565  0.37248041  1
  In  In35  1  0.82221862  0.65845270  0.87876519  1
  In  In36  1  0.00223785  0.16768514  0.37127053  1
  In  In37  1  0.00726819  0.16201036  0.88276123  1
  In  In38  1  0.01709519  0.51262473  0.35631853  1
  In  In39  1  0.00084936  0.49210995  0.88202660  1
  In  In40  1  -0.01696698  0.82121996  0.37207148  1
  In  In41  1  -0.01197167  0.83648341  0.87425620  1
  In  In42  1  0.33063127  0.15282411  0.37015873  1
  In  In43  1  0.33596823  0.15613007  0.88651434  1
  In  In44  1  0.31952500  0.50860380  0.37793931  1
  In  In45  1  0.33686721  0.49674795  0.88281800  1
  In  In46  1  0.33116624  0.83091990  0.36564441  1
  In  In47  1  0.32028907  0.84477752  0.87672906  1
  In  In48  1  0.68269520  0.16820489  0.37408647  1
  In  In49  1  0.67341055  0.16611743  0.87581526  1
  In  In50  1  0.65412631  0.50053894  0.37837353  1
  In  In51  1  0.68365364  0.47355049  0.90019441  1
  In  In52  1  0.67436285  0.83921494  0.37222935  1
  In  In53  1  0.65641214  0.83495598  0.87118676  1
  In  In54  1  0.16739414  0.00432330  0.12913908  1
  In  In55  1  0.15476408  0.01087712  0.63088459  1
  In  In56  1  0.16266847  0.33010603  0.12561285  1
  In  In57  1  0.17048924  0.33496983  0.61695316  1
  In  In58  1  0.17355919  0.65275195  0.14252277  1
  In  In59  1  0.16674097  0.66120116  0.61804262  1
  In  In60  1  0.49601393  0.00840684  0.12624549  1
  In  In61  1  0.49710518  0.00926485  0.63439860  1
  In  In62  1  0.50593909  0.32909338  0.10845943  1
  In  In63  1  0.50492062  0.34971749  0.62775646  1
  In  In64  1  0.50649181  0.66127742  0.13505943  1
  In  In65  1  0.51090433  0.65280572  0.61947222  1
  In  In66  1  0.83205853  0.00526675  0.12912400  1
  In  In67  1  0.83388605  0.00413550  0.62166961  1
  In  In68  1  0.83677138  0.34061810  0.11411232  1
  In  In69  1  0.84253716  0.32282037  0.62962004  1
  In  In70  1  0.84572463  0.65165484  0.13824131  1
  In  In71  1  0.81726129  0.67292135  0.61363854  1
  In  In72  1  0.66530366  0.67251149  0.74417247  1
  In  In73  1  -0.00310583  0.33198525  0.75697614  1
  In  In74  1  0.16304063  0.83816137  0.01233094  1
  In  In75  1  0.49663659  0.83256848  -0.00508833  1
  In  In76  1  0.33233705  0.32992166  0.23983631  1
  In  In77  1  0.50315409  0.82923705  0.49702169  1
  In  In78  1  0.33430062  0.67382240  0.75593540  1
  In  In79  1  -0.00271330  0.67116115  0.74670598  1
  In  In80  1  0.50271555  0.17259554  0.49721499  1
  In  In81  1  0.67395959  0.33049464  0.24218809  1
  In  In82  1  0.33588818  0.33253043  0.75015269  1
  In  In83  1  0.83865575  0.49961271  0.49874064  1
  In  In84  1  0.16051258  0.82907221  0.49060917  1
  In  In85  1  0.83223295  0.82880445  0.00400902  1
  Cu  Cu86  1  0.00007734  0.32949208  0.00429261  1
  Cu  Cu87  1  0.83483424  0.84676631  0.74452859  1
  Cu  Cu88  1  0.32767340  0.33587881  0.00269889  1
  Cu  Cu89  1  0.83110735  0.83760164  0.25128216  1
  Cu  Cu90  1  0.49751030  0.84728703  0.74866613  1
  Cu  Cu91  1  0.66960724  0.65471102  0.01063566  1
  Cu  Cu92  1  0.00491531  0.00254215  0.00163823  1
  Cu  Cu93  1  0.67061284  0.00193592  0.49818320  1
  Cu  Cu94  1  0.50488658  0.49737519  0.75530062  1
  Cu  Cu95  1  -0.00132879  0.64976802  0.00818237  1
  Cu  Cu96  1  0.16698913  0.84179249  0.25398291  1
  Cu  Cu97  1  0.83066439  0.49432949  0.24854599  1
  Cu  Cu98  1  0.33341075  0.65367349  0.49389427  1
  Cu  Cu99  1  0.00411173  0.33238173  0.49769162  1
  Cu  Cu100  1  0.50649373  0.83249555  0.25059075  1
  Cu  Cu101  1  0.83001926  0.16367585  0.74842877  1
  Cu  Cu102  1  0.16637680  0.16718536  0.24642668  1
  Cu  Cu103  1  0.67034590  0.00121941  -0.00444651  1
  Cu  Cu104  1  -0.00699642  0.00650263  0.49759299  1
  Cu  Cu105  1  0.50505645  0.15716204  0.24296723  1
  Cu  Cu106  1  0.32687046  0.66681307  0.01260953  1
  Cu  Cu107  1  0.16369940  0.16692398  0.75099343  1
  Cu  Cu108  1  0.67019125  0.33518274  0.50032019  1
  Cu  Cu109  1  0.16341975  0.84162107  0.74961047  1
  Cu  Cu110  1  0.49528145  0.50048138  0.24901585  1
  Cu  Cu111  1  0.33120125  0.33529018  0.49801378  1
  Cu  Cu112  1  0.83886892  0.16082705  0.24897034  1
  Cu  Cu113  1  0.50382286  0.17252119  0.75903873  1
  Cu  Cu114  1  0.32177681  0.00245563  0.49957782  1
  Se  Se115  1  0.08712610  0.08365363  0.05702716  1
  Se  Se116  1  0.08365713  0.08398512  0.55101577  1
  Se  Se117  1  0.08129929  0.41562573  0.05769742  1
  Se  Se118  1  0.08351216  0.41838880  0.55219819  1
  Se  Se119  1  0.07783497  0.73657610  0.06392255  1
  Se  Se120  1  0.07283076  0.74146389  0.55449929  1
  Se  Se121  1  0.43287650  0.09304955  0.05040573  1
  Se  Se122  1  0.40956160  0.08076459  0.55564373  1
  Se  Se123  1  0.41288739  0.41853198  0.05453615  1
  Se  Se124  1  0.41757419  0.41408004  0.55269769  1
  Se  Se125  1  0.41212325  0.74900083  0.06487107  1
  Se  Se126  1  0.40870407  0.73663090  0.55674130  1
  Se  Se127  1  0.75722692  0.07777301  0.05073879  1
  Se  Se128  1  0.75094242  0.08803260  0.55187311  1
  Se  Se129  1  0.73351678  0.40261218  0.05065905  1
  Se  Se130  1  0.75030875  0.41176500  0.56388375  1
  Se  Se131  1  0.74726484  0.74009765  0.06805723  1
  Se  Se132  1  0.73874390  0.75167666  0.54344174  1
  Se  Se133  1  0.24599570  0.25062981  0.05537246  1
  Se  Se134  1  0.24925657  0.24836154  0.54872057  1
  Se  Se135  1  0.24124877  0.58140604  0.05975843  1
  Se  Se136  1  0.24720355  0.57734958  0.55056509  1
  Se  Se137  1  0.26381847  0.92922656  0.05751593  1
  Se  Se138  1  0.24631702  0.91788124  0.55861780  1
  Se  Se139  1  0.59858227  0.25984381  0.04153331  1
  Se  Se140  1  0.59107121  0.25492347  0.56345842  1
  Se  Se141  1  0.57598971  0.57917469  0.05934564  1
  Se  Se142  1  0.59478988  0.58268036  0.54863174  1
  Se  Se143  1  0.59140889  0.91825832  0.05468656  1
  Se  Se144  1  0.58239471  0.92995168  0.55823436  1
  Se  Se145  1  0.91681491  0.24371071  0.05490232  1
  Se  Se146  1  0.91542724  0.25260683  0.54962148  1
  Se  Se147  1  0.91047651  0.57089988  0.05957301  1
  Se  Se148  1  0.92453749  0.58952655  0.56247560  1
  Se  Se149  1  0.92798393  0.91638504  0.06033354  1
  Se  Se150  1  0.91393532  0.91962226  0.55106146  1
  Se  Se151  1  0.08561694  0.24704452  0.44385587  1
  Se  Se152  1  0.08576971  0.24710698  0.95161130  1
  Se  Se153  1  0.08108250  0.58056671  0.44061174  1
  Se  Se154  1  0.08496818  0.57485708  0.95040015  1
  Se  Se155  1  0.07181217  0.92495716  0.43618436  1
  Se  Se156  1  0.07942772  0.91894421  0.93982920  1
  Se  Se157  1  0.40991142  0.25734186  0.43457599  1
  Se  Se158  1  0.41115912  0.25008003  0.95099733  1
  Se  Se159  1  0.42225973  0.57455923  0.44262512  1
  Se  Se160  1  0.40835921  0.58969614  0.95195495  1
  Se  Se161  1  0.40558695  0.92161553  0.44283156  1
  Se  Se162  1  0.40924747  0.92884900  0.94091008  1
  Se  Se163  1  0.75179889  0.24814026  0.45075579  1
  Se  Se164  1  0.74674434  0.24572829  0.95167540  1
  Se  Se165  1  0.74931338  0.58616887  0.43711700  1
  Se  Se166  1  0.75805612  0.57783670  0.95687289  1
  Se  Se167  1  0.75318273  0.91850963  0.44520379  1
  Se  Se168  1  0.74880123  0.91690863  0.93717639  1
  Se  Se169  1  0.24402711  0.08823961  0.44603189  1
  Se  Se170  1  0.23809156  0.08402506  0.94908633  1
  Se  Se171  1  0.24577627  0.41647954  0.44445847  1
  Se  Se172  1  0.24619366  0.41988404  0.94857549  1
  Se  Se173  1  0.25635288  0.73919670  0.43651448  1
  Se  Se174  1  0.25213480  0.74532817  0.94656170  1
  Se  Se175  1  0.58565774  0.07601628  0.43669254  1
  Se  Se176  1  0.58483408  0.08124142  0.94179473  1
  Se  Se177  1  0.58161343  0.41659913  0.45259603  1
  Se  Se178  1  0.55101996  0.44553366  0.93959826  1
  Se  Se179  1  0.58484804  0.74271020  0.43237159  1
  Se  Se180  1  0.59622781  0.73624437  0.94588384  1
  Se  Se181  1  0.91355387  0.09060950  0.44147759  1
  Se  Se182  1  0.91671740  0.08124728  0.94854759  1
  Se  Se183  1  0.92681721  0.41346529  0.43540508  1
  Se  Se184  1  0.91665681  0.41099810  0.94859685  1
  Se  Se185  1  0.91406437  0.74944980  0.45198863  1
  Se  Se186  1  0.92523485  0.73518368  0.94571446  1
  Se  Se187  1  0.24578278  0.24731366  0.30832342  1
  Se  Se188  1  0.24482430  0.24535832  0.81172697  1
  Se  Se189  1  0.25842982  0.58827649  0.29885547  1
  Se  Se190  1  0.24770637  0.57478072  0.80776885  1
  Se  Se191  1  0.25502993  0.92523953  0.30263102  1
  Se  Se192  1  0.25056743  0.92335062  0.80020051  1
  Se  Se193  1  0.58030544  0.24066456  0.30452130  1
  Se  Se194  1  0.58943211  0.25492187  0.80898181  1
  Se  Se195  1  0.58406478  0.57954760  0.30105078  1
  Se  Se196  1  0.58545257  0.58276387  0.81060825  1
  Se  Se197  1  0.58975968  0.91863791  0.30146410  1
  Se  Se198  1  0.58843285  0.92318131  0.79996701  1
  Se  Se199  1  0.91841913  0.24954788  0.30019117  1
  Se  Se200  1  0.90768139  0.24044385  0.81454425  1
  Se  Se201  1  0.91016757  0.58277081  0.30121600  1
  Se  Se202  1  0.91447487  0.58008019  0.81190390  1
  Se  Se203  1  0.91795376  0.91869465  0.30404863  1
  Se  Se204  1  0.92171054  0.92235675  0.80035692  1
  Se  Se205  1  0.08333980  0.08387029  0.30114889  1
  Se  Se206  1  0.07524142  0.08531499  0.80186949  1
  Se  Se207  1  0.07815006  0.40732799  0.29484545  1
  Se  Se208  1  0.09442011  0.42395153  0.80712946  1
  Se  Se209  1  0.08472310  0.75687263  0.30682276  1
  Se  Se210  1  0.09156688  0.75713380  0.81164451  1
  Se  Se211  1  0.41734770  0.08126946  0.29849987  1
  Se  Se212  1  0.41288233  0.09001467  0.80515655  1
  Se  Se213  1  0.41838260  0.41683886  0.30826429  1
  Se  Se214  1  0.42642340  0.41495134  0.81436188  1
  Se  Se215  1  0.41653981  0.75024608  0.29878663  1
  Se  Se216  1  0.42665131  0.76542736  0.81422221  1
  Se  Se217  1  0.75054517  0.08162647  0.30168217  1
  Se  Se218  1  0.74651698  0.07996260  0.80200720  1
  Se  Se219  1  0.75312779  0.41667835  0.31377592  1
  Se  Se220  1  0.75279207  0.42363383  0.81177077  1
  Se  Se221  1  0.75110152  0.75013775  0.30395979  1
  Se  Se222  1  0.76070802  0.76141365  0.80636970  1
  Se  Se223  1  0.25595904  0.08782829  0.19449218  1
  Se  Se224  1  0.24921760  0.08456626  0.69757607  1
  Se  Se225  1  0.23679344  0.42692521  0.19534814  1
  Se  Se226  1  0.24573985  0.42332648  0.69169960  1
  Se  Se227  1  0.24791153  0.75438169  0.20135203  1
  Se  Se228  1  0.24139026  0.75789873  0.69007048  1
  Se  Se229  1  0.59484071  0.08221522  0.18912719  1
  Se  Se230  1  0.58362158  0.08867361  0.70043559  1
  Se  Se231  1  0.57364094  0.41686759  0.18943013  1
  Se  Se232  1  0.59101894  0.41840496  0.70139996  1
  Se  Se233  1  0.58990043  0.74538098  0.20140407  1
  Se  Se234  1  0.56994279  0.76267406  0.68588003  1
  Se  Se235  1  0.92421748  0.07742071  0.19696394  1
  Se  Se236  1  0.91683717  0.08694195  0.69204612  1
  Se  Se237  1  0.91129901  0.40966066  0.19467527  1
  Se  Se238  1  0.90772709  0.42561787  0.69870355  1
  Se  Se239  1  0.91545002  0.75096255  0.20121483  1
  Se  Se240  1  0.90776954  0.75966503  0.68426532  1
  Se  Se241  1  0.08100297  0.25074418  0.19683649  1
  Se  Se242  1  0.08700513  0.24853141  0.68940557  1
  Se  Se243  1  0.06324738  0.59512858  0.19968515  1
  Se  Se244  1  0.09180083  0.57781256  0.69421224  1
  Se  Se245  1  0.08439353  0.92263226  0.19845110  1
  Se  Se246  1  0.07640518  0.92126399  0.69747729  1
  Se  Se247  1  0.42902461  0.24256398  0.18417154  1
  Se  Se248  1  0.42726374  0.24344732  0.68842509  1
  Se  Se249  1  0.41059831  0.58358625  0.19696678  1
  Se  Se250  1  0.42342712  0.57820511  0.69532321  1
  Se  Se251  1  0.42435218  0.91726571  0.19550638  1
  Se  Se252  1  0.40798460  0.92487820  0.69729280  1
  Se  Se253  1  0.75952184  0.23739927  0.18398930  1
  Se  Se254  1  0.75022184  0.25443948  0.69937384  1
  Se  Se255  1  0.74395923  0.57727573  0.19797216  1
  Se  Se256  1  0.76297716  0.58122406  0.69335732  1
  Se  Se257  1  0.74973362  0.92086836  0.19674057  1
  Se  Se258  1  0.74629473  0.92405284  0.69159231  1
