# generated using pymatgen
data_In86Cu29Se144
_symmetry_space_group_name_H-M   'P 1'
_cell_length_a   17.63300878
_cell_length_b   17.63993217
_cell_length_c   23.50569390
_cell_angle_alpha   89.98962200
_cell_angle_beta   90.01831785
_cell_angle_gamma   89.95824823
_symmetry_Int_Tables_number   1
_chemical_formula_structural   In86Cu29Se144
_chemical_formula_sum   'In86 Cu29 Se144'
_cell_volume   7311.32798023
_cell_formula_units_Z   1
loop_
 _symmetry_equiv_pos_site_id
 _symmetry_equiv_pos_as_xyz
  1  'x, y, z'
loop_
 _atom_site_type_symbol
 _atom_site_label
 _atom_site_symmetry_multiplicity
 _atom_site_fract_x
 _atom_site_fract_y
 _atom_site_fract_z
 _atom_site_occupancy
  In  In0  1  0.00053027  0.17669383  0.12584223  1
  In  In1  1  -0.00098211  0.14791018  0.61419123  1
  In  In2  1  -0.01078741  0.48997348  0.11687788  1
  In  In3  1  -0.00675497  0.50478918  0.62296520  1
  In  In4  1  -0.01075737  0.84091784  0.12632617  1
  In  In5  1  -0.01723671  0.84082993  0.62464733  1
  In  In6  1  0.34056156  0.16470781  0.12825639  1
  In  In7  1  0.32998554  0.17104776  0.62527164  1
  In  In8  1  0.32236315  0.48460751  0.10582175  1
  In  In9  1  0.34280763  0.49763116  0.63041608  1
  In  In10  1  0.35094883  0.83762850  0.12433306  1
  In  In11  1  0.35371464  0.82012258  0.63098858  1
  In  In12  1  0.66189113  0.16743252  0.12191219  1
  In  In13  1  0.65790902  0.17339086  0.63391911  1
  In  In14  1  0.65180681  0.48615204  0.11271293  1
  In  In15  1  0.66588826  0.49288013  0.64818479  1
  In  In16  1  0.66336153  0.83482477  0.11993026  1
  In  In17  1  0.66529238  0.84264747  0.62625062  1
  In  In18  1  0.19627114  -0.00194888  0.38177511  1
  In  In19  1  0.17351070  -0.00813398  0.87407279  1
  In  In20  1  0.16093167  0.32440018  0.36791260  1
  In  In21  1  0.18818782  0.33299444  0.87918986  1
  In  In22  1  0.16666276  0.66214090  0.38000330  1
  In  In23  1  0.17092722  0.65178206  0.87474555  1
  In  In24  1  0.49467637  -0.00129357  0.37063200  1
  In  In25  1  0.50041593  0.00147294  0.87517493  1
  In  In26  1  0.50703655  0.34120008  0.36530608  1
  In  In27  1  0.49852149  0.33193489  0.87890363  1
  In  In28  1  0.50536225  0.66208656  0.39551454  1
  In  In29  1  0.50479901  0.66571602  0.87231928  1
  In  In30  1  0.81805700  0.00289131  0.37087575  1
  In  In31  1  0.81610640  0.00861121  0.88249537  1
  In  In32  1  0.82926563  0.32798128  0.36343783  1
  In  In33  1  0.81274593  0.35008591  0.88793909  1
  In  In34  1  0.83818523  0.67434169  0.37775668  1
  In  In35  1  0.82838824  0.66749074  0.87701135  1
  In  In36  1  -0.00068476  0.17627051  0.36939981  1
  In  In37  1  -0.00722530  0.15519096  0.87711079  1
  In  In38  1  0.00653158  0.49202144  0.37144542  1
  In  In39  1  0.00346839  0.49662490  0.88431958  1
  In  In40  1  -0.00386586  0.82819097  0.37883626  1
  In  In41  1  -0.00863728  0.82076116  0.87399741  1
  In  In42  1  0.32892111  0.16199667  0.37223515  1
  In  In43  1  0.35359734  0.18623237  0.86358211  1
  In  In44  1  0.35193838  0.49360951  0.37574768  1
  In  In45  1  0.33667258  0.49805413  0.87598930  1
  In  In46  1  0.34621152  0.84178604  0.38189165  1
  In  In47  1  0.35131484  0.84449679  0.86317230  1
  In  In48  1  0.67045546  0.17062263  0.36649243  1
  In  In49  1  0.66095723  0.16719741  0.87638152  1
  In  In50  1  0.66284440  0.49021623  0.37654681  1
  In  In51  1  0.66871142  0.49739916  0.87196470  1
  In  In52  1  0.64318844  0.84738721  0.39543077  1
  In  In53  1  0.66346831  0.83364281  0.87513042  1
  In  In54  1  0.17490139  0.01194577  0.12733699  1
  In  In55  1  0.16978671  0.01107979  0.61833097  1
  In  In56  1  0.16324795  0.33236402  0.12861940  1
  In  In57  1  0.18200419  0.33534899  0.62594909  1
  In  In58  1  0.18245294  0.66202396  0.12342057  1
  In  In59  1  0.17732430  0.67507337  0.62830367  1
  In  In60  1  0.50053650  0.00250328  0.12585958  1
  In  In61  1  0.50234773  -0.00140771  0.63059043  1
  In  In62  1  0.49953556  0.33528313  0.12424254  1
  In  In63  1  0.49551987  0.33737942  0.62880285  1
  In  In64  1  0.49556088  0.66313033  0.11522408  1
  In  In65  1  0.50910036  0.66778648  0.62524127  1
  In  In66  1  0.81188818  -0.01191893  0.11619173  1
  In  In67  1  0.82948534  -0.01259534  0.62399688  1
  In  In68  1  0.82979006  0.33013049  0.12045708  1
  In  In69  1  0.82626119  0.33630251  0.63310493  1
  In  In70  1  0.82375431  0.66111461  0.11484404  1
  In  In71  1  0.73824785  0.66307153  0.62055282  1
  In  In72  1  0.66855569  0.66530764  0.25541500  1
  In  In73  1  0.33656483  0.66235451  0.25867326  1
  In  In74  1  0.00346241  0.00989841  0.24847119  1
  In  In75  1  0.83290170  0.16667226  0.48873450  1
  In  In76  1  0.49776084  0.16909818  0.50471544  1
  In  In77  1  0.16286347  0.82571972  -0.00244226  1
  In  In78  1  0.00266374  0.32648650  0.75069899  1
  In  In79  1  0.16929566  0.16728261  0.00357201  1
  In  In80  1  0.00208433  0.67056018  0.74618925  1
  In  In81  1  0.17324647  0.83432016  0.50002484  1
  In  In82  1  0.16873933  0.49896854  0.50555776  1
  In  In83  1  0.82623531  0.50613382  0.50546758  1
  In  In84  1  -0.00077143  0.65953222  0.25268692  1
  In  In85  1  -0.00093401  -0.00277052  0.74439389  1
  Cu  Cu86  1  0.65751499  -0.00025836  -0.00096968  1
  Cu  Cu87  1  -0.01268138  0.67208829  0.50597269  1
  Cu  Cu88  1  0.66830989  0.00402529  0.50206092  1
  Cu  Cu89  1  0.82799757  0.48956984  0.24158441  1
  Cu  Cu90  1  0.82824853  0.16625488  0.24313490  1
  Cu  Cu91  1  0.50885795  0.83039986  0.75025962  1
  Cu  Cu92  1  -0.00549347  0.66578455  -0.00155270  1
  Cu  Cu93  1  -0.01588925  -0.00444628  0.00080726  1
  Cu  Cu94  1  -0.00533462  0.32849315  0.49463087  1
  Cu  Cu95  1  0.16418773  0.48921001  0.24553727  1
  Cu  Cu96  1  0.33751795  0.00181490  -0.00162382  1
  Cu  Cu97  1  0.49940578  0.16451900  0.75222197  1
  Cu  Cu98  1  0.17752044  0.49607765  0.75202470  1
  Cu  Cu99  1  0.82617662  0.83665861  0.24660422  1
  Cu  Cu100  1  0.66398830  0.32948630  -0.00068981  1
  Cu  Cu101  1  0.17634946  0.84050357  0.25611149  1
  Cu  Cu102  1  -0.00040581  0.32919755  0.00228082  1
  Cu  Cu103  1  0.50521377  0.83752833  0.25228045  1
  Cu  Cu104  1  0.66518248  0.66870667  -0.00724316  1
  Cu  Cu105  1  0.49771519  0.49756771  0.24317698  1
  Cu  Cu106  1  0.49960544  0.49823713  0.75602251  1
  Cu  Cu107  1  0.50284360  0.16996495  0.24661280  1
  Cu  Cu108  1  0.82433596  0.83509080  0.75192997  1
  Cu  Cu109  1  0.33298467  0.33056591  0.50195144  1
  Cu  Cu110  1  0.18126737  0.83494058  0.74748405  1
  Cu  Cu111  1  0.17289122  0.16696323  0.74503606  1
  Cu  Cu112  1  0.17906575  0.16715290  0.25024622  1
  Cu  Cu113  1  0.33730103  0.66685970  -0.00585189  1
  Cu  Cu114  1  0.82410717  0.17035516  0.75619724  1
  Se  Se115  1  0.07246291  0.07233887  0.05734907  1
  Se  Se116  1  0.08688110  0.08029624  0.54454297  1
  Se  Se117  1  0.08404494  0.41124179  0.05547750  1
  Se  Se118  1  0.07210010  0.40607875  0.55945060  1
  Se  Se119  1  0.07345875  0.74104408  0.06460969  1
  Se  Se120  1  0.07756746  0.74674117  0.56138154  1
  Se  Se121  1  0.41660667  0.08367674  0.05548362  1
  Se  Se122  1  0.41011381  0.07562367  0.55993933  1
  Se  Se123  1  0.44158726  0.43736294  0.05622404  1
  Se  Se124  1  0.41447102  0.41433933  0.55546355  1
  Se  Se125  1  0.41534052  0.75213014  0.04966986  1
  Se  Se126  1  0.42771481  0.74703178  0.55444708  1
  Se  Se127  1  0.74303065  0.08375563  0.05080882  1
  Se  Se128  1  0.74570509  0.08799153  0.56072396  1
  Se  Se129  1  0.75019493  0.41437164  0.05023774  1
  Se  Se130  1  0.73922822  0.41238470  0.56217764  1
  Se  Se131  1  0.74493136  0.75102677  0.05154407  1
  Se  Se132  1  0.77280293  0.78073053  0.56413869  1
  Se  Se133  1  0.25943500  0.25733230  0.05952865  1
  Se  Se134  1  0.24689412  0.24856448  0.55204136  1
  Se  Se135  1  0.24905597  0.58576366  0.04511507  1
  Se  Se136  1  0.25986930  0.58991094  0.55970802  1
  Se  Se137  1  0.25230728  0.92141561  0.05588981  1
  Se  Se138  1  0.26186383  0.91294914  0.56584011  1
  Se  Se139  1  0.57854416  0.24973703  0.05364527  1
  Se  Se140  1  0.59082702  0.26138572  0.55780966  1
  Se  Se141  1  0.58451055  0.58618583  0.04923758  1
  Se  Se142  1  0.61971861  0.59302221  0.57098132  1
  Se  Se143  1  0.57617009  0.91599802  0.05446358  1
  Se  Se144  1  0.58322385  0.92405280  0.55600380  1
  Se  Se145  1  0.91549867  0.24529575  0.05278429  1
  Se  Se146  1  0.91526885  0.25533888  0.55998647  1
  Se  Se147  1  0.91249155  0.58031666  0.05117364  1
  Se  Se148  1  0.90666925  0.59967406  0.56835566  1
  Se  Se149  1  0.90550535  0.90825383  0.05266073  1
  Se  Se150  1  0.93723872  0.94550970  0.55718180  1
  Se  Se151  1  0.08167792  0.24957527  0.44323631  1
  Se  Se152  1  0.07902089  0.25284294  0.93778562  1
  Se  Se153  1  0.06727916  0.58913614  0.44793559  1
  Se  Se154  1  0.08407150  0.58623706  0.94874591  1
  Se  Se155  1  0.08552639  0.92053197  0.43556457  1
  Se  Se156  1  0.07057491  0.92168379  0.94056993  1
  Se  Se157  1  0.41481614  0.25748421  0.43810241  1
  Se  Se158  1  0.41344393  0.25205215  0.94806010  1
  Se  Se159  1  0.40629459  0.58359014  0.44985096  1
  Se  Se160  1  0.42122600  0.58408314  0.94184661  1
  Se  Se161  1  0.43203524  0.91719605  0.44895059  1
  Se  Se162  1  0.41794643  0.91640268  0.94511068  1
  Se  Se163  1  0.73942598  0.26417403  0.44106029  1
  Se  Se164  1  0.74804570  0.24471408  0.94728262  1
  Se  Se165  1  0.74199274  0.59236495  0.43794270  1
  Se  Se166  1  0.74877220  0.58107909  0.94412924  1
  Se  Se167  1  0.75189854  0.92137557  0.44772733  1
  Se  Se168  1  0.74370891  0.91539406  0.94799714  1
  Se  Se169  1  0.25916902  0.08871972  0.45176967  1
  Se  Se170  1  0.25604677  0.08077672  0.93904483  1
  Se  Se171  1  0.25100447  0.40981667  0.43960570  1
  Se  Se172  1  0.24862214  0.42623025  0.94784886  1
  Se  Se173  1  0.26128294  0.74027200  0.44171889  1
  Se  Se174  1  0.25850208  0.75001461  0.93377463  1
  Se  Se175  1  0.59156979  0.08565238  0.44052059  1
  Se  Se176  1  0.57722185  0.08609479  0.94616048  1
  Se  Se177  1  0.56573519  0.42793545  0.44270995  1
  Se  Se178  1  0.58700696  0.41584894  0.94278729  1
  Se  Se179  1  0.58649855  0.74603473  0.46020025  1
  Se  Se180  1  0.57903389  0.75288208  0.94406126  1
  Se  Se181  1  0.92353909  0.07529392  0.43221920  1
  Se  Se182  1  0.90784373  0.08497315  0.94908382  1
  Se  Se183  1  0.91480151  0.41354307  0.44013659  1
  Se  Se184  1  0.91762636  0.41459600  0.94953072  1
  Se  Se185  1  0.91060121  0.75819979  0.45108140  1
  Se  Se186  1  0.91091573  0.75032933  0.94816602  1
  Se  Se187  1  0.25776025  0.25460301  0.30312956  1
  Se  Se188  1  0.25104498  0.25222953  0.79987549  1
  Se  Se189  1  0.23864709  0.56831252  0.31063523  1
  Se  Se190  1  0.25771859  0.58346607  0.80292933  1
  Se  Se191  1  0.26585383  0.91647620  0.30639118  1
  Se  Se192  1  0.25698685  0.92371254  0.80024994  1
  Se  Se193  1  0.58681393  0.25302428  0.29973797  1
  Se  Se194  1  0.57953460  0.24958393  0.80701152  1
  Se  Se195  1  0.56913686  0.57962778  0.30898680  1
  Se  Se196  1  0.58712320  0.58298564  0.80326930  1
  Se  Se197  1  0.58841982  0.91793065  0.30764597  1
  Se  Se198  1  0.58389355  0.91871878  0.80590083  1
  Se  Se199  1  0.91455635  0.24697498  0.29636873  1
  Se  Se200  1  0.90924225  0.24633459  0.81399831  1
  Se  Se201  1  0.90251763  0.56947374  0.30774293  1
  Se  Se202  1  0.92227317  0.58064863  0.81253968  1
  Se  Se203  1  0.91458941  0.91170864  0.30434566  1
  Se  Se204  1  0.90911639  0.91465156  0.81059892  1
  Se  Se205  1  0.09926320  0.08646200  0.31221585  1
  Se  Se206  1  0.09143324  0.08843666  0.80555448  1
  Se  Se207  1  0.07813623  0.40934002  0.29917090  1
  Se  Se208  1  0.09209027  0.41914123  0.80951173  1
  Se  Se209  1  0.09352540  0.75609727  0.30745005  1
  Se  Se210  1  0.09661958  0.75869736  0.80769702  1
  Se  Se211  1  0.42060650  0.08914455  0.30382900  1
  Se  Se212  1  0.41506131  0.07993719  0.80339923  1
  Se  Se213  1  0.41415469  0.41404756  0.29629956  1
  Se  Se214  1  0.41633995  0.41335131  0.80696295  1
  Se  Se215  1  0.43222824  0.75106921  0.31341020  1
  Se  Se216  1  0.42206041  0.74661655  0.80047018  1
  Se  Se217  1  0.74619561  0.08296139  0.29682136  1
  Se  Se218  1  0.74243971  0.08244794  0.80537539  1
  Se  Se219  1  0.74421706  0.41695712  0.30235301  1
  Se  Se220  1  0.75256961  0.41558732  0.80291521  1
  Se  Se221  1  0.75113192  0.76198701  0.31373479  1
  Se  Se222  1  0.74761232  0.74898481  0.80723406  1
  Se  Se223  1  0.25986004  0.08044146  0.19928265  1
  Se  Se224  1  0.25245339  0.08035479  0.69323080  1
  Se  Se225  1  0.25422152  0.41713787  0.19030694  1
  Se  Se226  1  0.25904511  0.41290869  0.69802223  1
  Se  Se227  1  0.25137593  0.75732500  0.19434562  1
  Se  Se228  1  0.26183885  0.74502620  0.70027057  1
  Se  Se229  1  0.58444907  0.08393114  0.19427553  1
  Se  Se230  1  0.58389924  0.08187436  0.69941330  1
  Se  Se231  1  0.58632868  0.41500724  0.19542280  1
  Se  Se232  1  0.57797309  0.40575788  0.70591277  1
  Se  Se233  1  0.57496201  0.74885882  0.19166374  1
  Se  Se234  1  0.59247756  0.74949193  0.69543166  1
  Se  Se235  1  0.90621435  0.08285271  0.18331059  1
  Se  Se236  1  0.90467851  0.09317936  0.69310755  1
  Se  Se237  1  0.91628682  0.40998303  0.19151907  1
  Se  Se238  1  0.91498213  0.42513963  0.69713854  1
  Se  Se239  1  0.90548402  0.74921744  0.19306572  1
  Se  Se240  1  0.90389941  0.75455332  0.69205317  1
  Se  Se241  1  0.08828303  0.24365857  0.19822585  1
  Se  Se242  1  0.08587332  0.23802638  0.68406939  1
  Se  Se243  1  0.08937246  0.57686281  0.18768838  1
  Se  Se244  1  0.09587678  0.57328555  0.69047562  1
  Se  Se245  1  0.09355941  0.91081484  0.19149460  1
  Se  Se246  1  0.09319770  0.90742812  0.68787780  1
  Se  Se247  1  0.41815955  0.25329003  0.19510845  1
  Se  Se248  1  0.41765769  0.24593991  0.69402813  1
  Se  Se249  1  0.41390963  0.57826676  0.18700203  1
  Se  Se250  1  0.42719443  0.58300983  0.69444847  1
  Se  Se251  1  0.42026665  0.91893375  0.19874755  1
  Se  Se252  1  0.42193557  0.91409178  0.69976425  1
  Se  Se253  1  0.74605630  0.25099926  0.19050002  1
  Se  Se254  1  0.74467489  0.25431887  0.70074990  1
  Se  Se255  1  0.74723636  0.57453948  0.18766622  1
  Se  Se256  1  0.76745533  0.57183635  0.70182370  1
  Se  Se257  1  0.73912711  0.91527519  0.19509996  1
  Se  Se258  1  0.74571435  0.92418079  0.70024629  1
