# generated using pymatgen
data_In86Cu29Se144
_symmetry_space_group_name_H-M   'P 1'
_cell_length_a   17.57693700
_cell_length_b   17.58093324
_cell_length_c   23.43983965
_cell_angle_alpha   90.00140029
_cell_angle_beta   89.98742420
_cell_angle_gamma   90.00927557
_symmetry_Int_Tables_number   1
_chemical_formula_structural   In86Cu29Se144
_chemical_formula_sum   'In86 Cu29 Se144'
_cell_volume   7243.35450321
_cell_formula_units_Z   1
loop_
 _symmetry_equiv_pos_site_id
 _symmetry_equiv_pos_as_xyz
  1  'x, y, z'
loop_
 _atom_site_type_symbol
 _atom_site_label
 _atom_site_symmetry_multiplicity
 _atom_site_fract_x
 _atom_site_fract_y
 _atom_site_fract_z
 _atom_site_occupancy
  In  In0  1  -0.01124684  0.15733754  0.12311262  1
  In  In1  1  -0.00624178  0.15819697  0.61790840  1
  In  In2  1  0.00782519  0.50994576  0.12566869  1
  In  In3  1  -0.00324490  0.51907952  0.62312997  1
  In  In4  1  0.00077174  0.83175622  0.12277594  1
  In  In5  1  0.01000207  0.82962055  0.63735797  1
  In  In6  1  0.32273292  0.18382356  0.14450364  1
  In  In7  1  0.32605410  0.16838254  0.60169664  1
  In  In8  1  0.33174509  0.49705177  0.13634493  1
  In  In9  1  0.33796448  0.49584381  0.62155030  1
  In  In10  1  0.31793874  0.83922085  0.13261297  1
  In  In11  1  0.32234762  0.84687224  0.62057229  1
  In  In12  1  0.67418267  0.17279404  0.13179152  1
  In  In13  1  0.67544025  0.17371297  0.61489100  1
  In  In14  1  0.67081605  0.50451263  0.12508375  1
  In  In15  1  0.66073864  0.49629346  0.61410314  1
  In  In16  1  0.66845108  0.81758138  0.12353323  1
  In  In17  1  0.68084283  0.83409920  0.62289832  1
  In  In18  1  0.16578198  -0.00124373  0.36920196  1
  In  In19  1  0.15777099  0.00068540  0.87968345  1
  In  In20  1  0.16843582  0.31812238  0.37302532  1
  In  In21  1  0.16742500  0.33368924  0.89141428  1
  In  In22  1  0.17583188  0.67028705  0.36371022  1
  In  In23  1  0.14821348  0.68329136  0.89685980  1
  In  In24  1  0.49625813  0.03141281  0.36848821  1
  In  In25  1  0.49630549  -0.00029918  0.87670930  1
  In  In26  1  0.50618524  0.32797190  0.36539626  1
  In  In27  1  0.50864348  0.33844841  0.87579937  1
  In  In28  1  0.48929022  0.65372014  0.36921390  1
  In  In29  1  0.49208969  0.65844876  0.88218930  1
  In  In30  1  0.84737609  0.00040469  0.37264805  1
  In  In31  1  0.86168622  -0.02138895  0.89688450  1
  In  In32  1  0.82599389  0.34581363  0.37515161  1
  In  In33  1  0.82984862  0.33453416  0.89004360  1
  In  In34  1  0.82482397  0.63885372  0.34561742  1
  In  In35  1  0.84201077  0.66300999  0.88064338  1
  In  In36  1  0.01008181  0.16020567  0.38070932  1
  In  In37  1  0.01203674  0.15713552  0.88577491  1
  In  In38  1  -0.00354369  0.49808087  0.36848620  1
  In  In39  1  -0.00987094  0.50885766  0.88642022  1
  In  In40  1  -0.00003944  0.83874067  0.37112041  1
  In  In41  1  0.00298188  0.83192002  0.87273034  1
  In  In42  1  0.33736940  0.16460858  0.36193074  1
  In  In43  1  0.32535680  0.15659126  0.88000650  1
  In  In44  1  0.33580567  0.50760220  0.36658605  1
  In  In45  1  0.33372320  0.50054694  0.88697172  1
  In  In46  1  0.31884877  0.82451526  0.36939668  1
  In  In47  1  0.32645913  0.82111979  0.88047166  1
  In  In48  1  0.65033367  0.19000280  0.38066161  1
  In  In49  1  0.67093454  0.17803172  0.87518693  1
  In  In50  1  0.66783595  0.48822217  0.36419016  1
  In  In51  1  0.66493676  0.50162455  0.88429045  1
  In  In52  1  0.67746277  0.82600405  0.36983088  1
  In  In53  1  0.68056073  0.84366994  0.87797538  1
  In  In54  1  0.16017958  -0.00305550  0.12399006  1
  In  In55  1  0.16048097  -0.00444393  0.61147362  1
  In  In56  1  0.17679548  0.34089610  0.12441415  1
  In  In57  1  0.17873247  0.32929691  0.61892912  1
  In  In58  1  0.16050004  0.66307806  0.13451370  1
  In  In59  1  0.14722137  0.67238739  0.62436693  1
  In  In60  1  0.48812247  -0.00223490  0.13133425  1
  In  In61  1  0.48480091  0.00269217  0.61663646  1
  In  In62  1  0.48247172  0.34676925  0.14672071  1
  In  In63  1  0.50050226  0.33959041  0.60775701  1
  In  In64  1  0.51533418  0.65390456  0.13471099  1
  In  In65  1  0.50505207  0.65793699  0.61792525  1
  In  In66  1  0.84316509  0.00884627  0.12382530  1
  In  In67  1  0.84032429  0.00645989  0.62775480  1
  In  In68  1  0.82591446  0.33233069  0.12706784  1
  In  In69  1  0.83116286  0.33251775  0.61523923  1
  In  In70  1  0.83501323  0.66339022  0.12402293  1
  In  In71  1  0.84448482  0.66908913  0.61929094  1
  In  In72  1  0.32185218  0.00004109  0.75346983  1
  In  In73  1  0.33279492  0.33743294  0.75006100  1
  In  In74  1  0.67067307  0.33916033  0.73383807  1
  In  In75  1  0.49153179  0.83416861  0.49615969  1
  In  In76  1  0.16373231  0.49498082  0.49537856  1
  In  In77  1  0.49833969  0.82570031  0.00650220  1
  In  In78  1  0.00048124  0.33782720  0.24681463  1
  In  In79  1  0.84125737  0.82926271  0.49741580  1
  In  In80  1  0.49799108  0.17172306  0.00306866  1
  In  In81  1  0.67331921  0.66030307  0.76254356  1
  In  In82  1  0.68270361  0.00367116  0.74475490  1
  In  In83  1  -0.00096180  0.33718053  0.75239505  1
  In  In84  1  0.66812949  -0.00145647  0.25583801  1
  In  In85  1  0.32183150  0.66320005  0.74287364  1
  Cu  Cu86  1  0.32520971  0.66408174  0.49295066  1
  Cu  Cu87  1  0.33223993  0.65634470  0.01350160  1
  Cu  Cu88  1  0.33529244  0.33616008  0.01342567  1
  Cu  Cu89  1  -0.00473252  0.33530500  0.49364029  1
  Cu  Cu90  1  0.00187438  0.66669835  0.00546231  1
  Cu  Cu91  1  0.16191566  0.15828009  0.25007279  1
  Cu  Cu92  1  0.16333386  0.16504798  0.74823416  1
  Cu  Cu93  1  0.50416770  0.49947503  0.25021365  1
  Cu  Cu94  1  0.50850985  0.82562358  0.74964755  1
  Cu  Cu95  1  0.66402012  0.65115383  0.48615131  1
  Cu  Cu96  1  -0.00616606  0.67202091  0.49597846  1
  Cu  Cu97  1  0.00780871  0.00112734  0.49537747  1
  Cu  Cu98  1  0.67359470  0.66344998  0.00320577  1
  Cu  Cu99  1  0.66119832  0.33691917  0.00585673  1
  Cu  Cu100  1  0.66819538  0.00643244  0.49947296  1
  Cu  Cu101  1  0.49910008  0.17196077  0.73554129  1
  Cu  Cu102  1  -0.00128732  0.33310935  0.01062010  1
  Cu  Cu103  1  0.16144735  0.83516167  0.24670561  1
  Cu  Cu104  1  0.83427603  0.16921337  0.25456061  1
  Cu  Cu105  1  0.83734290  0.82949290  0.24681112  1
  Cu  Cu106  1  0.31958176  0.00175110  0.00648787  1
  Cu  Cu107  1  0.84700989  0.15877730  0.75853491  1
  Cu  Cu108  1  0.49351719  0.83213904  0.25282652  1
  Cu  Cu109  1  0.67543854  0.00426433  0.00763604  1
  Cu  Cu110  1  0.16137218  0.50816950  0.75884538  1
  Cu  Cu111  1  0.83073851  0.50286221  0.75254741  1
  Cu  Cu112  1  0.00058976  -0.00193182  0.00315798  1
  Cu  Cu113  1  0.33096758  0.00762960  0.48773400  1
  Cu  Cu114  1  0.66816429  0.33528201  0.49253544  1
  Se  Se115  1  0.08197601  0.08469363  0.05528343  1
  Se  Se116  1  0.08728055  0.09147594  0.54751132  1
  Se  Se117  1  0.08431477  0.41731238  0.05975338  1
  Se  Se118  1  0.07184787  0.41163873  0.56249097  1
  Se  Se119  1  0.08839643  0.74726089  0.05840872  1
  Se  Se120  1  0.07337503  0.75560913  0.55156620  1
  Se  Se121  1  0.40635910  0.08181232  0.06057235  1
  Se  Se122  1  0.41975191  0.08593197  0.54109123  1
  Se  Se123  1  0.41960903  0.41984362  0.06337310  1
  Se  Se124  1  0.40871723  0.41852565  0.54693014  1
  Se  Se125  1  0.41260706  0.74168760  0.07137016  1
  Se  Se126  1  0.40342951  0.74217946  0.55922804  1
  Se  Se127  1  0.75307401  0.09201931  0.06013568  1
  Se  Se128  1  0.75706168  0.08078969  0.55449071  1
  Se  Se129  1  0.75022789  0.41832473  0.05513053  1
  Se  Se130  1  0.75066976  0.41834938  0.54904575  1
  Se  Se131  1  0.75684255  0.75101831  0.05099306  1
  Se  Se132  1  0.73943588  0.73563778  0.54880192  1
  Se  Se133  1  0.25273892  0.24491565  0.05850785  1
  Se  Se134  1  0.25361090  0.26427026  0.53988681  1
  Se  Se135  1  0.24592883  0.57766944  0.06719337  1
  Se  Se136  1  0.24685968  0.59028398  0.56132411  1
  Se  Se137  1  0.24115175  0.91003542  0.05428554  1
  Se  Se138  1  0.25121081  0.92083003  0.54239033  1
  Se  Se139  1  0.58080682  0.25902733  0.06809859  1
  Se  Se140  1  0.58681073  0.24995794  0.54841775  1
  Se  Se141  1  0.58441479  0.58300482  0.05262429  1
  Se  Se142  1  0.57711749  0.57640083  0.54395026  1
  Se  Se143  1  0.58806847  0.92416464  0.06290398  1
  Se  Se144  1  0.59053759  0.92041285  0.55725105  1
  Se  Se145  1  0.91090297  0.25039099  0.05874739  1
  Se  Se146  1  0.91710169  0.24955931  0.55139751  1
  Se  Se147  1  0.91748493  0.58034772  0.05440868  1
  Se  Se148  1  0.91233463  0.58217491  0.54541804  1
  Se  Se149  1  0.91463562  0.91636036  0.05569242  1
  Se  Se150  1  0.92659095  0.92115254  0.55781123  1
  Se  Se151  1  0.08443824  0.25120937  0.44893013  1
  Se  Se152  1  0.08203807  0.24998630  0.95503695  1
  Se  Se153  1  0.07861726  0.59112796  0.43794209  1
  Se  Se154  1  0.08482918  0.57608404  0.95574326  1
  Se  Se155  1  0.08572411  0.91447238  0.44178570  1
  Se  Se156  1  0.08160343  0.91318083  0.94834487  1
  Se  Se157  1  0.43339450  0.23146193  0.42942936  1
  Se  Se158  1  0.40562284  0.26102251  0.93973451  1
  Se  Se159  1  0.41234299  0.58074460  0.44631617  1
  Se  Se160  1  0.41883136  0.58010803  0.95684202  1
  Se  Se161  1  0.41184774  0.92358295  0.43015669  1
  Se  Se162  1  0.40665907  0.92263388  0.94755581  1
  Se  Se163  1  0.75611630  0.25102904  0.44347125  1
  Se  Se164  1  0.74323891  0.24916915  0.95429733  1
  Se  Se165  1  0.75275339  0.57724721  0.43135279  1
  Se  Se166  1  0.75558903  0.58040867  0.94719103  1
  Se  Se167  1  0.74604717  0.92304465  0.44112669  1
  Se  Se168  1  0.75372323  0.91431403  0.95667532  1
  Se  Se169  1  0.24747001  0.08894139  0.43361721  1
  Se  Se170  1  0.23936320  0.08508584  0.94999139  1
  Se  Se171  1  0.25541210  0.41246119  0.43435567  1
  Se  Se172  1  0.25166992  0.41832970  0.95560701  1
  Se  Se173  1  0.24079703  0.74916271  0.44536884  1
  Se  Se174  1  0.25580145  0.74571730  0.95841184  1
  Se  Se175  1  0.58482251  0.08756168  0.44597554  1
  Se  Se176  1  0.59077656  0.07658373  0.94420815  1
  Se  Se177  1  0.58370504  0.41471279  0.43769366  1
  Se  Se178  1  0.57858693  0.41914729  0.95091526  1
  Se  Se179  1  0.58551918  0.74534110  0.43779294  1
  Se  Se180  1  0.59317640  0.74449972  0.94004567  1
  Se  Se181  1  0.91732872  0.08281072  0.44774929  1
  Se  Se182  1  0.91705141  0.09022963  0.95522724  1
  Se  Se183  1  0.91708390  0.42359160  0.44322472  1
  Se  Se184  1  0.91667233  0.41632002  0.95405716  1
  Se  Se185  1  0.91039803  0.73724947  0.42688616  1
  Se  Se186  1  0.92344691  0.74953824  0.94657423  1
  Se  Se187  1  0.24693039  0.24687211  0.29606909  1
  Se  Se188  1  0.24156825  0.24492504  0.80997593  1
  Se  Se189  1  0.25073433  0.58270239  0.29670488  1
  Se  Se190  1  0.24453941  0.58359423  0.81842688  1
  Se  Se191  1  0.24845963  0.91608411  0.29980169  1
  Se  Se192  1  0.23974323  0.90299144  0.81207855  1
  Se  Se193  1  0.59204286  0.25231532  0.29288776  1
  Se  Se194  1  0.57977945  0.24734104  0.79815373  1
  Se  Se195  1  0.58613254  0.58571906  0.30344989  1
  Se  Se196  1  0.57200503  0.57106958  0.80948311  1
  Se  Se197  1  0.57289003  0.91079137  0.31606723  1
  Se  Se198  1  0.58192091  0.91532477  0.80592470  1
  Se  Se199  1  0.91842369  0.24755119  0.31422135  1
  Se  Se200  1  0.91493528  0.24866020  0.81819947  1
  Se  Se201  1  0.94534297  0.59194620  0.29138328  1
  Se  Se202  1  0.91754151  0.58088523  0.80625201  1
  Se  Se203  1  0.91696529  0.91705862  0.29854765  1
  Se  Se204  1  0.91986940  0.92137742  0.80824219  1
  Se  Se205  1  0.07496001  0.07849099  0.30209157  1
  Se  Se206  1  0.08377680  0.08451289  0.80544344  1
  Se  Se207  1  0.09699166  0.41966188  0.30758556  1
  Se  Se208  1  0.08828089  0.42083036  0.81717814  1
  Se  Se209  1  0.08202904  0.75339304  0.30390576  1
  Se  Se210  1  0.08979951  0.74493383  0.80954477  1
  Se  Se211  1  0.40753294  0.07462445  0.28921849  1
  Se  Se212  1  0.42473585  0.09475563  0.80387510  1
  Se  Se213  1  0.41947572  0.41789159  0.30331923  1
  Se  Se214  1  0.42159478  0.42633242  0.81003389  1
  Se  Se215  1  0.41141640  0.74604092  0.30514343  1
  Se  Se216  1  0.42189229  0.75058795  0.80693850  1
  Se  Se217  1  0.75236041  0.09154254  0.31684816  1
  Se  Se218  1  0.76053259  0.08514666  0.81798916  1
  Se  Se219  1  0.76546842  0.42442622  0.29546031  1
  Se  Se220  1  0.75237124  0.41799570  0.80983798  1
  Se  Se221  1  0.74831606  0.74680898  0.29446732  1
  Se  Se222  1  0.76407507  0.75958362  0.80947828  1
  Se  Se223  1  0.24604924  0.07645273  0.19463725  1
  Se  Se224  1  0.24850491  0.09387272  0.68442344  1
  Se  Se225  1  0.26498579  0.39629813  0.20132951  1
  Se  Se226  1  0.23703383  0.43036540  0.69399742  1
  Se  Se227  1  0.24792745  0.74642820  0.20101762  1
  Se  Se228  1  0.23721691  0.76359939  0.68946504  1
  Se  Se229  1  0.57980392  0.08492103  0.19275560  1
  Se  Se230  1  0.58072784  0.08506073  0.68346073  1
  Se  Se231  1  0.59159651  0.41968902  0.19715352  1
  Se  Se232  1  0.56743150  0.42669261  0.68787632  1
  Se  Se233  1  0.58164396  0.75516856  0.19963994  1
  Se  Se234  1  0.58725308  0.74952290  0.68810173  1
  Se  Se235  1  0.91540273  0.08315520  0.20303862  1
  Se  Se236  1  0.92711449  0.08140677  0.69878833  1
  Se  Se237  1  0.90915062  0.42743518  0.18988100  1
  Se  Se238  1  0.90840257  0.42331364  0.68930967  1
  Se  Se239  1  0.91901949  0.74805402  0.19187374  1
  Se  Se240  1  0.91738748  0.74417097  0.69357613  1
  Se  Se241  1  0.08532608  0.24132102  0.18726111  1
  Se  Se242  1  0.08782763  0.24926548  0.68872961  1
  Se  Se243  1  0.07350621  0.58611667  0.20636981  1
  Se  Se244  1  0.08025888  0.58546857  0.69943709  1
  Se  Se245  1  0.07658861  0.91831360  0.19491562  1
  Se  Se246  1  0.09138672  0.92736737  0.69188699  1
  Se  Se247  1  0.43454564  0.23210353  0.20486024  1
  Se  Se248  1  0.41345582  0.24841772  0.68075310  1
  Se  Se249  1  0.41834532  0.58495079  0.20016146  1
  Se  Se250  1  0.42524544  0.57688114  0.69340851  1
  Se  Se251  1  0.41001186  0.91432399  0.20017587  1
  Se  Se252  1  0.42276846  0.90938107  0.69473434  1
  Se  Se253  1  0.75121991  0.25415471  0.20441721  1
  Se  Se254  1  0.76806697  0.23660050  0.69418436  1
  Se  Se255  1  0.73879338  0.59940688  0.19332186  1
  Se  Se256  1  0.75136723  0.57643291  0.68727212  1
  Se  Se257  1  0.75390996  0.91229262  0.18831849  1
  Se  Se258  1  0.77182129  0.90229588  0.69534044  1
