# generated using pymatgen
data_In86Cu29Se144
_symmetry_space_group_name_H-M   'P 1'
_cell_length_a   17.58260162
_cell_length_b   17.57705798
_cell_length_c   23.43993698
_cell_angle_alpha   89.99338981
_cell_angle_beta   90.01024580
_cell_angle_gamma   89.99329047
_symmetry_Int_Tables_number   1
_chemical_formula_structural   In86Cu29Se144
_chemical_formula_sum   'In86 Cu29 Se144'
_cell_volume   7244.12187639
_cell_formula_units_Z   1
loop_
 _symmetry_equiv_pos_site_id
 _symmetry_equiv_pos_as_xyz
  1  'x, y, z'
loop_
 _atom_site_type_symbol
 _atom_site_label
 _atom_site_symmetry_multiplicity
 _atom_site_fract_x
 _atom_site_fract_y
 _atom_site_fract_z
 _atom_site_occupancy
  In  In0  1  0.00977082  0.15131674  0.13679980  1
  In  In1  1  0.01358461  0.17448032  0.61834646  1
  In  In2  1  -0.00300552  0.50018364  0.13447055  1
  In  In3  1  0.00155324  0.50548721  0.63153742  1
  In  In4  1  0.00133890  0.83586945  0.12475937  1
  In  In5  1  -0.01076493  0.82507306  0.61622065  1
  In  In6  1  0.33188483  0.16415418  0.12337990  1
  In  In7  1  0.33502236  0.17377697  0.62212125  1
  In  In8  1  0.34386977  0.48268864  0.13411373  1
  In  In9  1  0.33766069  0.48636804  0.62492905  1
  In  In10  1  0.33126086  0.85131714  0.12950263  1
  In  In11  1  0.33033182  0.83254139  0.61468193  1
  In  In12  1  0.67422803  0.17841028  0.12578420  1
  In  In13  1  0.65170464  0.16890070  0.62481606  1
  In  In14  1  0.65242478  0.48798462  0.11858917  1
  In  In15  1  0.66725857  0.52295156  0.61791553  1
  In  In16  1  0.66865604  0.82322414  0.12071055  1
  In  In17  1  0.66873073  0.83333362  0.62691300  1
  In  In18  1  0.16689193  0.00302462  0.37414427  1
  In  In19  1  0.16209325  0.00347659  0.88178307  1
  In  In20  1  0.15491907  0.31901638  0.36980424  1
  In  In21  1  0.16659653  0.32122584  0.86673335  1
  In  In22  1  0.16029721  0.68147181  0.37584653  1
  In  In23  1  0.16644983  0.68247185  0.87703658  1
  In  In24  1  0.49232463  0.01168076  0.38146173  1
  In  In25  1  0.51745501  0.00059483  0.87666041  1
  In  In26  1  0.49100507  0.33331820  0.36803079  1
  In  In27  1  0.49263822  0.33881370  0.88000791  1
  In  In28  1  0.51013419  0.66024445  0.38861027  1
  In  In29  1  0.50025973  0.65369427  0.87478248  1
  In  In30  1  0.83128089  -0.01135278  0.37510988  1
  In  In31  1  0.81981942  -0.00789733  0.87423052  1
  In  In32  1  0.84003911  0.33576751  0.36529814  1
  In  In33  1  0.84631357  0.32289735  0.87257831  1
  In  In34  1  0.83742998  0.66284850  0.37751853  1
  In  In35  1  0.84948649  0.68346845  0.85959457  1
  In  In36  1  0.01464485  0.18058167  0.36784378  1
  In  In37  1  0.00464860  0.17518730  0.87293581  1
  In  In38  1  -0.00558748  0.49985358  0.36813128  1
  In  In39  1  0.00146952  0.49787077  0.87222012  1
  In  In40  1  0.00001485  0.83705503  0.37307638  1
  In  In41  1  0.00164922  0.83623295  0.87717016  1
  In  In42  1  0.33125629  0.16632219  0.37240433  1
  In  In43  1  0.32555319  0.17713977  0.88307697  1
  In  In44  1  0.34761740  0.49038020  0.36992004  1
  In  In45  1  0.35026855  0.49437204  0.87658727  1
  In  In46  1  0.32335546  0.84503754  0.38155471  1
  In  In47  1  0.32245503  0.82678003  0.87890998  1
  In  In48  1  0.65111794  0.16394649  0.37537609  1
  In  In49  1  0.66455339  0.14952597  0.87643714  1
  In  In50  1  0.66805355  0.49530267  0.37596635  1
  In  In51  1  0.65400984  0.50084393  0.87278894  1
  In  In52  1  0.66852189  0.82802140  0.39024506  1
  In  In53  1  0.68398614  0.84569826  0.85691212  1
  In  In54  1  0.16491520  0.00114013  0.12373676  1
  In  In55  1  0.17205305  0.00821193  0.61744821  1
  In  In56  1  0.17987928  0.31950666  0.13278683  1
  In  In57  1  0.16804447  0.32981155  0.63089378  1
  In  In58  1  0.15296668  0.66511611  0.12594926  1
  In  In59  1  0.15362571  0.67090680  0.62545089  1
  In  In60  1  0.48363788  -0.00506787  0.12805670  1
  In  In61  1  0.50556405  0.00851422  0.62250644  1
  In  In62  1  0.50149379  0.32967914  0.12794773  1
  In  In63  1  0.49240382  0.32773681  0.61440903  1
  In  In64  1  0.51374046  0.66152246  0.12226147  1
  In  In65  1  0.51762043  0.68233671  0.60253017  1
  In  In66  1  0.84756032  0.00710719  0.12377002  1
  In  In67  1  0.83212429  -0.02174331  0.62802570  1
  In  In68  1  0.84289328  0.31007161  0.14611917  1
  In  In69  1  0.83893341  0.34317459  0.62495815  1
  In  In70  1  0.83215310  0.67989302  0.12293117  1
  In  In71  1  0.81622811  0.69479851  0.64727225  1
  In  In72  1  0.17074913  0.49949180  0.50479141  1
  In  In73  1  0.33195936  0.66773573  0.25545829  1
  In  In74  1  0.33397062  0.65628124  0.75047931  1
  In  In75  1  0.66940747  0.33614185  0.74824730  1
  In  In76  1  0.67156881  0.66183030  0.25431801  1
  In  In77  1  0.82217712  0.50062208  0.00391381  1
  In  In78  1  -0.00123729  0.00175403  0.75070515  1
  In  In79  1  0.33789324  0.00827450  0.74375395  1
  In  In80  1  0.83220173  0.16299010  0.49561189  1
  In  In81  1  0.66748480  0.00363043  0.25211050  1
  In  In82  1  0.17242434  0.49661791  0.00680208  1
  In  In83  1  0.49877737  0.83292953  -0.00009104  1
  In  In84  1  0.83329776  0.50522592  0.49761290  1
  In  In85  1  0.83217783  0.16108904  -0.00171445  1
  Cu  Cu86  1  0.16310606  0.49811247  0.25063663  1
  Cu  Cu87  1  0.66047760  0.33180316  0.00326417  1
  Cu  Cu88  1  0.50563579  0.82726353  0.74650194  1
  Cu  Cu89  1  0.83924900  0.16230892  0.75154588  1
  Cu  Cu90  1  0.66603933  -0.00447451  0.50286452  1
  Cu  Cu91  1  0.15955487  0.83920901  0.25225216  1
  Cu  Cu92  1  0.66936080  0.66840628  -0.00652122  1
  Cu  Cu93  1  0.33219030  0.66527976  0.00013515  1
  Cu  Cu94  1  0.33087320  0.66762397  0.49268345  1
  Cu  Cu95  1  0.50071246  0.49871798  0.74468425  1
  Cu  Cu96  1  0.49318670  0.16826267  0.25043848  1
  Cu  Cu97  1  0.49954586  0.16798621  0.74776230  1
  Cu  Cu98  1  0.16701196  0.49549247  0.75055077  1
  Cu  Cu99  1  0.00437373  -0.00145249  0.49867432  1
  Cu  Cu100  1  -0.00481408  0.67153571  0.50119101  1
  Cu  Cu101  1  0.84362935  0.83728719  0.24777789  1
  Cu  Cu102  1  0.49567408  0.83730902  0.25969573  1
  Cu  Cu103  1  0.16049982  0.83809619  0.74943454  1
  Cu  Cu104  1  0.84078717  0.50303439  0.74893247  1
  Cu  Cu105  1  0.33205394  0.32784861  0.49544513  1
  Cu  Cu106  1  0.00036235  0.67644857  -0.00198746  1
  Cu  Cu107  1  0.17128520  0.16328829  0.24950393  1
  Cu  Cu108  1  0.83167381  0.50079360  0.25028350  1
  Cu  Cu109  1  0.65587098  0.33422309  0.49490941  1
  Cu  Cu110  1  0.33902602  0.32958747  0.00567826  1
  Cu  Cu111  1  0.33274074  0.00291997  0.49811830  1
  Cu  Cu112  1  0.00668135  0.32685939  0.00262872  1
  Cu  Cu113  1  0.00266864  -0.00394814  0.00283509  1
  Cu  Cu114  1  0.32920349  0.00429013  0.00243936  1
  Se  Se115  1  0.08194961  0.08549884  0.05390570  1
  Se  Se116  1  0.08615742  0.08653315  0.54820782  1
  Se  Se117  1  0.07920055  0.40915163  0.06579983  1
  Se  Se118  1  0.07609551  0.41343785  0.56055615  1
  Se  Se119  1  0.08563988  0.75377216  0.05405474  1
  Se  Se120  1  0.08589412  0.75342035  0.54961725  1
  Se  Se121  1  0.41754462  0.08239061  0.05413811  1
  Se  Se122  1  0.41413245  0.08423055  0.55627969  1
  Se  Se123  1  0.42208749  0.41616619  0.05546927  1
  Se  Se124  1  0.41388684  0.41592250  0.54636209  1
  Se  Se125  1  0.40973802  0.74545948  0.06535433  1
  Se  Se126  1  0.41371140  0.75402008  0.54511878  1
  Se  Se127  1  0.74167848  0.07430965  0.05914645  1
  Se  Se128  1  0.74536911  0.07863325  0.56305354  1
  Se  Se129  1  0.75301870  0.39671140  0.06478856  1
  Se  Se130  1  0.73891385  0.41080275  0.55618816  1
  Se  Se131  1  0.75201182  0.75128580  0.04681746  1
  Se  Se132  1  0.75295600  0.74993960  0.55905627  1
  Se  Se133  1  0.24880686  0.24687031  0.05214277  1
  Se  Se134  1  0.24737638  0.25438406  0.55518325  1
  Se  Se135  1  0.26102790  0.58657947  0.06836032  1
  Se  Se136  1  0.25892338  0.59369624  0.56379797  1
  Se  Se137  1  0.24777037  0.91663954  0.05336692  1
  Se  Se138  1  0.24735780  0.91858562  0.55002416  1
  Se  Se139  1  0.58134222  0.24539550  0.05598716  1
  Se  Se140  1  0.57898335  0.24505647  0.54792121  1
  Se  Se141  1  0.58848988  0.58313585  0.04717837  1
  Se  Se142  1  0.56577572  0.56521896  0.54680186  1
  Se  Se143  1  0.58583020  0.92185245  0.06236871  1
  Se  Se144  1  0.58177922  0.91546913  0.55821019  1
  Se  Se145  1  0.92298548  0.24789301  0.06083257  1
  Se  Se146  1  0.91884615  0.25850852  0.55339822  1
  Se  Se147  1  0.92428489  0.58889258  0.05671328  1
  Se  Se148  1  0.91741775  0.59245063  0.56348551  1
  Se  Se149  1  0.91557463  0.91523663  0.05388944  1
  Se  Se150  1  0.91564469  0.91716556  0.54894434  1
  Se  Se151  1  0.08523666  0.24709438  0.44990107  1
  Se  Se152  1  0.08888565  0.24891238  0.94551467  1
  Se  Se153  1  0.07510518  0.58675169  0.44313511  1
  Se  Se154  1  0.08153147  0.58736916  0.94487177  1
  Se  Se155  1  0.08624429  0.91528619  0.44265626  1
  Se  Se156  1  0.08644627  0.91306548  0.94810682  1
  Se  Se157  1  0.41756311  0.24711053  0.44132853  1
  Se  Se158  1  0.42188201  0.24757729  0.94955544  1
  Se  Se159  1  0.41121874  0.57849154  0.44455587  1
  Se  Se160  1  0.41791501  0.58241678  0.95015527  1
  Se  Se161  1  0.41779788  0.91819884  0.44753385  1
  Se  Se162  1  0.40737914  0.92443474  0.93859601  1
  Se  Se163  1  0.74352631  0.25872577  0.43739326  1
  Se  Se164  1  0.74306122  0.25784335  0.93913819  1
  Se  Se165  1  0.73612456  0.59585696  0.44492037  1
  Se  Se166  1  0.75038270  0.58924654  0.93241973  1
  Se  Se167  1  0.75456161  0.91600852  0.45207013  1
  Se  Se168  1  0.74223409  0.91182616  0.94452508  1
  Se  Se169  1  0.24924125  0.08591136  0.44404822  1
  Se  Se170  1  0.24623585  0.08679757  0.94787991  1
  Se  Se171  1  0.25102823  0.41059407  0.43685072  1
  Se  Se172  1  0.25836592  0.40952993  0.94269407  1
  Se  Se173  1  0.24421493  0.75410846  0.44771605  1
  Se  Se174  1  0.24622804  0.75156786  0.95476679  1
  Se  Se175  1  0.58349983  0.08257148  0.45205975  1
  Se  Se176  1  0.58262393  0.08393587  0.95204066  1
  Se  Se177  1  0.57589033  0.41586027  0.43864344  1
  Se  Se178  1  0.58325951  0.41797448  0.94708380  1
  Se  Se179  1  0.58107207  0.75091849  0.45554994  1
  Se  Se180  1  0.58615296  0.74869452  0.93484590  1
  Se  Se181  1  0.92559358  0.07789112  0.43615551  1
  Se  Se182  1  0.92514043  0.07338812  0.93622657  1
  Se  Se183  1  0.92354740  0.41028541  0.44342005  1
  Se  Se184  1  0.92325214  0.40990136  0.94773139  1
  Se  Se185  1  0.91592639  0.75265883  0.44249923  1
  Se  Se186  1  0.91350672  0.75407533  0.94415925  1
  Se  Se187  1  0.25111215  0.25092391  0.30229441  1
  Se  Se188  1  0.26776794  0.25804513  0.80272288  1
  Se  Se189  1  0.23992281  0.57739398  0.31484328  1
  Se  Se190  1  0.24292583  0.57381645  0.81692501  1
  Se  Se191  1  0.24897328  0.91821387  0.30349769  1
  Se  Se192  1  0.24583759  0.91648840  0.80621837  1
  Se  Se193  1  0.57987012  0.24834408  0.30270463  1
  Se  Se194  1  0.58135971  0.24682294  0.81033794  1
  Se  Se195  1  0.57368417  0.57574469  0.30702671  1
  Se  Se196  1  0.58165985  0.58310821  0.79813844  1
  Se  Se197  1  0.58322237  0.91252307  0.31704863  1
  Se  Se198  1  0.58149701  0.91863669  0.79813396  1
  Se  Se199  1  0.91744616  0.24678594  0.30130606  1
  Se  Se200  1  0.92425554  0.24961119  0.79743036  1
  Se  Se201  1  0.91385058  0.58780965  0.30145891  1
  Se  Se202  1  0.92664329  0.58376075  0.80181196  1
  Se  Se203  1  0.92108649  0.92316929  0.30197115  1
  Se  Se204  1  0.90764099  0.90850516  0.80465755  1
  Se  Se205  1  0.08460144  0.08274592  0.30253907  1
  Se  Se206  1  0.09492333  0.09129287  0.80486668  1
  Se  Se207  1  0.07994034  0.41460112  0.30450060  1
  Se  Se208  1  0.08344787  0.41335449  0.80572788  1
  Se  Se209  1  0.07756984  0.75025657  0.30091993  1
  Se  Se210  1  0.08158109  0.75348435  0.80469264  1
  Se  Se211  1  0.41399640  0.08042094  0.30328113  1
  Se  Se212  1  0.42408533  0.08884788  0.81278510  1
  Se  Se213  1  0.41443431  0.41261498  0.29309811  1
  Se  Se214  1  0.42130342  0.41477278  0.80005928  1
  Se  Se215  1  0.42216620  0.75196908  0.31964580  1
  Se  Se216  1  0.42059966  0.75602249  0.80925829  1
  Se  Se217  1  0.75580909  0.09171036  0.31321402  1
  Se  Se218  1  0.75168535  0.08298567  0.80234680  1
  Se  Se219  1  0.74846091  0.41879478  0.30366144  1
  Se  Se220  1  0.76175469  0.42269244  0.81188071  1
  Se  Se221  1  0.75769124  0.76168663  0.30852357  1
  Se  Se222  1  0.73367311  0.72939004  0.80250756  1
  Se  Se223  1  0.25143601  0.07966338  0.19316425  1
  Se  Se224  1  0.24029601  0.09752458  0.69335004  1
  Se  Se225  1  0.24887963  0.41489611  0.20072737  1
  Se  Se226  1  0.25251388  0.41611297  0.69730395  1
  Se  Se227  1  0.24257861  0.75691149  0.19289100  1
  Se  Se228  1  0.24715547  0.75662184  0.69422874  1
  Se  Se229  1  0.57467779  0.08759621  0.18969540  1
  Se  Se230  1  0.58477263  0.08232971  0.69944097  1
  Se  Se231  1  0.58274924  0.41520047  0.19613595  1
  Se  Se232  1  0.58219176  0.42001801  0.68271579  1
  Se  Se233  1  0.57599634  0.75865882  0.19838475  1
  Se  Se234  1  0.58229736  0.74203571  0.69087750  1
  Se  Se235  1  0.90281613  0.09501374  0.19942045  1
  Se  Se236  1  0.91312063  0.08794976  0.68258717  1
  Se  Se237  1  0.91781157  0.41408729  0.20175005  1
  Se  Se238  1  0.92122175  0.41579106  0.69794336  1
  Se  Se239  1  0.92050901  0.74831128  0.19424539  1
  Se  Se240  1  0.93232562  0.74872451  0.69934012  1
  Se  Se241  1  0.08449928  0.24908446  0.19884193  1
  Se  Se242  1  0.07534598  0.25465085  0.69676345  1
  Se  Se243  1  0.08068741  0.58508334  0.20081320  1
  Se  Se244  1  0.08787656  0.58509117  0.70015687  1
  Se  Se245  1  0.07969518  0.92183602  0.19429283  1
  Se  Se246  1  0.08711936  0.91666400  0.68477558  1
  Se  Se247  1  0.41091271  0.24935548  0.19331258  1
  Se  Se248  1  0.42005557  0.25212667  0.69312449  1
  Se  Se249  1  0.42583257  0.58366144  0.19380508  1
  Se  Se250  1  0.42658376  0.58333991  0.68277680  1
  Se  Se251  1  0.41210623  0.91921494  0.20686688  1
  Se  Se252  1  0.42127033  0.90657831  0.68874602  1
  Se  Se253  1  0.73855135  0.24946531  0.20736220  1
  Se  Se254  1  0.75867966  0.24234151  0.68872672  1
  Se  Se255  1  0.75371473  0.57558994  0.18370297  1
  Se  Se256  1  0.75020200  0.58029598  0.69809591  1
  Se  Se257  1  0.75368793  0.90993046  0.18958285  1
  Se  Se258  1  0.74738962  0.91221046  0.70095485  1
