# generated using pymatgen
data_In86Cu29Se144
_symmetry_space_group_name_H-M   'P 1'
_cell_length_a   17.66275260
_cell_length_b   17.66452837
_cell_length_c   23.51923428
_cell_angle_alpha   89.99820136
_cell_angle_beta   89.96242964
_cell_angle_gamma   90.00080469
_symmetry_Int_Tables_number   1
_chemical_formula_structural   In86Cu29Se144
_chemical_formula_sum   'In86 Cu29 Se144'
_cell_volume   7338.09816242
_cell_formula_units_Z   1
loop_
 _symmetry_equiv_pos_site_id
 _symmetry_equiv_pos_as_xyz
  1  'x, y, z'
loop_
 _atom_site_type_symbol
 _atom_site_label
 _atom_site_symmetry_multiplicity
 _atom_site_fract_x
 _atom_site_fract_y
 _atom_site_fract_z
 _atom_site_occupancy
  In  In0  1  -0.00869576  0.16728089  0.13235673  1
  In  In1  1  -0.00085590  0.15596007  0.62296995  1
  In  In2  1  -0.01094428  0.48481171  0.11520248  1
  In  In3  1  -0.00641265  0.52252956  0.63561982  1
  In  In4  1  0.00897436  0.83213615  0.12538719  1
  In  In5  1  -0.00600747  0.84721335  0.61418475  1
  In  In6  1  0.34185264  0.15753413  0.13111044  1
  In  In7  1  0.32994002  0.17927106  0.62172313  1
  In  In8  1  0.32429711  0.49646207  0.12182818  1
  In  In9  1  0.32678908  0.50451906  0.62496344  1
  In  In10  1  0.34082995  0.83710876  0.11957106  1
  In  In11  1  0.32560917  0.83805499  0.63075588  1
  In  In12  1  0.66641209  0.17101483  0.11935805  1
  In  In13  1  0.67385247  0.17177785  0.63050879  1
  In  In14  1  0.67041897  0.48967613  0.12088282  1
  In  In15  1  0.67899726  0.49571462  0.64041940  1
  In  In16  1  0.66089576  0.83752521  0.12752352  1
  In  In17  1  0.67198659  0.81455398  0.63055689  1
  In  In18  1  0.16455246  -0.00047988  0.37257225  1
  In  In19  1  0.15176253  -0.00355670  0.86583224  1
  In  In20  1  0.16021987  0.32521135  0.36703189  1
  In  In21  1  0.17586407  0.33395071  0.87792910  1
  In  In22  1  0.17124159  0.67570306  0.38158796  1
  In  In23  1  0.16831304  0.66554007  0.87417987  1
  In  In24  1  0.50485023  0.00207624  0.36075386  1
  In  In25  1  0.51037938  -0.00692335  0.88872748  1
  In  In26  1  0.50121864  0.33666945  0.35963031  1
  In  In27  1  0.52679029  0.33095329  0.90495613  1
  In  In28  1  0.50299636  0.65630263  0.37141907  1
  In  In29  1  0.50316951  0.66519131  0.88352428  1
  In  In30  1  0.82539425  -0.01060040  0.36533149  1
  In  In31  1  0.84726935  -0.00992655  0.87768500  1
  In  In32  1  0.83195242  0.33389045  0.37033783  1
  In  In33  1  0.80534373  0.36317257  0.90500295  1
  In  In34  1  0.82784038  0.67398600  0.38163890  1
  In  In35  1  0.82514671  0.65990608  0.85569026  1
  In  In36  1  0.00975466  0.17728741  0.36724433  1
  In  In37  1  -0.00986825  0.15614554  0.87305306  1
  In  In38  1  -0.00722697  0.48528329  0.37226696  1
  In  In39  1  -0.00406566  0.50662859  0.87617676  1
  In  In40  1  -0.00664745  0.83936605  0.38086436  1
  In  In41  1  0.00330098  0.83574683  0.86413839  1
  In  In42  1  0.32689063  0.15646125  0.36337823  1
  In  In43  1  0.34468985  0.17477465  0.88229903  1
  In  In44  1  0.33997417  0.49884901  0.36796936  1
  In  In45  1  0.33670855  0.49782083  0.88480919  1
  In  In46  1  0.31912312  0.83369150  0.37707352  1
  In  In47  1  0.32979088  0.83617093  0.87990605  1
  In  In48  1  0.67070785  0.16914057  0.36560000  1
  In  In49  1  0.66673697  0.17556386  0.89152726  1
  In  In50  1  0.66921755  0.50063596  0.36620157  1
  In  In51  1  0.66940657  0.51677072  0.88200387  1
  In  In52  1  0.67066935  0.83509796  0.36697499  1
  In  In53  1  0.66799165  0.81377715  0.87555455  1
  In  In54  1  0.17199889  -0.00713715  0.13133907  1
  In  In55  1  0.15161187  -0.01425019  0.60817596  1
  In  In56  1  0.15835165  0.33625404  0.13138296  1
  In  In57  1  0.17042891  0.33519378  0.61700317  1
  In  In58  1  0.16503041  0.67040506  0.11503719  1
  In  In59  1  0.06408579  0.69744206  0.68283115  1
  In  In60  1  0.49993149  0.00049933  0.12364162  1
  In  In61  1  0.50314616  0.00213664  0.62922058  1
  In  In62  1  0.50735411  0.32954760  0.12035994  1
  In  In63  1  0.50597994  0.34659604  0.62768079  1
  In  In64  1  0.51753631  0.66886887  0.10719275  1
  In  In65  1  0.51403264  0.66543199  0.63683574  1
  In  In66  1  0.82431544  0.00510456  0.13298338  1
  In  In67  1  0.84772462  0.01056376  0.62246163  1
  In  In68  1  0.83367655  0.33072933  0.12355297  1
  In  In69  1  0.81443812  0.33958102  0.62583903  1
  In  In70  1  0.82363833  0.64697971  0.11481041  1
  In  In71  1  0.83468909  0.66395220  0.62365182  1
  In  In72  1  0.49902082  0.17066320  0.49661826  1
  In  In73  1  0.33495941  0.00002392  0.74980272  1
  In  In74  1  -0.00472688  0.66368278  0.24551122  1
  In  In75  1  0.34843325  0.33024801  0.75643169  1
  In  In76  1  0.83822852  0.16863326  0.49022314  1
  In  In77  1  0.15925850  0.50590417  0.50309004  1
  In  In78  1  -0.00337084  0.32999612  0.75927557  1
  In  In79  1  0.32854408  0.67020497  0.75029074  1
  In  In80  1  0.33764480  0.66586726  0.24811017  1
  In  In81  1  0.16971748  0.15957545  0.00187566  1
  In  In82  1  0.49824936  0.83515403  0.50366789  1
  In  In83  1  0.83567215  0.82767978  -0.00511328  1
  In  In84  1  0.67968378  -0.01085424  0.76189127  1
  In  In85  1  0.49878305  0.49901016  0.49392997  1
  Cu  Cu86  1  0.33003553  0.66910082  -0.00065734  1
  Cu  Cu87  1  0.83099301  0.82492342  0.25018343  1
  Cu  Cu88  1  0.00870286  0.66889650  -0.00420687  1
  Cu  Cu89  1  0.32413302  0.67364949  0.50793635  1
  Cu  Cu90  1  0.67276484  -0.00631665  0.49376487  1
  Cu  Cu91  1  0.66575733  0.00089813  0.00765914  1
  Cu  Cu92  1  0.16522724  0.16087705  0.74475546  1
  Cu  Cu93  1  0.16056819  0.49702953  0.24615783  1
  Cu  Cu94  1  0.50566062  0.16848894  0.24128217  1
  Cu  Cu95  1  0.83041307  0.49420681  0.24180752  1
  Cu  Cu96  1  0.16851525  0.16505595  0.24811885  1
  Cu  Cu97  1  -0.00818802  0.33477234  0.49478540  1
  Cu  Cu98  1  0.50316638  0.49911452  0.24096675  1
  Cu  Cu99  1  0.00126861  -0.00592905  -0.00338695  1
  Cu  Cu100  1  0.50930044  0.49886754  0.76206069  1
  Cu  Cu101  1  0.51345884  0.16955738  0.76367333  1
  Cu  Cu102  1  0.33053706  -0.00074251  0.00581685  1
  Cu  Cu103  1  0.00574777  0.33101602  0.00400674  1
  Cu  Cu104  1  0.49959424  0.83276102  0.24077081  1
  Cu  Cu105  1  -0.00043646  0.67059342  0.50870951  1
  Cu  Cu106  1  0.32527516  0.32940074  0.49263104  1
  Cu  Cu107  1  0.83312804  0.16267770  0.24875543  1
  Cu  Cu108  1  0.00410635  0.00228278  0.49381569  1
  Cu  Cu109  1  0.66852020  0.66230408  0.50033118  1
  Cu  Cu110  1  0.32769313  0.00452076  0.49311809  1
  Cu  Cu111  1  0.16571955  0.83934701  0.25127667  1
  Cu  Cu112  1  0.83254776  0.50240712  0.75740087  1
  Cu  Cu113  1  0.82915649  0.17628306  0.75579286  1
  Cu  Cu114  1  0.33668715  0.33155530  0.00497523  1
  Se  Se115  1  0.07697899  0.07347749  0.06117209  1
  Se  Se116  1  0.08307663  0.08911136  0.54735279  1
  Se  Se117  1  0.09114802  0.41562775  0.05295697  1
  Se  Se118  1  0.06693913  0.41405302  0.56030988  1
  Se  Se119  1  0.08477755  0.75768569  0.04912095  1
  Se  Se120  1  0.07999766  0.73863148  0.57360458  1
  Se  Se121  1  0.41626345  0.08332799  0.05382883  1
  Se  Se122  1  0.41001741  0.07673611  0.55749868  1
  Se  Se123  1  0.41557688  0.41585887  0.05920835  1
  Se  Se124  1  0.40426699  0.40853674  0.55495724  1
  Se  Se125  1  0.41671807  0.74870486  0.05225751  1
  Se  Se126  1  0.41632658  0.74093270  0.56639167  1
  Se  Se127  1  0.75392001  0.08210721  0.05594688  1
  Se  Se128  1  0.74375297  0.08275909  0.55431406  1
  Se  Se129  1  0.77267245  0.42894320  0.05521528  1
  Se  Se130  1  0.73896137  0.42272688  0.55719060  1
  Se  Se131  1  0.74202712  0.74640610  0.05689952  1
  Se  Se132  1  0.75075511  0.74633931  0.55340828  1
  Se  Se133  1  0.25361806  0.25083740  0.06370533  1
  Se  Se134  1  0.24491726  0.24745383  0.54754365  1
  Se  Se135  1  0.24816952  0.58355814  0.05209984  1
  Se  Se136  1  0.24266946  0.59478618  0.56539994  1
  Se  Se137  1  0.24656576  0.91479355  0.05580423  1
  Se  Se138  1  0.25780799  0.91636956  0.55228573  1
  Se  Se139  1  0.59607760  0.26043804  0.04905637  1
  Se  Se140  1  0.58808228  0.25658361  0.55976004  1
  Se  Se141  1  0.58094670  0.56203069  0.04837122  1
  Se  Se142  1  0.58582327  0.58409788  0.55905366  1
  Se  Se143  1  0.58055056  0.91446675  0.05482100  1
  Se  Se144  1  0.59421070  0.92267047  0.56106132  1
  Se  Se145  1  0.92250647  0.24776426  0.05639090  1
  Se  Se146  1  0.91657650  0.25707290  0.56145679  1
  Se  Se147  1  0.92663885  0.58723273  0.05097507  1
  Se  Se148  1  0.91522422  0.58013432  0.55341718  1
  Se  Se149  1  0.91846468  0.91943187  0.06010665  1
  Se  Se150  1  0.91105614  0.92733819  0.54453887  1
  Se  Se151  1  0.08082834  0.25572819  0.44484094  1
  Se  Se152  1  0.07980644  0.24866428  0.94005472  1
  Se  Se153  1  0.06908232  0.59232887  0.43752694  1
  Se  Se154  1  0.08809850  0.58118230  0.94320165  1
  Se  Se155  1  0.08799067  0.91407608  0.44469786  1
  Se  Se156  1  0.08185101  0.91390413  0.94013424  1
  Se  Se157  1  0.41098362  0.25689784  0.43289797  1
  Se  Se158  1  0.42311256  0.24831504  0.95587682  1
  Se  Se159  1  0.40080955  0.59594966  0.44410125  1
  Se  Se160  1  0.41540806  0.58508644  0.94983695  1
  Se  Se161  1  0.41555672  0.92612412  0.43760618  1
  Se  Se162  1  0.41234845  0.91740965  0.94868675  1
  Se  Se163  1  0.73810503  0.25667609  0.44185729  1
  Se  Se164  1  0.76002781  0.24504771  0.95817571  1
  Se  Se165  1  0.74500498  0.58037554  0.44105440  1
  Se  Se166  1  0.76254467  0.59958075  0.94164535  1
  Se  Se167  1  0.75234102  0.90891645  0.44132760  1
  Se  Se168  1  0.74113826  0.92261332  0.94170257  1
  Se  Se169  1  0.24670641  0.08731332  0.44012666  1
  Se  Se170  1  0.25542739  0.07286526  0.93560311  1
  Se  Se171  1  0.25009665  0.41920928  0.43727938  1
  Se  Se172  1  0.25260874  0.41164048  0.95035176  1
  Se  Se173  1  0.24454711  0.75819531  0.45404200  1
  Se  Se174  1  0.24670532  0.74996678  0.94439792  1
  Se  Se175  1  0.58961213  0.07576950  0.43940195  1
  Se  Se176  1  0.58284279  0.08559642  0.95402302  1
  Se  Se177  1  0.58620788  0.40834289  0.43646171  1
  Se  Se178  1  0.58071622  0.44768584  0.95668499  1
  Se  Se179  1  0.58480084  0.74262139  0.44202012  1
  Se  Se180  1  0.58052857  0.75469670  0.94982727  1
  Se  Se181  1  0.92312453  0.07672093  0.43006747  1
  Se  Se182  1  0.91559375  0.07967340  0.94946353  1
  Se  Se183  1  0.90650790  0.41689112  0.44504252  1
  Se  Se184  1  0.92826664  0.41757615  0.94901263  1
  Se  Se185  1  0.91873960  0.74903998  0.44816929  1
  Se  Se186  1  0.92617609  0.74275018  0.93376723  1
  Se  Se187  1  0.25147704  0.25151158  0.30000905  1
  Se  Se188  1  0.24738931  0.23601306  0.80658290  1
  Se  Se189  1  0.23762812  0.57979404  0.30701927  1
  Se  Se190  1  0.25084084  0.56943415  0.80926561  1
  Se  Se191  1  0.25253091  0.91908011  0.30365223  1
  Se  Se192  1  0.24159675  0.90769273  0.80228956  1
  Se  Se193  1  0.58679405  0.25000241  0.29802313  1
  Se  Se194  1  0.58701586  0.25583951  0.81963924  1
  Se  Se195  1  0.58223004  0.58222019  0.29891641  1
  Se  Se196  1  0.58602877  0.59264045  0.80851519  1
  Se  Se197  1  0.58443327  0.91189720  0.29804664  1
  Se  Se198  1  0.57633187  0.90660744  0.81179159  1
  Se  Se199  1  0.91312047  0.24874117  0.30336490  1
  Se  Se200  1  0.90034109  0.25571305  0.82202535  1
  Se  Se201  1  0.90635971  0.57542675  0.30646733  1
  Se  Se202  1  0.92743531  0.58516994  0.79744436  1
  Se  Se203  1  0.91615422  0.90740081  0.30193829  1
  Se  Se204  1  0.91778550  0.91919808  0.79923930  1
  Se  Se205  1  0.08444285  0.08341644  0.30293064  1
  Se  Se206  1  0.07707488  0.08700407  0.79959694  1
  Se  Se207  1  0.07979568  0.41455702  0.30173447  1
  Se  Se208  1  0.09282579  0.41970714  0.81076669  1
  Se  Se209  1  0.08675329  0.75277577  0.30731669  1
  Se  Se210  1  0.08807748  0.74500625  0.80169384  1
  Se  Se211  1  0.42163375  0.08658588  0.29671338  1
  Se  Se212  1  0.42724285  0.08644553  0.81367333  1
  Se  Se213  1  0.41502118  0.42038312  0.29501896  1
  Se  Se214  1  0.43381652  0.41492386  0.82161249  1
  Se  Se215  1  0.42331820  0.75917723  0.31046904  1
  Se  Se216  1  0.41868927  0.75360881  0.81260329  1
  Se  Se217  1  0.74692017  0.07912384  0.30022342  1
  Se  Se218  1  0.75688671  0.09172861  0.81852511  1
  Se  Se219  1  0.74870037  0.41280700  0.29985279  1
  Se  Se220  1  0.74818260  0.42461541  0.81464384  1
  Se  Se221  1  0.74841534  0.74170888  0.30325411  1
  Se  Se222  1  0.77706139  0.78179463  0.80680110  1
  Se  Se223  1  0.25200943  0.08012392  0.19712454  1
  Se  Se224  1  0.24812764  0.08621760  0.68466761  1
  Se  Se225  1  0.24908061  0.41635304  0.19649989  1
  Se  Se226  1  0.25305343  0.41067075  0.69458800  1
  Se  Se227  1  0.24310429  0.75468166  0.19150309  1
  Se  Se228  1  0.23812570  0.74411006  0.68330733  1
  Se  Se229  1  0.58713391  0.08363802  0.18845839  1
  Se  Se230  1  0.58728052  0.08610051  0.70088353  1
  Se  Se231  1  0.58677850  0.41216094  0.19272699  1
  Se  Se232  1  0.58639612  0.41489575  0.70311399  1
  Se  Se233  1  0.57946910  0.74450078  0.19062973  1
  Se  Se234  1  0.58443325  0.75408845  0.70437085  1
  Se  Se235  1  0.91810985  0.07625931  0.20034584  1
  Se  Se236  1  0.91108658  0.09590005  0.69916543  1
  Se  Se237  1  0.91940869  0.41137488  0.19492016  1
  Se  Se238  1  0.90928092  0.42047547  0.69446874  1
  Se  Se239  1  0.90503646  0.74920045  0.18270987  1
  Se  Se240  1  0.92238878  0.75207374  0.68696507  1
  Se  Se241  1  0.08149241  0.24677011  0.19723620  1
  Se  Se242  1  0.08804188  0.24897660  0.68924216  1
  Se  Se243  1  0.08568987  0.57740753  0.18421151  1
  Se  Se244  1  0.11435645  0.55951895  0.68780343  1
  Se  Se245  1  0.07883125  0.91776662  0.19822272  1
  Se  Se246  1  0.07084505  0.92956085  0.68686553  1
  Se  Se247  1  0.42039936  0.25259465  0.19159797  1
  Se  Se248  1  0.43498479  0.23786330  0.69271542  1
  Se  Se249  1  0.42420323  0.58252588  0.18310367  1
  Se  Se250  1  0.42584485  0.56918425  0.69645935  1
  Se  Se251  1  0.41469602  0.91801526  0.19321771  1
  Se  Se252  1  0.43011685  0.90691811  0.69537638  1
  Se  Se253  1  0.75315428  0.24536990  0.19213883  1
  Se  Se254  1  0.74548578  0.25686658  0.70214724  1
  Se  Se255  1  0.74599135  0.57912087  0.19275693  1
  Se  Se256  1  0.75476951  0.59082556  0.70154674  1
  Se  Se257  1  0.74910239  0.91094662  0.19718031  1
  Se  Se258  1  0.75882362  0.91802362  0.68391703  1
