# generated using pymatgen
data_In86Cu29Se144
_symmetry_space_group_name_H-M   'P 1'
_cell_length_a   17.57826747
_cell_length_b   17.57943850
_cell_length_c   23.44099157
_cell_angle_alpha   90.00833385
_cell_angle_beta   89.98345791
_cell_angle_gamma   89.99412677
_symmetry_Int_Tables_number   1
_chemical_formula_structural   In86Cu29Se144
_chemical_formula_sum   'In86 Cu29 Se144'
_cell_volume   7243.64271848
_cell_formula_units_Z   1
loop_
 _symmetry_equiv_pos_site_id
 _symmetry_equiv_pos_as_xyz
  1  'x, y, z'
loop_
 _atom_site_type_symbol
 _atom_site_label
 _atom_site_symmetry_multiplicity
 _atom_site_fract_x
 _atom_site_fract_y
 _atom_site_fract_z
 _atom_site_occupancy
  In  In0  1  0.00700817  0.15876506  0.13018920  1
  In  In1  1  -0.00243880  0.16301435  0.61856210  1
  In  In2  1  0.00434677  0.49658898  0.12572923  1
  In  In3  1  -0.00498787  0.51807953  0.62275640  1
  In  In4  1  0.00913230  0.82746095  0.13471610  1
  In  In5  1  0.00467654  0.82825437  0.63212320  1
  In  In6  1  0.32542084  0.15378158  0.12030059  1
  In  In7  1  0.34116259  0.17367193  0.61885928  1
  In  In8  1  0.32202200  0.51346266  0.11998259  1
  In  In9  1  0.32871029  0.48624268  0.63003011  1
  In  In10  1  0.33912924  0.83233312  0.11317589  1
  In  In11  1  0.33618178  0.82720706  0.62804825  1
  In  In12  1  0.66158823  0.16684230  0.13175486  1
  In  In13  1  0.66930269  0.17434466  0.61746110  1
  In  In14  1  0.66047424  0.49038684  0.13090162  1
  In  In15  1  0.66737693  0.49894386  0.62143320  1
  In  In16  1  0.67099451  0.84677551  0.12993696  1
  In  In17  1  0.65527548  0.83602580  0.62357692  1
  In  In18  1  0.17421394  0.00486465  0.36543794  1
  In  In19  1  0.16283336  0.00276219  0.87774695  1
  In  In20  1  0.14584404  0.33316244  0.37367685  1
  In  In21  1  0.18408085  0.32056358  0.88142278  1
  In  In22  1  0.16563507  0.67808439  0.37218776  1
  In  In23  1  0.15427323  0.67642317  0.89282590  1
  In  In24  1  0.49706902  0.00105964  0.37384565  1
  In  In25  1  0.49446438  0.00658263  0.88508354  1
  In  In26  1  0.51102840  0.32243329  0.38429025  1
  In  In27  1  0.49046126  0.33044310  0.86518563  1
  In  In28  1  0.50425152  0.66619722  0.38647285  1
  In  In29  1  0.51015148  0.66880381  0.87307037  1
  In  In30  1  0.84590651  0.01060347  0.36550353  1
  In  In31  1  0.84483438  -0.01177568  0.87448015  1
  In  In32  1  0.83282253  0.33301994  0.37788052  1
  In  In33  1  0.83113511  0.34136410  0.86880083  1
  In  In34  1  0.84079750  0.65475927  0.37854033  1
  In  In35  1  0.83366899  0.67099509  0.86418571  1
  In  In36  1  -0.00281968  0.16675791  0.37796917  1
  In  In37  1  0.02466062  0.16538601  0.87033673  1
  In  In38  1  -0.00376401  0.49579331  0.37004786  1
  In  In39  1  0.00809617  0.51753690  0.86929493  1
  In  In40  1  -0.00351684  0.83412484  0.36224074  1
  In  In41  1  0.00917756  0.83412184  0.86779912  1
  In  In42  1  0.34114923  0.15982498  0.38056208  1
  In  In43  1  0.32555525  0.17831660  0.88045084  1
  In  In44  1  0.33392747  0.51164205  0.38218261  1
  In  In45  1  0.33216101  0.48649041  0.87298982  1
  In  In46  1  0.32907331  0.84585993  0.37446003  1
  In  In47  1  0.32517230  0.83806805  0.88985547  1
  In  In48  1  0.66547240  0.16777739  0.37543470  1
  In  In49  1  0.65386128  0.16630426  0.87251976  1
  In  In50  1  0.67769203  0.48975592  0.38353497  1
  In  In51  1  0.66431480  0.49858782  0.86266247  1
  In  In52  1  0.65415516  0.83322799  0.37278734  1
  In  In53  1  0.67313267  0.82487573  0.87448164  1
  In  In54  1  0.16959371  0.00241262  0.12548237  1
  In  In55  1  0.15040149  0.00459241  0.63070178  1
  In  In56  1  0.16283285  0.32019973  0.11865296  1
  In  In57  1  0.17795063  0.33381214  0.63178301  1
  In  In58  1  0.15196401  0.65884576  0.10036438  1
  In  In59  1  0.15541058  0.65951538  0.63628234  1
  In  In60  1  0.49644236  -0.00257379  0.12831751  1
  In  In61  1  0.49579950  0.00145481  0.61441612  1
  In  In62  1  0.51665862  0.32963852  0.13059441  1
  In  In63  1  0.49981067  0.33722212  0.62256487  1
  In  In64  1  0.48612569  0.67206094  0.12165401  1
  In  In65  1  0.51177810  0.67634336  0.62211507  1
  In  In66  1  0.83809998  -0.01580863  0.14843396  1
  In  In67  1  0.83843760  0.01206160  0.61784892  1
  In  In68  1  0.83588179  0.32872541  0.13287205  1
  In  In69  1  0.82116800  0.32324115  0.61740019  1
  In  In70  1  0.85126686  0.67589017  0.12645567  1
  In  In71  1  0.84542544  0.65156618  0.62472107  1
  In  In72  1  0.32684350  0.66426557  0.75552285  1
  In  In73  1  0.83227668  0.83236845  0.48886024  1
  In  In74  1  0.67511109  0.66706199  0.25069035  1
  In  In75  1  0.00021943  0.33584412  0.74880187  1
  In  In76  1  0.16773919  0.83664617  0.50867928  1
  In  In77  1  0.33294430  0.33095505  0.25010553  1
  In  In78  1  0.83261137  0.16228100  0.01043625  1
  In  In79  1  0.83736305  0.49857991  0.00026302  1
  In  In80  1  0.16477646  0.49626089  0.50734255  1
  In  In81  1  0.83607541  0.83420628  0.00316037  1
  In  In82  1  0.32487666  0.00526000  0.75988452  1
  In  In83  1  0.32774348  0.67405443  0.24081410  1
  In  In84  1  0.49459233  0.49768296  -0.00003565  1
  In  In85  1  0.67216425  0.00234598  0.74485826  1
  Cu  Cu86  1  0.50400775  0.49258665  0.25706549  1
  Cu  Cu87  1  0.50189497  0.50144935  0.74545702  1
  Cu  Cu88  1  0.01443770  0.33696807  -0.00113626  1
  Cu  Cu89  1  0.15668640  0.50356859  0.24410206  1
  Cu  Cu90  1  0.83975605  0.49792906  0.25495233  1
  Cu  Cu91  1  0.16024692  0.16784832  0.24945787  1
  Cu  Cu92  1  0.82877257  0.17487025  0.25441272  1
  Cu  Cu93  1  0.33689326  -0.00107426  0.00297583  1
  Cu  Cu94  1  0.50145953  0.83693884  0.75245044  1
  Cu  Cu95  1  0.83799684  0.16248209  0.74149094  1
  Cu  Cu96  1  0.16180606  0.83658041  0.24422002  1
  Cu  Cu97  1  0.00165398  0.00024451  0.49511794  1
  Cu  Cu98  1  0.33238839  0.33322716  0.50405512  1
  Cu  Cu99  1  0.49921030  0.17989672  0.74541599  1
  Cu  Cu100  1  0.66382926  0.66822496  -0.00469647  1
  Cu  Cu101  1  0.66095800  0.32460228  -0.00098778  1
  Cu  Cu102  1  -0.00683096  0.32973874  0.49935310  1
  Cu  Cu103  1  0.66971570  0.66672033  0.50125098  1
  Cu  Cu104  1  0.66265137  0.00687561  0.49607254  1
  Cu  Cu105  1  0.49903032  0.15995438  0.25593055  1
  Cu  Cu106  1  0.34453581  0.66826978  0.50727867  1
  Cu  Cu107  1  0.34114331  0.32906597  -0.00051433  1
  Cu  Cu108  1  0.82478321  0.49728023  0.74436563  1
  Cu  Cu109  1  0.83817124  0.82756168  0.74889186  1
  Cu  Cu110  1  0.65784379  0.00177022  0.00826228  1
  Cu  Cu111  1  0.66208447  0.33459198  0.49936323  1
  Cu  Cu112  1  0.00694787  0.00345417  0.00159126  1
  Cu  Cu113  1  0.33381343  0.00409609  0.49439563  1
  Cu  Cu114  1  0.49367752  0.83755619  0.24973125  1
  Se  Se115  1  0.08861230  0.08840181  0.05469544  1
  Se  Se116  1  0.08509291  0.08192565  0.55011897  1
  Se  Se117  1  0.09209965  0.42063287  0.05570753  1
  Se  Se118  1  0.07205280  0.40595712  0.56473591  1
  Se  Se119  1  0.07087347  0.76115822  0.04971105  1
  Se  Se120  1  0.07747469  0.73701849  0.55737012  1
  Se  Se121  1  0.42129258  0.08268182  0.05504695  1
  Se  Se122  1  0.41764065  0.08854232  0.54764939  1
  Se  Se123  1  0.41169408  0.40762809  0.06742718  1
  Se  Se124  1  0.41367992  0.42076883  0.55420954  1
  Se  Se125  1  0.41365282  0.74219182  0.04449123  1
  Se  Se126  1  0.42374693  0.75948386  0.55582540  1
  Se  Se127  1  0.74811203  0.06772644  0.06981847  1
  Se  Se128  1  0.74867848  0.08555764  0.55064533  1
  Se  Se129  1  0.74262343  0.40600369  0.05697333  1
  Se  Se130  1  0.74940796  0.41700140  0.55050828  1
  Se  Se131  1  0.74228335  0.74195516  0.06141815  1
  Se  Se132  1  0.74951063  0.74960617  0.56038390  1
  Se  Se133  1  0.25388698  0.24597651  0.05167897  1
  Se  Se134  1  0.24565302  0.25162441  0.55472772  1
  Se  Se135  1  0.26115741  0.59576024  0.04374188  1
  Se  Se136  1  0.25641592  0.59280454  0.56421470  1
  Se  Se137  1  0.24771065  0.91907219  0.05389977  1
  Se  Se138  1  0.25974823  0.92948661  0.56414388  1
  Se  Se139  1  0.58159270  0.24298163  0.05530448  1
  Se  Se140  1  0.57779731  0.25064393  0.55209966  1
  Se  Se141  1  0.59090971  0.58643322  0.05981746  1
  Se  Se142  1  0.58367991  0.58471530  0.55387253  1
  Se  Se143  1  0.57948458  0.91121402  0.05865101  1
  Se  Se144  1  0.58406911  0.91938233  0.54991202  1
  Se  Se145  1  0.92829534  0.25982403  0.05808438  1
  Se  Se146  1  0.91082111  0.24361319  0.55168081  1
  Se  Se147  1  0.92770227  0.59265229  0.05332403  1
  Se  Se148  1  0.91480252  0.57984952  0.54405962  1
  Se  Se149  1  0.92123070  0.92860769  0.06248070  1
  Se  Se150  1  0.92492157  0.91574838  0.55516533  1
  Se  Se151  1  0.08150214  0.24819381  0.44925369  1
  Se  Se152  1  0.09113424  0.24477121  0.94863617  1
  Se  Se153  1  0.08634535  0.58479895  0.43813602  1
  Se  Se154  1  0.07880930  0.57711548  0.95314352  1
  Se  Se155  1  0.08247131  0.91748254  0.43739405  1
  Se  Se156  1  0.08019424  0.91583874  0.94435448  1
  Se  Se157  1  0.41478390  0.25018207  0.44855789  1
  Se  Se158  1  0.42550950  0.24956213  0.94440125  1
  Se  Se159  1  0.42175255  0.58069343  0.45334058  1
  Se  Se160  1  0.41389975  0.58674971  0.93515350  1
  Se  Se161  1  0.41659706  0.91589790  0.44547367  1
  Se  Se162  1  0.42177604  0.91462715  0.95138842  1
  Se  Se163  1  0.74670308  0.25142056  0.44549784  1
  Se  Se164  1  0.74998745  0.25129928  0.94097963  1
  Se  Se165  1  0.75327271  0.58309981  0.44893119  1
  Se  Se166  1  0.74360548  0.58581477  0.93793054  1
  Se  Se167  1  0.74335246  0.92830872  0.43434047  1
  Se  Se168  1  0.74117192  0.92724057  0.94493900  1
  Se  Se169  1  0.24456500  0.08334725  0.44359732  1
  Se  Se170  1  0.25576089  0.07829489  0.94331476  1
  Se  Se171  1  0.25165646  0.40888120  0.43955320  1
  Se  Se172  1  0.25515509  0.41386242  0.95066256  1
  Se  Se173  1  0.26023606  0.74433742  0.44654694  1
  Se  Se174  1  0.25026375  0.74947947  0.95618976  1
  Se  Se175  1  0.57676769  0.08732308  0.44277197  1
  Se  Se176  1  0.58434064  0.08771535  0.94994535  1
  Se  Se177  1  0.57853187  0.42230622  0.44878947  1
  Se  Se178  1  0.58810204  0.41170283  0.93900848  1
  Se  Se179  1  0.58623132  0.75406365  0.45124646  1
  Se  Se180  1  0.58298683  0.75563156  0.94551371  1
  Se  Se181  1  0.91280321  0.08371874  0.44756530  1
  Se  Se182  1  0.92312172  0.08198556  0.94221166  1
  Se  Se183  1  0.91800333  0.41875705  0.44466127  1
  Se  Se184  1  0.92734878  0.40902554  0.93863387  1
  Se  Se185  1  0.93369328  0.74371303  0.44081732  1
  Se  Se186  1  0.91811621  0.74584015  0.93819480  1
  Se  Se187  1  0.24203958  0.24543744  0.31218360  1
  Se  Se188  1  0.25346410  0.24772102  0.80123626  1
  Se  Se189  1  0.24327520  0.57789793  0.30434876  1
  Se  Se190  1  0.24046344  0.58140561  0.81952281  1
  Se  Se191  1  0.25063504  0.91441147  0.29734597  1
  Se  Se192  1  0.24070959  0.90283369  0.81049806  1
  Se  Se193  1  0.58103370  0.24930667  0.30425061  1
  Se  Se194  1  0.58768636  0.25580861  0.80058081  1
  Se  Se195  1  0.58258708  0.57998682  0.31219599  1
  Se  Se196  1  0.58308439  0.58750961  0.79844382  1
  Se  Se197  1  0.57884361  0.91837724  0.30250314  1
  Se  Se198  1  0.58105637  0.92029896  0.81140156  1
  Se  Se199  1  0.91731240  0.25252756  0.30835287  1
  Se  Se200  1  0.91271520  0.23931191  0.80997765  1
  Se  Se201  1  0.92240572  0.58787763  0.30073042  1
  Se  Se202  1  0.90932383  0.57711385  0.80001790  1
  Se  Se203  1  0.91828901  0.92104238  0.29762495  1
  Se  Se204  1  0.92055922  0.91431563  0.79942427  1
  Se  Se205  1  0.07855752  0.08489118  0.30565506  1
  Se  Se206  1  0.08398530  0.07237801  0.79978721  1
  Se  Se207  1  0.07889016  0.41668718  0.29805931  1
  Se  Se208  1  0.08859726  0.41126585  0.81788604  1
  Se  Se209  1  0.08397837  0.74852744  0.29806807  1
  Se  Se210  1  0.07600544  0.72992249  0.80848506  1
  Se  Se211  1  0.40901004  0.07856617  0.30329712  1
  Se  Se212  1  0.42687116  0.09545776  0.80861682  1
  Se  Se213  1  0.41765405  0.41971279  0.31603380  1
  Se  Se214  1  0.41536002  0.41908256  0.79661342  1
  Se  Se215  1  0.42101605  0.75039347  0.31058594  1
  Se  Se216  1  0.41736328  0.76133289  0.81194958  1
  Se  Se217  1  0.74750201  0.08667275  0.30481949  1
  Se  Se218  1  0.76072974  0.08783322  0.81081298  1
  Se  Se219  1  0.75227096  0.41694129  0.30548046  1
  Se  Se220  1  0.74463714  0.41026525  0.79653600  1
  Se  Se221  1  0.75904385  0.75406175  0.31554060  1
  Se  Se222  1  0.74525965  0.74960355  0.79700823  1
  Se  Se223  1  0.24826049  0.08571997  0.19896448  1
  Se  Se224  1  0.24914222  0.09097497  0.68840650  1
  Se  Se225  1  0.24394109  0.42327561  0.18957585  1
  Se  Se226  1  0.23706641  0.42879093  0.70270772  1
  Se  Se227  1  0.23603972  0.75552499  0.17936640  1
  Se  Se228  1  0.23887405  0.75917807  0.69582426  1
  Se  Se229  1  0.58105233  0.07863408  0.19771083  1
  Se  Se230  1  0.57450784  0.08932894  0.68884485  1
  Se  Se231  1  0.58975716  0.41011883  0.20635479  1
  Se  Se232  1  0.58502907  0.41698152  0.69214352  1
  Se  Se233  1  0.57383146  0.75065784  0.19284539  1
  Se  Se234  1  0.58502783  0.75439614  0.69971182  1
  Se  Se235  1  0.91189592  0.09246415  0.19907557  1
  Se  Se236  1  0.92301463  0.07859275  0.69319715  1
  Se  Se237  1  0.91984138  0.41685077  0.19502425  1
  Se  Se238  1  0.90727534  0.41762995  0.68458461  1
  Se  Se239  1  0.90268827  0.77059686  0.19868623  1
  Se  Se240  1  0.91863510  0.74167082  0.69455975  1
  Se  Se241  1  0.08070812  0.25439728  0.19644441  1
  Se  Se242  1  0.08639842  0.24137385  0.69113649  1
  Se  Se243  1  0.08449463  0.59277875  0.18718232  1
  Se  Se244  1  0.09067990  0.56043834  0.69974047  1
  Se  Se245  1  0.08060830  0.92771424  0.19604115  1
  Se  Se246  1  0.08732389  0.90998461  0.69821961  1
  Se  Se247  1  0.42244233  0.24001814  0.19085314  1
  Se  Se248  1  0.41228305  0.25854662  0.69279347  1
  Se  Se249  1  0.42459447  0.57123239  0.19489806  1
  Se  Se250  1  0.42074326  0.58540912  0.68826926  1
  Se  Se251  1  0.40748565  0.91172743  0.19234994  1
  Se  Se252  1  0.42113264  0.91898875  0.69523384  1
  Se  Se253  1  0.74400673  0.25384258  0.19790512  1
  Se  Se254  1  0.74865368  0.24507105  0.69527849  1
  Se  Se255  1  0.76310251  0.57479257  0.18745466  1
  Se  Se256  1  0.74661409  0.58577374  0.69136964  1
  Se  Se257  1  0.73968305  0.91457593  0.21082620  1
  Se  Se258  1  0.76235710  0.91018356  0.68571841  1
