# generated using pymatgen
data_In86Cu29Se144
_symmetry_space_group_name_H-M   'P 1'
_cell_length_a   17.57722091
_cell_length_b   17.58285627
_cell_length_c   23.44430763
_cell_angle_alpha   90.01603535
_cell_angle_beta   90.00613644
_cell_angle_gamma   90.00240560
_symmetry_Int_Tables_number   1
_chemical_formula_structural   In86Cu29Se144
_chemical_formula_sum   'In86 Cu29 Se144'
_cell_volume   7245.64461076
_cell_formula_units_Z   1
loop_
 _symmetry_equiv_pos_site_id
 _symmetry_equiv_pos_as_xyz
  1  'x, y, z'
loop_
 _atom_site_type_symbol
 _atom_site_label
 _atom_site_symmetry_multiplicity
 _atom_site_fract_x
 _atom_site_fract_y
 _atom_site_fract_z
 _atom_site_occupancy
  In  In0  1  0.01252599  0.17417895  0.11385705  1
  In  In1  1  0.00842148  0.18033403  0.61518483  1
  In  In2  1  -0.01429209  0.49319521  0.12793664  1
  In  In3  1  0.00583011  0.49468016  0.62902246  1
  In  In4  1  0.01199019  0.83049468  0.11737997  1
  In  In5  1  -0.00154816  0.83268096  0.63192755  1
  In  In6  1  0.33045539  0.17644707  0.12589791  1
  In  In7  1  0.33394075  0.18593282  0.62466920  1
  In  In8  1  0.34611278  0.49054770  0.13110112  1
  In  In9  1  0.33312670  0.50346952  0.62306184  1
  In  In10  1  0.33591749  0.82776981  0.12692689  1
  In  In11  1  0.33238534  0.81696397  0.62503103  1
  In  In12  1  0.67431547  0.16768455  0.12638865  1
  In  In13  1  0.67569315  0.16287426  0.62721662  1
  In  In14  1  0.65393082  0.50664462  0.13369933  1
  In  In15  1  0.64593951  0.49916058  0.62093743  1
  In  In16  1  0.65706450  0.83251325  0.12826921  1
  In  In17  1  0.66488986  0.84252606  0.62448009  1
  In  In18  1  0.18853915  0.00806120  0.38262236  1
  In  In19  1  0.15286765  0.00492631  0.89168974  1
  In  In20  1  0.17001136  0.33533540  0.37430829  1
  In  In21  1  0.16039618  0.32844409  0.86736125  1
  In  In22  1  0.17118141  0.64586263  0.37998302  1
  In  In23  1  0.18032168  0.67127045  0.86821812  1
  In  In24  1  0.50326560  -0.02292642  0.37355000  1
  In  In25  1  0.50031931  -0.01436670  0.87644666  1
  In  In26  1  0.50699999  0.34355007  0.37082189  1
  In  In27  1  0.51067876  0.34337124  0.87189665  1
  In  In28  1  0.49655303  0.66329899  0.37397934  1
  In  In29  1  0.49644126  0.67571123  0.88526207  1
  In  In30  1  0.82674263  0.01129759  0.37718034  1
  In  In31  1  0.83424685  0.02063580  0.87825927  1
  In  In32  1  0.82562579  0.32237643  0.37133032  1
  In  In33  1  0.82316758  0.32149579  0.86739958  1
  In  In34  1  0.82417858  0.68049729  0.37587834  1
  In  In35  1  0.83063286  0.65042497  0.87221331  1
  In  In36  1  -0.00581021  0.17616411  0.38180387  1
  In  In37  1  -0.01121908  0.17501291  0.88351898  1
  In  In38  1  0.01962812  0.49998098  0.37903397  1
  In  In39  1  -0.00205884  0.49686543  0.86081297  1
  In  In40  1  -0.00310686  0.82528207  0.37678731  1
  In  In41  1  0.01634921  0.83548778  0.87410266  1
  In  In42  1  0.31918661  0.16386035  0.37762265  1
  In  In43  1  0.32189224  0.16716974  0.87400406  1
  In  In44  1  0.33457217  0.50007348  0.37329992  1
  In  In45  1  0.34552243  0.50682342  0.87067087  1
  In  In46  1  0.37202902  0.82911466  0.37943583  1
  In  In47  1  0.34218137  0.82439497  0.88141402  1
  In  In48  1  0.67045160  0.17157758  0.36848908  1
  In  In49  1  0.67970555  0.18121433  0.87168105  1
  In  In50  1  0.66002757  0.49408923  0.37567223  1
  In  In51  1  0.66266517  0.48630748  0.88116849  1
  In  In52  1  0.62089831  0.80136746  0.32849736  1
  In  In53  1  0.64855483  0.83152664  0.87577279  1
  In  In54  1  0.16839379  0.00218320  0.11440367  1
  In  In55  1  0.15721991  0.00455019  0.62215880  1
  In  In56  1  0.17217331  0.32530994  0.12889501  1
  In  In57  1  0.16678898  0.33964897  0.62320586  1
  In  In58  1  0.17038405  0.67777777  0.12482636  1
  In  In59  1  0.17486361  0.66336373  0.63040429  1
  In  In60  1  0.51445404  -0.00475524  0.12887529  1
  In  In61  1  0.51531256  0.00325391  0.62447282  1
  In  In62  1  0.49627789  0.33919177  0.12963605  1
  In  In63  1  0.48825902  0.34139656  0.63081087  1
  In  In64  1  0.50460300  0.66345794  0.12809267  1
  In  In65  1  0.48992468  0.65150493  0.60915336  1
  In  In66  1  0.82042921  0.00440795  0.12107408  1
  In  In67  1  0.81785746  0.00046482  0.62468436  1
  In  In68  1  0.84216643  0.32885634  0.13272480  1
  In  In69  1  0.84215376  0.32541590  0.62706256  1
  In  In70  1  0.82587323  0.65608705  0.12882037  1
  In  In71  1  0.83439642  0.67724218  0.62636301  1
  In  In72  1  0.82498781  0.49477694  -0.00138564  1
  In  In73  1  0.34031199  0.00271895  0.25039654  1
  In  In74  1  0.83199001  0.83567386  0.00603496  1
  In  In75  1  0.16918010  0.83582217  0.50249747  1
  In  In76  1  0.49904652  0.16293946  0.00681051  1
  In  In77  1  -0.00385582  0.00434799  0.75319791  1
  In  In78  1  0.83082856  0.50134813  0.49898877  1
  In  In79  1  0.17019320  0.49868591  -0.00521829  1
  In  In80  1  0.00027915  0.00333198  0.24895076  1
  In  In81  1  0.33437327  -0.00233912  0.75504050  1
  In  In82  1  -0.00332061  0.65854126  0.25100867  1
  In  In83  1  0.49388572  0.16838731  0.50124569  1
  In  In84  1  0.82475455  0.83743021  0.49850258  1
  In  In85  1  0.66353484  0.66217907  0.74725187  1
  Cu  Cu86  1  0.83462888  0.17134713  0.74931948  1
  Cu  Cu87  1  -0.00079101  0.33104291  -0.00223481  1
  Cu  Cu88  1  0.17653374  0.82992809  0.25220694  1
  Cu  Cu89  1  0.00267952  0.67031908  -0.00633754  1
  Cu  Cu90  1  0.33002923  0.34357992  0.50060745  1
  Cu  Cu91  1  0.00352312  0.33529516  0.50110788  1
  Cu  Cu92  1  0.66566483  0.00233885  0.00157005  1
  Cu  Cu93  1  0.17144938  0.49399918  0.25030289  1
  Cu  Cu94  1  0.83113408  0.83420909  0.74819655  1
  Cu  Cu95  1  0.66462054  0.33061871  0.49614336  1
  Cu  Cu96  1  0.33415834  0.66631251  0.49793927  1
  Cu  Cu97  1  -0.00088114  0.00676607  0.49877040  1
  Cu  Cu98  1  0.50066802  0.17184894  0.24871661  1
  Cu  Cu99  1  0.16654545  0.17376074  0.74804338  1
  Cu  Cu100  1  0.66440583  -0.00206580  0.49733666  1
  Cu  Cu101  1  0.50709392  0.16912137  0.74698918  1
  Cu  Cu102  1  0.82899024  0.83713288  0.24423751  1
  Cu  Cu103  1  0.33687452  0.66658432  0.00146665  1
  Cu  Cu104  1  0.83473455  0.49399021  0.74776741  1
  Cu  Cu105  1  0.49733268  0.82635545  0.75248988  1
  Cu  Cu106  1  0.49551003  0.49941755  0.74844195  1
  Cu  Cu107  1  0.49698321  0.50076396  0.25244489  1
  Cu  Cu108  1  0.82807829  0.49390794  0.25494443  1
  Cu  Cu109  1  0.33215099  -0.00894526  -0.00132357  1
  Cu  Cu110  1  0.16009801  0.17511062  0.25264741  1
  Cu  Cu111  1  0.83475135  0.16922678  0.25032132  1
  Cu  Cu112  1  0.17490399  0.82559476  0.75837717  1
  Cu  Cu113  1  0.17134706  0.49808557  0.74666173  1
  Cu  Cu114  1  0.33224091  0.32828317  0.00354633  1
  Se  Se115  1  0.08575308  0.08281989  0.04840275  1
  Se  Se116  1  0.08600554  0.08832055  0.54964381  1
  Se  Se117  1  0.07683783  0.41424859  0.05811607  1
  Se  Se118  1  0.08460585  0.42178405  0.55235925  1
  Se  Se119  1  0.08999480  0.74727917  0.04736788  1
  Se  Se120  1  0.07922015  0.74756588  0.56246189  1
  Se  Se121  1  0.40735402  0.07012041  0.06535975  1
  Se  Se122  1  0.41000380  0.07989003  0.56626954  1
  Se  Se123  1  0.41632462  0.41298505  0.05304015  1
  Se  Se124  1  0.41889285  0.42128296  0.55374382  1
  Se  Se125  1  0.41993379  0.74716992  0.05807835  1
  Se  Se126  1  0.41747258  0.75383956  0.54820304  1
  Se  Se127  1  0.74945323  0.09027353  0.04841197  1
  Se  Se128  1  0.74777269  0.08288381  0.54949255  1
  Se  Se129  1  0.74645489  0.41404980  0.06999239  1
  Se  Se130  1  0.74420141  0.40899211  0.56040601  1
  Se  Se131  1  0.74255143  0.74033166  0.05988463  1
  Se  Se132  1  0.73654366  0.74248102  0.55698255  1
  Se  Se133  1  0.24456186  0.24574904  0.05168944  1
  Se  Se134  1  0.24881461  0.25630586  0.55220715  1
  Se  Se135  1  0.25653367  0.58408067  0.06092738  1
  Se  Se136  1  0.24958439  0.58677611  0.55363999  1
  Se  Se137  1  0.25227275  0.90864772  0.05661057  1
  Se  Se138  1  0.25825318  0.92333902  0.56442338  1
  Se  Se139  1  0.58780419  0.25757535  0.06070054  1
  Se  Se140  1  0.58545413  0.25525266  0.56258369  1
  Se  Se141  1  0.57432790  0.57267148  0.05695793  1
  Se  Se142  1  0.58818362  0.58520340  0.54487864  1
  Se  Se143  1  0.58443210  0.91538840  0.05196010  1
  Se  Se144  1  0.58078050  0.91501285  0.55022442  1
  Se  Se145  1  0.91448562  0.25286032  0.05401085  1
  Se  Se146  1  0.91371014  0.25073914  0.54758931  1
  Se  Se147  1  0.92310656  0.59078231  0.05400678  1
  Se  Se148  1  0.91967305  0.58781837  0.56212003  1
  Se  Se149  1  0.92543947  0.92702052  0.06093844  1
  Se  Se150  1  0.92252189  0.92406862  0.55987609  1
  Se  Se151  1  0.08727262  0.25322117  0.44544110  1
  Se  Se152  1  0.08737764  0.25201642  0.94470075  1
  Se  Se153  1  0.07740120  0.59110042  0.45231061  1
  Se  Se154  1  0.07769673  0.58533950  0.93407282  1
  Se  Se155  1  0.07683085  0.92512491  0.43833597  1
  Se  Se156  1  0.08152955  0.90867655  0.95415679  1
  Se  Se157  1  0.40945253  0.26147535  0.43922231  1
  Se  Se158  1  0.41368930  0.25059595  0.94071084  1
  Se  Se159  1  0.41607647  0.58075825  0.44488068  1
  Se  Se160  1  0.41844229  0.58084117  0.94887354  1
  Se  Se161  1  0.39645919  0.94342388  0.44423101  1
  Se  Se162  1  0.42153581  0.91032862  0.95049829  1
  Se  Se163  1  0.74799424  0.24522510  0.44652827  1
  Se  Se164  1  0.75409399  0.25340440  0.94903784  1
  Se  Se165  1  0.74012868  0.59300367  0.44170529  1
  Se  Se166  1  0.73463534  0.59205510  0.94541378  1
  Se  Se167  1  0.73743375  0.91685064  0.43254267  1
  Se  Se168  1  0.74498263  0.92191198  0.93856031  1
  Se  Se169  1  0.25041431  0.09254073  0.45826220  1
  Se  Se170  1  0.25445635  0.08153245  0.94844124  1
  Se  Se171  1  0.24627959  0.42364337  0.44383612  1
  Se  Se172  1  0.25909202  0.40773283  0.93636192  1
  Se  Se173  1  0.25664931  0.74998556  0.43663205  1
  Se  Se174  1  0.25023312  0.74658629  0.94766737  1
  Se  Se175  1  0.58396033  0.08148907  0.43829052  1
  Se  Se176  1  0.58695572  0.08110095  0.93791034  1
  Se  Se177  1  0.57964412  0.41747297  0.45032419  1
  Se  Se178  1  0.57946119  0.41395179  0.95275567  1
  Se  Se179  1  0.57726644  0.76530514  0.42899063  1
  Se  Se180  1  0.58501319  0.75159203  0.95237414  1
  Se  Se181  1  0.91260494  0.08665904  0.44644433  1
  Se  Se182  1  0.92795769  0.07572792  0.95002161  1
  Se  Se183  1  0.92014082  0.41078444  0.43806649  1
  Se  Se184  1  0.92161548  0.41283983  0.93712125  1
  Se  Se185  1  0.92342251  0.74019963  0.45011700  1
  Se  Se186  1  0.91506487  0.74553672  0.93691711  1
  Se  Se187  1  0.25202396  0.25104331  0.30379702  1
  Se  Se188  1  0.25406490  0.25351833  0.80021779  1
  Se  Se189  1  0.25148261  0.58209935  0.30130893  1
  Se  Se190  1  0.25476669  0.58013588  0.80185444  1
  Se  Se191  1  0.25368533  0.91000321  0.31314912  1
  Se  Se192  1  0.24332646  0.91505395  0.81957096  1
  Se  Se193  1  0.58438881  0.25448099  0.30314987  1
  Se  Se194  1  0.58688623  0.25323012  0.80395884  1
  Se  Se195  1  0.58355974  0.58053923  0.30592404  1
  Se  Se196  1  0.57607399  0.57745616  0.81217279  1
  Se  Se197  1  0.59633787  0.93846630  0.29471789  1
  Se  Se198  1  0.58136209  0.91511425  0.79944932  1
  Se  Se199  1  0.92027143  0.25019578  0.30367771  1
  Se  Se200  1  0.92196679  0.25110818  0.80255992  1
  Se  Se201  1  0.90786590  0.57525526  0.31677329  1
  Se  Se202  1  0.91464301  0.58483899  0.79638532  1
  Se  Se203  1  0.91069684  0.90907485  0.30783306  1
  Se  Se204  1  0.90817534  0.91179169  0.81336147  1
  Se  Se205  1  0.09141389  0.08618752  0.31401835  1
  Se  Se206  1  0.08962077  0.09255201  0.81076275  1
  Se  Se207  1  0.08421543  0.41502130  0.30300257  1
  Se  Se208  1  0.08454229  0.41396924  0.79685225  1
  Se  Se209  1  0.09107329  0.75021321  0.30883588  1
  Se  Se210  1  0.08192587  0.74348235  0.80335794  1
  Se  Se211  1  0.42596812  0.09265236  0.31417364  1
  Se  Se212  1  0.42777636  0.09097653  0.81115334  1
  Se  Se213  1  0.41308641  0.41417500  0.30314805  1
  Se  Se214  1  0.41646386  0.41272139  0.80303640  1
  Se  Se215  1  0.41545193  0.74275549  0.29979922  1
  Se  Se216  1  0.41578857  0.74324326  0.80625484  1
  Se  Se217  1  0.75030692  0.08379719  0.29989238  1
  Se  Se218  1  0.75120980  0.08748086  0.80211803  1
  Se  Se219  1  0.74345700  0.41097885  0.30737145  1
  Se  Se220  1  0.74846669  0.41997726  0.80565251  1
  Se  Se221  1  0.75151159  0.74545911  0.29394318  1
  Se  Se222  1  0.75160090  0.75395219  0.80995393  1
  Se  Se223  1  0.23909656  0.08872797  0.19419717  1
  Se  Se224  1  0.24553551  0.08778982  0.69191610  1
  Se  Se225  1  0.25359252  0.41099932  0.19504260  1
  Se  Se226  1  0.25517208  0.41618906  0.69238690  1
  Se  Se227  1  0.25619207  0.74484602  0.19896178  1
  Se  Se228  1  0.25648149  0.74492204  0.70222594  1
  Se  Se229  1  0.58398574  0.09047869  0.19421411  1
  Se  Se230  1  0.59037014  0.08307417  0.69758327  1
  Se  Se231  1  0.58111906  0.41423532  0.20189250  1
  Se  Se232  1  0.58199754  0.41595614  0.69832597  1
  Se  Se233  1  0.58567243  0.74589396  0.19997479  1
  Se  Se234  1  0.57426288  0.74981360  0.68603354  1
  Se  Se235  1  0.91308928  0.09113193  0.18671455  1
  Se  Se236  1  0.91259704  0.09061514  0.68585925  1
  Se  Se237  1  0.91858536  0.41464789  0.20536920  1
  Se  Se238  1  0.92017236  0.41202724  0.69560649  1
  Se  Se239  1  0.91500559  0.75689793  0.18760354  1
  Se  Se240  1  0.91728623  0.75002056  0.70059583  1
  Se  Se241  1  0.07661533  0.25256256  0.19511506  1
  Se  Se242  1  0.08324634  0.25391254  0.69233497  1
  Se  Se243  1  0.09055077  0.57337027  0.18763679  1
  Se  Se244  1  0.08571274  0.58310327  0.69628123  1
  Se  Se245  1  0.09511135  0.90953691  0.19380194  1
  Se  Se246  1  0.09540315  0.91043916  0.69990653  1
  Se  Se247  1  0.41347423  0.25167091  0.19670836  1
  Se  Se248  1  0.41632617  0.25127046  0.70136972  1
  Se  Se249  1  0.41565013  0.58512089  0.19786384  1
  Se  Se250  1  0.41877653  0.58627185  0.69251330  1
  Se  Se251  1  0.42934448  0.90750040  0.19634782  1
  Se  Se252  1  0.42162319  0.91091974  0.69045154  1
  Se  Se253  1  0.74935476  0.25267218  0.19873845  1
  Se  Se254  1  0.74936340  0.25387287  0.69581835  1
  Se  Se255  1  0.74797230  0.58048121  0.20207839  1
  Se  Se256  1  0.75410384  0.57254477  0.68543915  1
  Se  Se257  1  0.74651447  0.91901971  0.19087058  1
  Se  Se258  1  0.74575392  0.91800976  0.69884988  1
