# generated using pymatgen
data_In86Cu29Se144
_symmetry_space_group_name_H-M   'P 1'
_cell_length_a   17.59510796
_cell_length_b   17.60197517
_cell_length_c   23.45827252
_cell_angle_alpha   90.02247615
_cell_angle_beta   89.98538139
_cell_angle_gamma   89.99707694
_symmetry_Int_Tables_number   1
_chemical_formula_structural   In86Cu29Se144
_chemical_formula_sum   'In86 Cu29 Se144'
_cell_volume   7265.22918721
_cell_formula_units_Z   1
loop_
 _symmetry_equiv_pos_site_id
 _symmetry_equiv_pos_as_xyz
  1  'x, y, z'
loop_
 _atom_site_type_symbol
 _atom_site_label
 _atom_site_symmetry_multiplicity
 _atom_site_fract_x
 _atom_site_fract_y
 _atom_site_fract_z
 _atom_site_occupancy
  In  In0  1  -0.00301036  0.16909937  0.13143074  1
  In  In1  1  -0.02806805  0.12979264  0.59220083  1
  In  In2  1  -0.01338147  0.49619708  0.12580293  1
  In  In3  1  -0.00762030  0.50997881  0.62925036  1
  In  In4  1  -0.01351791  0.84962264  0.12546783  1
  In  In5  1  -0.01150084  0.84673143  0.63022669  1
  In  In6  1  0.34536214  0.15215068  0.13954571  1
  In  In7  1  0.33663858  0.15431110  0.60197617  1
  In  In8  1  0.34279839  0.48211302  0.13075533  1
  In  In9  1  0.34160323  0.51663420  0.62574761  1
  In  In10  1  0.36185023  0.82792339  0.13086932  1
  In  In11  1  0.33379772  0.83255186  0.62681655  1
  In  In12  1  0.66801816  0.16238874  0.12974200  1
  In  In13  1  0.63974854  0.14436650  0.59100252  1
  In  In14  1  0.66019856  0.50837282  0.13042257  1
  In  In15  1  0.67137052  0.50173033  0.62467002  1
  In  In16  1  0.65806067  0.83133469  0.12806176  1
  In  In17  1  0.66269155  0.83201653  0.62136573  1
  In  In18  1  0.18503303  0.00935824  0.38025845  1
  In  In19  1  0.15776642  0.00998161  0.87019624  1
  In  In20  1  0.16060797  0.32068896  0.36899617  1
  In  In21  1  0.17587082  0.33005775  0.88086089  1
  In  In22  1  0.16372975  0.67827500  0.38480456  1
  In  In23  1  0.16939529  0.67342463  0.86565120  1
  In  In24  1  0.50674295  -0.00269453  0.38553637  1
  In  In25  1  0.51831236  -0.01369146  0.88987810  1
  In  In26  1  0.49280207  0.32705801  0.36030233  1
  In  In27  1  0.50583702  0.32691104  0.88549945  1
  In  In28  1  0.51627652  0.67236747  0.37338912  1
  In  In29  1  0.50657103  0.66962937  0.86366652  1
  In  In30  1  0.79670077  0.04019771  0.42570882  1
  In  In31  1  0.82436697  -0.00055174  0.87154942  1
  In  In32  1  0.82984504  0.32708372  0.37389862  1
  In  In33  1  0.82029004  0.32714409  0.87891278  1
  In  In34  1  0.80893659  0.68711246  0.39150833  1
  In  In35  1  0.83897887  0.67880027  0.86102213  1
  In  In36  1  -0.01912814  0.17124381  0.39344572  1
  In  In37  1  -0.01210334  0.15011510  0.86487082  1
  In  In38  1  -0.00917339  0.48168666  0.37062740  1
  In  In39  1  -0.01340478  0.50569259  0.87286753  1
  In  In40  1  -0.01203440  0.84150572  0.38047886  1
  In  In41  1  -0.01384396  0.82830579  0.86225591  1
  In  In42  1  0.33834253  0.16333876  0.38076883  1
  In  In43  1  0.33653949  0.17353993  0.87544536  1
  In  In44  1  0.34692692  0.49874721  0.37105704  1
  In  In45  1  0.34755414  0.51355312  0.86747747  1
  In  In46  1  0.36325843  0.86465890  0.36377410  1
  In  In47  1  0.35747405  0.83475333  0.87264116  1
  In  In48  1  0.65535799  0.16474055  0.37989740  1
  In  In49  1  0.67296828  0.15998183  0.88197327  1
  In  In50  1  0.67871218  0.50505482  0.37011970  1
  In  In51  1  0.65064153  0.50259035  0.87249340  1
  In  In52  1  0.66942049  0.84459179  0.38135937  1
  In  In53  1  0.66339117  0.84004300  0.86821417  1
  In  In54  1  0.16683224  0.01135593  0.12935022  1
  In  In55  1  0.15875759  -0.00105683  0.61547503  1
  In  In56  1  0.16980178  0.32266185  0.13543130  1
  In  In57  1  0.16719314  0.31367613  0.62311826  1
  In  In58  1  0.17283452  0.66848442  0.11835773  1
  In  In59  1  0.16532541  0.66900741  0.63402802  1
  In  In60  1  0.50200460  0.00046616  0.12943045  1
  In  In61  1  0.50512812  -0.00432393  0.61333598  1
  In  In62  1  0.50572197  0.32929022  0.13056633  1
  In  In63  1  0.51076136  0.31920339  0.62022179  1
  In  In64  1  0.52259361  0.67729623  0.11008897  1
  In  In65  1  0.48405612  0.68080997  0.65139083  1
  In  In66  1  0.81644840  -0.01348057  0.12059483  1
  In  In67  1  0.82770507  -0.00840744  0.61620676  1
  In  In68  1  0.84396697  0.31988128  0.13873579  1
  In  In69  1  0.80560549  0.32528507  0.60757410  1
  In  In70  1  0.81452712  0.67000828  0.12578944  1
  In  In71  1  0.82989903  0.66856429  0.62405812  1
  In  In72  1  0.17358069  0.49894562  -0.00394062  1
  In  In73  1  -0.00789309  0.00320923  0.26344947  1
  In  In74  1  0.15966052  0.49924698  0.49797790  1
  In  In75  1  0.82274349  0.50000407  0.00063906  1
  In  In76  1  0.51295392  0.49974042  0.50131472  1
  In  In77  1  0.17617163  0.82894073  0.50840992  1
  In  In78  1  -0.00315188  0.65769822  0.25069680  1
  In  In79  1  0.16598861  0.16592501  0.00008854  1
  In  In80  1  0.33993008  -0.00078518  0.74852923  1
  In  In81  1  0.33174978  0.33477725  0.74809705  1
  In  In82  1  0.33663878  0.66208588  0.25625913  1
  In  In83  1  0.66766806  0.33327748  0.74243796  1
  In  In84  1  0.17049641  0.83746585  -0.00318791  1
  In  In85  1  -0.00229242  0.33709868  0.74610720  1
  Cu  Cu86  1  0.83517619  0.49449846  0.25408600  1
  Cu  Cu87  1  0.17165619  0.83610245  0.25495250  1
  Cu  Cu88  1  0.35277205  0.66245490  -0.00520819  1
  Cu  Cu89  1  0.82826417  0.15677955  0.73973060  1
  Cu  Cu90  1  0.16848256  0.83753461  0.74590603  1
  Cu  Cu91  1  -0.01737281  -0.00360688  -0.00558725  1
  Cu  Cu92  1  0.34948748  0.32711608  0.00720710  1
  Cu  Cu93  1  0.83020720  0.84211956  0.74409578  1
  Cu  Cu94  1  0.83355689  0.50553537  0.74410025  1
  Cu  Cu95  1  0.50405431  0.16437043  0.74199938  1
  Cu  Cu96  1  0.16309502  0.49778342  0.74675138  1
  Cu  Cu97  1  -0.01241260  0.66367365  0.50568808  1
  Cu  Cu98  1  0.66484412  0.00225900  0.00403726  1
  Cu  Cu99  1  0.33938275  -0.00068949  0.01035743  1
  Cu  Cu100  1  0.66727835  0.67538003  -0.00631987  1
  Cu  Cu101  1  0.16656851  0.49260157  0.25197173  1
  Cu  Cu102  1  0.50343454  0.49917615  0.24737606  1
  Cu  Cu103  1  -0.00682183  0.67824864  -0.00811055  1
  Cu  Cu104  1  0.34093349  0.67756797  0.50204325  1
  Cu  Cu105  1  0.00071635  0.32621354  0.00730116  1
  Cu  Cu106  1  0.66242387  0.67383722  0.50606315  1
  Cu  Cu107  1  0.15553002  0.15748475  0.74046492  1
  Cu  Cu108  1  0.66876089  0.32719861  0.00757776  1
  Cu  Cu109  1  0.50485047  0.16177947  0.25522671  1
  Cu  Cu110  1  0.82086989  0.83162573  0.25519331  1
  Cu  Cu111  1  0.82558611  0.15504515  0.26330190  1
  Cu  Cu112  1  0.16876349  0.16990978  0.25596186  1
  Cu  Cu113  1  0.33912768  0.33899385  0.49422167  1
  Cu  Cu114  1  -0.00573143  0.34042161  0.49769550  1
  Se  Se115  1  0.06871555  0.07306057  0.05479494  1
  Se  Se116  1  0.10483145  0.10410795  0.55148619  1
  Se  Se117  1  0.08222851  0.41088828  0.06065878  1
  Se  Se118  1  0.07561741  0.41109392  0.56384260  1
  Se  Se119  1  0.07299885  0.75049270  0.05856663  1
  Se  Se120  1  0.07406347  0.74257208  0.56233784  1
  Se  Se121  1  0.42088186  0.08719655  0.05862832  1
  Se  Se122  1  0.44792156  0.10024903  0.54390826  1
  Se  Se123  1  0.42879151  0.41605984  0.05687850  1
  Se  Se124  1  0.41250629  0.41465978  0.56037882  1
  Se  Se125  1  0.42577587  0.75408373  0.04842252  1
  Se  Se126  1  0.42270824  0.74888070  0.56358899  1
  Se  Se127  1  0.75116797  0.08562664  0.05524899  1
  Se  Se128  1  0.76019066  0.08612187  0.54379996  1
  Se  Se129  1  0.75011605  0.40670724  0.06871791  1
  Se  Se130  1  0.72968353  0.41844587  0.54521678  1
  Se  Se131  1  0.74584850  0.75555194  0.05395329  1
  Se  Se132  1  0.75515361  0.75448308  0.55284714  1
  Se  Se133  1  0.25996698  0.24896170  0.06218981  1
  Se  Se134  1  0.25644253  0.25569317  0.54794974  1
  Se  Se135  1  0.26880737  0.58672468  0.05647919  1
  Se  Se136  1  0.25206514  0.59530142  0.55377859  1
  Se  Se137  1  0.25477159  0.91962698  0.06665684  1
  Se  Se138  1  0.26800116  0.93010142  0.55631655  1
  Se  Se139  1  0.58468459  0.24530610  0.06036141  1
  Se  Se140  1  0.60551002  0.27456074  0.54517053  1
  Se  Se141  1  0.59419845  0.57986206  0.04636147  1
  Se  Se142  1  0.58023354  0.59828221  0.56745623  1
  Se  Se143  1  0.58174272  0.91821944  0.05758476  1
  Se  Se144  1  0.59281173  0.91758063  0.54753196  1
  Se  Se145  1  0.91544901  0.24453905  0.05840943  1
  Se  Se146  1  0.91605103  0.25675347  0.55464763  1
  Se  Se147  1  0.91937814  0.59423877  0.05622999  1
  Se  Se148  1  0.90701194  0.57595649  0.55489191  1
  Se  Se149  1  0.90367670  0.91079765  0.04829273  1
  Se  Se150  1  0.93564021  0.93247650  0.55126768  1
  Se  Se151  1  0.07952405  0.25623685  0.44747187  1
  Se  Se152  1  0.07103206  0.25054319  0.93704147  1
  Se  Se153  1  0.06619101  0.58921119  0.43942974  1
  Se  Se154  1  0.07590135  0.59177452  0.94068248  1
  Se  Se155  1  0.09366572  0.91417391  0.43955740  1
  Se  Se156  1  0.07289862  0.92161124  0.93750850  1
  Se  Se157  1  0.42330178  0.25676061  0.44218312  1
  Se  Se158  1  0.42202414  0.23983488  0.94973741  1
  Se  Se159  1  0.41555167  0.59167361  0.44274207  1
  Se  Se160  1  0.43378551  0.58136302  0.93959359  1
  Se  Se161  1  0.42007514  0.91723537  0.45463218  1
  Se  Se162  1  0.41763252  0.91584557  0.95273991  1
  Se  Se163  1  0.76474908  0.22872772  0.44023882  1
  Se  Se164  1  0.75241787  0.24518094  0.95322742  1
  Se  Se165  1  0.74162285  0.58408496  0.45272793  1
  Se  Se166  1  0.74786845  0.59353007  0.93367665  1
  Se  Se167  1  0.76710326  0.89920638  0.45324801  1
  Se  Se168  1  0.74233688  0.92045536  0.94285475  1
  Se  Se169  1  0.25063958  0.09422193  0.45428590  1
  Se  Se170  1  0.25898314  0.07186189  0.94329323  1
  Se  Se171  1  0.25455390  0.41613060  0.43681985  1
  Se  Se172  1  0.27360717  0.40817713  0.94234657  1
  Se  Se173  1  0.26948687  0.75628349  0.43608597  1
  Se  Se174  1  0.26106750  0.74131123  0.94100718  1
  Se  Se175  1  0.56855449  0.09760260  0.45626191  1
  Se  Se176  1  0.58202719  0.08955183  0.95236626  1
  Se  Se177  1  0.58285248  0.41468379  0.42759591  1
  Se  Se178  1  0.59289948  0.41143896  0.94885906  1
  Se  Se179  1  0.58314700  0.75581001  0.44809552  1
  Se  Se180  1  0.58281962  0.75383409  0.93731469  1
  Se  Se181  1  0.94242374  0.05254789  0.44986150  1
  Se  Se182  1  0.90633728  0.08636269  0.94209296  1
  Se  Se183  1  0.90571096  0.41760248  0.44565075  1
  Se  Se184  1  0.92214765  0.40744316  0.94467025  1
  Se  Se185  1  0.91553212  0.75308666  0.45019168  1
  Se  Se186  1  0.90771150  0.75792133  0.94023397  1
  Se  Se187  1  0.25891964  0.24817986  0.30747050  1
  Se  Se188  1  0.23551897  0.23672554  0.80191056  1
  Se  Se189  1  0.23563924  0.57803327  0.31505231  1
  Se  Se190  1  0.24606533  0.57735321  0.80390564  1
  Se  Se191  1  0.25234584  0.92290017  0.30487567  1
  Se  Se192  1  0.24616095  0.91302259  0.81241750  1
  Se  Se193  1  0.59102713  0.24908054  0.30127729  1
  Se  Se194  1  0.58004176  0.24328017  0.80675217  1
  Se  Se195  1  0.58417710  0.58032265  0.30446125  1
  Se  Se196  1  0.59156642  0.58690441  0.79630179  1
  Se  Se197  1  0.58814872  0.92419463  0.31115280  1
  Se  Se198  1  0.57892659  0.92640152  0.80317913  1
  Se  Se199  1  0.91710598  0.23982188  0.30795287  1
  Se  Se200  1  0.89957941  0.24488502  0.80139932  1
  Se  Se201  1  0.90414118  0.58301626  0.31685567  1
  Se  Se202  1  0.91974621  0.58623554  0.79658161  1
  Se  Se203  1  0.89478262  0.91581839  0.31482428  1
  Se  Se204  1  0.91301807  0.92529520  0.79944683  1
  Se  Se205  1  0.08687169  0.09247303  0.31790109  1
  Se  Se206  1  0.07332380  0.07561723  0.79429219  1
  Se  Se207  1  0.08100359  0.41040164  0.30301409  1
  Se  Se208  1  0.09140684  0.42070679  0.81415665  1
  Se  Se209  1  0.08425108  0.75755096  0.30880550  1
  Se  Se210  1  0.08360412  0.75416033  0.79952642  1
  Se  Se211  1  0.42392022  0.08171227  0.31355025  1
  Se  Se212  1  0.42547883  0.09171053  0.80912284  1
  Se  Se213  1  0.41234803  0.41782587  0.29411616  1
  Se  Se214  1  0.42915371  0.41292357  0.80855449  1
  Se  Se215  1  0.43217254  0.75807556  0.30228673  1
  Se  Se216  1  0.40889034  0.74242770  0.79908844  1
  Se  Se217  1  0.74781723  0.07351305  0.32257181  1
  Se  Se218  1  0.74380137  0.08600959  0.80221961  1
  Se  Se219  1  0.74978425  0.41025144  0.30301090  1
  Se  Se220  1  0.75724265  0.42388351  0.80711669  1
  Se  Se221  1  0.73772497  0.74827844  0.30790795  1
  Se  Se222  1  0.74823052  0.75825558  0.79840481  1
  Se  Se223  1  0.24776129  0.08120632  0.20425339  1
  Se  Se224  1  0.25180017  0.08836593  0.68485185  1
  Se  Se225  1  0.25190953  0.41128224  0.19933515  1
  Se  Se226  1  0.24107174  0.42257108  0.68384917  1
  Se  Se227  1  0.24577300  0.75393883  0.19304661  1
  Se  Se228  1  0.25317731  0.75173625  0.69778953  1
  Se  Se229  1  0.58707447  0.07959527  0.19953465  1
  Se  Se230  1  0.58299151  0.08457545  0.68324168  1
  Se  Se231  1  0.58932744  0.41469694  0.19812519  1
  Se  Se232  1  0.57060049  0.42207788  0.68902270  1
  Se  Se233  1  0.58467746  0.73911570  0.19567300  1
  Se  Se234  1  0.60109805  0.74088768  0.69670177  1
  Se  Se235  1  0.90340105  0.08138889  0.19316452  1
  Se  Se236  1  0.91367942  0.07769949  0.68560614  1
  Se  Se237  1  0.92307845  0.41416423  0.20287165  1
  Se  Se238  1  0.89886340  0.41300318  0.68394413  1
  Se  Se239  1  0.90895815  0.75763387  0.19562705  1
  Se  Se240  1  0.91334747  0.75267647  0.69397062  1
  Se  Se241  1  0.07968305  0.24656132  0.20205286  1
  Se  Se242  1  0.07161451  0.23678813  0.68555508  1
  Se  Se243  1  0.09449037  0.57427234  0.18728933  1
  Se  Se244  1  0.07930410  0.58415577  0.69842926  1
  Se  Se245  1  0.08550780  0.91425158  0.19621368  1
  Se  Se246  1  0.08749442  0.92153348  0.69266436  1
  Se  Se247  1  0.42201046  0.24721502  0.20100558  1
  Se  Se248  1  0.41485364  0.23856448  0.68583349  1
  Se  Se249  1  0.42492007  0.58318190  0.18735159  1
  Se  Se250  1  0.40982125  0.57831861  0.70862058  1
  Se  Se251  1  0.40517431  0.93214567  0.19771206  1
  Se  Se252  1  0.43134431  0.91074679  0.69160332  1
  Se  Se253  1  0.75280638  0.24058006  0.20224512  1
  Se  Se254  1  0.74323723  0.23342791  0.68249641  1
  Se  Se255  1  0.75478517  0.57923241  0.19896638  1
  Se  Se256  1  0.74662689  0.58754187  0.69493074  1
  Se  Se257  1  0.74158169  0.91496294  0.19803097  1
  Se  Se258  1  0.74416310  0.92035836  0.69026827  1
