# generated using pymatgen
data_In86Cu29Se144
_symmetry_space_group_name_H-M   'P 1'
_cell_length_a   17.68007154
_cell_length_b   17.67447815
_cell_length_c   23.54361712
_cell_angle_alpha   89.97692121
_cell_angle_beta   89.99327153
_cell_angle_gamma   90.02391085
_symmetry_Int_Tables_number   1
_chemical_formula_structural   In86Cu29Se144
_chemical_formula_sum   'In86 Cu29 Se144'
_cell_volume   7357.05035064
_cell_formula_units_Z   1
loop_
 _symmetry_equiv_pos_site_id
 _symmetry_equiv_pos_as_xyz
  1  'x, y, z'
loop_
 _atom_site_type_symbol
 _atom_site_label
 _atom_site_symmetry_multiplicity
 _atom_site_fract_x
 _atom_site_fract_y
 _atom_site_fract_z
 _atom_site_occupancy
  In  In0  1  0.00338860  0.15965309  0.13318887  1
  In  In1  1  0.01519214  0.16732283  0.61211696  1
  In  In2  1  -0.01437525  0.48945908  0.12296863  1
  In  In3  1  0.00680137  0.49661951  0.61403644  1
  In  In4  1  -0.00422145  0.84028280  0.12582599  1
  In  In5  1  0.00018818  0.84690147  0.61903447  1
  In  In6  1  0.32974574  0.17521820  0.11262721  1
  In  In7  1  0.32656003  0.17383903  0.63504009  1
  In  In8  1  0.32567682  0.50114377  0.11661222  1
  In  In9  1  0.32135102  0.49370513  0.62628527  1
  In  In10  1  0.31817106  0.81916978  0.10881200  1
  In  In11  1  0.34442826  0.82270026  0.63000267  1
  In  In12  1  0.65906542  0.17830952  0.11912938  1
  In  In13  1  0.67798425  0.17298190  0.62466983  1
  In  In14  1  0.66520708  0.50578942  0.11287955  1
  In  In15  1  0.67299973  0.49173024  0.63686765  1
  In  In16  1  0.65954666  0.82973832  0.11841324  1
  In  In17  1  0.66974516  0.82861893  0.62407866  1
  In  In18  1  0.16237030  0.01311623  0.37290815  1
  In  In19  1  0.18013791  -0.01502778  0.88197870  1
  In  In20  1  0.16701281  0.33615388  0.37237199  1
  In  In21  1  0.21402015  0.29754392  0.92540318  1
  In  In22  1  0.16677492  0.64707099  0.36963731  1
  In  In23  1  0.22771382  0.62661181  0.93120857  1
  In  In24  1  0.48699447  -0.00504210  0.37595201  1
  In  In25  1  0.49678770  0.01167751  0.88010392  1
  In  In26  1  0.49285698  0.34028855  0.37086556  1
  In  In27  1  0.49715975  0.33823915  0.86573883  1
  In  In28  1  0.49830226  0.66910305  0.37339412  1
  In  In29  1  0.51507671  0.65112617  0.88825643  1
  In  In30  1  0.85257960  -0.01342388  0.38932348  1
  In  In31  1  0.82919919  -0.00844771  0.87337995  1
  In  In32  1  0.84003787  0.32545363  0.38331132  1
  In  In33  1  0.83797344  0.35511425  0.87430518  1
  In  In34  1  0.83137319  0.66619632  0.38158697  1
  In  In35  1  0.83443167  0.67096748  0.87821196  1
  In  In36  1  -0.00189889  0.16674970  0.37168962  1
  In  In37  1  0.01268979  0.18054319  0.87494586  1
  In  In38  1  0.00577026  0.49371981  0.37626322  1
  In  In39  1  0.01523916  0.49739327  0.88442571  1
  In  In40  1  -0.01297922  0.83389309  0.36810071  1
  In  In41  1  0.01318577  0.81989904  0.88595319  1
  In  In42  1  0.31671150  0.16886901  0.37769642  1
  In  In43  1  0.34238997  0.16329422  0.86992412  1
  In  In44  1  0.31970955  0.48326735  0.35621016  1
  In  In45  1  0.36942159  0.46292926  0.92420861  1
  In  In46  1  0.34456892  0.83032135  0.37399103  1
  In  In47  1  0.33101382  0.83244079  0.88239851  1
  In  In48  1  0.67165989  0.18054382  0.37938267  1
  In  In49  1  0.65237269  0.17419949  0.87193406  1
  In  In50  1  0.66486040  0.50719568  0.37924994  1
  In  In51  1  0.66367904  0.50449667  0.86682554  1
  In  In52  1  0.66588958  0.83242546  0.38004428  1
  In  In53  1  0.67459102  0.82230094  0.87770397  1
  In  In54  1  0.15710765  -0.00625380  0.12051298  1
  In  In55  1  0.17157081  0.01695391  0.62806522  1
  In  In56  1  0.16399796  0.33390747  0.11927418  1
  In  In57  1  0.17508292  0.33065859  0.62193098  1
  In  In58  1  0.16384594  0.67652869  0.12173565  1
  In  In59  1  0.18041549  0.66054638  0.62808153  1
  In  In60  1  0.48632361  -0.00475038  0.11528239  1
  In  In61  1  0.49988455  -0.01632011  0.62506672  1
  In  In62  1  0.48279309  0.32973977  0.10502545  1
  In  In63  1  0.49406828  0.34324900  0.63780577  1
  In  In64  1  0.48478063  0.65542183  0.10668583  1
  In  In65  1  0.50152251  0.68059925  0.62926642  1
  In  In66  1  0.84122506  -0.00440599  0.13361503  1
  In  In67  1  0.84709616  0.00627230  0.60846176  1
  In  In68  1  0.83145047  0.34989288  0.12869806  1
  In  In69  1  0.83456013  0.32953761  0.61884534  1
  In  In70  1  0.82889624  0.66303786  0.12360627  1
  In  In71  1  0.83271719  0.65849788  0.61795282  1
  In  In72  1  0.00092336  0.33918365  0.74726596  1
  In  In73  1  0.16688941  0.83025642  0.49725352  1
  In  In74  1  0.83261822  0.16584856  0.00182054  1
  In  In75  1  0.66406096  0.66429892  0.25262461  1
  In  In76  1  0.00371798  0.00062053  0.74224483  1
  In  In77  1  0.32649225  0.00286039  0.24924943  1
  In  In78  1  0.66645283  0.00387404  0.25081286  1
  In  In79  1  -0.00243871  0.66270381  0.25063085  1
  In  In80  1  0.34835124  0.64235859  0.77176805  1
  In  In81  1  0.66692822  0.00094105  0.74386773  1
  In  In82  1  0.49272421  0.50337495  0.51176448  1
  In  In83  1  0.49878224  0.16405898  0.49899682  1
  In  In84  1  0.66258472  0.34071513  0.24907782  1
  In  In85  1  0.00570316  0.66942838  0.75151337  1
  Cu  Cu86  1  0.33521886  0.00560684  -0.00383740  1
  Cu  Cu87  1  0.50119801  0.83731756  0.75302544  1
  Cu  Cu88  1  0.00811108  0.33258499  0.49455676  1
  Cu  Cu89  1  0.67039144  -0.00358552  -0.00472001  1
  Cu  Cu90  1  0.33509839  -0.00827286  0.50064974  1
  Cu  Cu91  1  0.82862748  0.50977376  0.74959057  1
  Cu  Cu92  1  0.66856283  0.66416139  -0.00351719  1
  Cu  Cu93  1  -0.00495207  0.00600551  0.00443872  1
  Cu  Cu94  1  0.49106167  0.17244136  0.23765242  1
  Cu  Cu95  1  0.82912843  0.17354322  0.74398405  1
  Cu  Cu96  1  0.83708529  0.83490278  0.75051497  1
  Cu  Cu97  1  0.49765113  0.17004247  0.75098189  1
  Cu  Cu98  1  -0.00151715  0.33681597  0.00304995  1
  Cu  Cu99  1  0.48916244  0.49595510  0.23500710  1
  Cu  Cu100  1  0.16949593  0.49564182  0.24426168  1
  Cu  Cu101  1  0.17684765  0.82835774  0.75862307  1
  Cu  Cu102  1  0.00425292  0.66424072  0.49453840  1
  Cu  Cu103  1  0.66877622  0.67076412  0.50160186  1
  Cu  Cu104  1  0.66575010  -0.00209953  0.50477386  1
  Cu  Cu105  1  0.17424064  0.16702865  0.75872969  1
  Cu  Cu106  1  0.66755525  0.34010706  0.50704987  1
  Cu  Cu107  1  0.83607622  0.17020319  0.25633998  1
  Cu  Cu108  1  0.33682033  0.65822051  0.50189631  1
  Cu  Cu109  1  0.16440071  0.17533086  0.24934010  1
  Cu  Cu110  1  0.16516536  0.83406067  0.24180142  1
  Cu  Cu111  1  -0.00726433  0.67251250  0.00559670  1
  Cu  Cu112  1  0.17156705  0.49366162  0.75924426  1
  Cu  Cu113  1  0.49350369  0.82522885  0.24626027  1
  Cu  Cu114  1  0.66612160  0.33817474  -0.00487609  1
  Se  Se115  1  0.08047964  0.08741179  0.05605626  1
  Se  Se116  1  0.06589567  0.05103567  0.55823124  1
  Se  Se117  1  0.08037443  0.42275202  0.05476622  1
  Se  Se118  1  0.09182221  0.41101483  0.55259035  1
  Se  Se119  1  0.07607732  0.75752642  0.05725341  1
  Se  Se120  1  0.08127097  0.73884215  0.56213035  1
  Se  Se121  1  0.41687372  0.09018716  0.04965540  1
  Se  Se122  1  0.41182668  0.07508783  0.56174838  1
  Se  Se123  1  0.41160698  0.42756214  0.04263590  1
  Se  Se124  1  0.40353093  0.40193270  0.55835600  1
  Se  Se125  1  0.43432147  0.77252921  0.05381961  1
  Se  Se126  1  0.41678041  0.74593616  0.55271516  1
  Se  Se127  1  0.74325722  0.07571066  0.06248874  1
  Se  Se128  1  0.74707101  0.08603547  0.55312581  1
  Se  Se129  1  0.74977042  0.41597101  0.05163110  1
  Se  Se130  1  0.75151666  0.42307991  0.55862392  1
  Se  Se131  1  0.74674513  0.74552571  0.05552910  1
  Se  Se132  1  0.75481380  0.75151379  0.55422688  1
  Se  Se133  1  0.25117325  0.26257447  0.04500676  1
  Se  Se134  1  0.23474128  0.22528735  0.55968597  1
  Se  Se135  1  0.24577741  0.59427010  0.05361163  1
  Se  Se136  1  0.24943635  0.57877436  0.55311821  1
  Se  Se137  1  0.25103689  0.92604262  0.05257039  1
  Se  Se138  1  0.25561765  0.91401227  0.56384695  1
  Se  Se139  1  0.58188034  0.25291018  0.04547894  1
  Se  Se140  1  0.58199634  0.25892230  0.56207524  1
  Se  Se141  1  0.57899111  0.57946963  0.04316108  1
  Se  Se142  1  0.59074992  0.59120309  0.56420186  1
  Se  Se143  1  0.58428013  0.92190714  0.05362552  1
  Se  Se144  1  0.58557470  0.91086326  0.55513879  1
  Se  Se145  1  0.91743937  0.25622323  0.06373587  1
  Se  Se146  1  0.92586476  0.25371798  0.55333121  1
  Se  Se147  1  0.91364683  0.58394225  0.05597682  1
  Se  Se148  1  0.92198660  0.58248642  0.55107421  1
  Se  Se149  1  0.91176570  0.92114715  0.05530041  1
  Se  Se150  1  0.91417397  0.90863708  0.54527284  1
  Se  Se151  1  0.08618722  0.24797484  0.43883200  1
  Se  Se152  1  0.08041088  0.24620619  0.95757101  1
  Se  Se153  1  0.08744961  0.57826835  0.44562929  1
  Se  Se154  1  0.07588371  0.60727092  0.94036605  1
  Se  Se155  1  0.07986937  0.91712911  0.43543106  1
  Se  Se156  1  0.07662533  0.92527929  0.94663243  1
  Se  Se157  1  0.40987452  0.25557278  0.44109803  1
  Se  Se158  1  0.42543063  0.24806674  0.93526922  1
  Se  Se159  1  0.41120195  0.57909667  0.43703538  1
  Se  Se160  1  0.39376496  0.60824046  0.94201762  1
  Se  Se161  1  0.41917677  0.90927631  0.44929307  1
  Se  Se162  1  0.41844497  0.92102462  0.94459502  1
  Se  Se163  1  0.74855478  0.25449745  0.45396661  1
  Se  Se164  1  0.75001954  0.25712706  0.93701077  1
  Se  Se165  1  0.74777115  0.58346010  0.44905689  1
  Se  Se166  1  0.74852429  0.58237542  0.93904591  1
  Se  Se167  1  0.74646762  0.91720700  0.44655680  1
  Se  Se168  1  0.75348362  0.91228036  0.94529362  1
  Se  Se169  1  0.25275226  0.07411161  0.44727947  1
  Se  Se170  1  0.25297571  0.08598047  0.94061162  1
  Se  Se171  1  0.25286643  0.41910702  0.43847530  1
  Se  Se172  1  0.22520576  0.44200590  0.94182605  1
  Se  Se173  1  0.25658145  0.73739487  0.43852991  1
  Se  Se174  1  0.22500528  0.77344931  0.94313632  1
  Se  Se175  1  0.58967033  0.07411147  0.43790713  1
  Se  Se176  1  0.59054337  0.08557395  0.94604292  1
  Se  Se177  1  0.58307392  0.41235200  0.44578003  1
  Se  Se178  1  0.58627889  0.41634488  0.93592562  1
  Se  Se179  1  0.58276651  0.74493942  0.44360761  1
  Se  Se180  1  0.58513590  0.75326987  0.94854924  1
  Se  Se181  1  0.90660996  0.10004104  0.44284949  1
  Se  Se182  1  0.92216563  0.08182749  0.93532724  1
  Se  Se183  1  0.92035707  0.41650575  0.44673693  1
  Se  Se184  1  0.91987854  0.42267072  0.94935846  1
  Se  Se185  1  0.92172597  0.74828379  0.44348302  1
  Se  Se186  1  0.91083426  0.75555491  0.94884383  1
  Se  Se187  1  0.25129053  0.25246674  0.30252368  1
  Se  Se188  1  0.24257301  0.25320432  0.82046236  1
  Se  Se189  1  0.25184639  0.58428795  0.29317247  1
  Se  Se190  1  0.23152797  0.58629412  0.81982691  1
  Se  Se191  1  0.24188924  0.90838258  0.31041637  1
  Se  Se192  1  0.26027361  0.91593323  0.80520566  1
  Se  Se193  1  0.57283267  0.24192374  0.30468151  1
  Se  Se194  1  0.58400286  0.25531383  0.79716910  1
  Se  Se195  1  0.56811888  0.56700143  0.30332354  1
  Se  Se196  1  0.57715406  0.58826221  0.80268217  1
  Se  Se197  1  0.57094474  0.90823896  0.30564173  1
  Se  Se198  1  0.58493538  0.91601940  0.81195463  1
  Se  Se199  1  0.91813238  0.25738901  0.30498266  1
  Se  Se200  1  0.90935083  0.24732419  0.80844970  1
  Se  Se201  1  0.90830176  0.57594301  0.31163249  1
  Se  Se202  1  0.91820490  0.57650899  0.81048278  1
  Se  Se203  1  0.91195107  0.92239059  0.30230538  1
  Se  Se204  1  0.92249826  0.90927301  0.80888058  1
  Se  Se205  1  0.08289609  0.08781700  0.29993854  1
  Se  Se206  1  0.08962094  0.08282546  0.81149309  1
  Se  Se207  1  0.08560144  0.41911554  0.30197823  1
  Se  Se208  1  0.09220790  0.41008991  0.81521750  1
  Se  Se209  1  0.09158146  0.75367945  0.30827205  1
  Se  Se210  1  0.09854750  0.74612286  0.81467023  1
  Se  Se211  1  0.42026053  0.09392875  0.30641573  1
  Se  Se212  1  0.42088773  0.07799160  0.79976023  1
  Se  Se213  1  0.41574711  0.40864655  0.29296593  1
  Se  Se214  1  0.40590483  0.43739895  0.82005900  1
  Se  Se215  1  0.41274648  0.74274498  0.30146758  1
  Se  Se216  1  0.42835865  0.75437371  0.81588866  1
  Se  Se217  1  0.75274555  0.09145551  0.31352010  1
  Se  Se218  1  0.75561608  0.09156893  0.80663202  1
  Se  Se219  1  0.75076024  0.41927706  0.31562292  1
  Se  Se220  1  0.75152663  0.41955691  0.80083432  1
  Se  Se221  1  0.75459853  0.75606482  0.30853781  1
  Se  Se222  1  0.75672074  0.75033057  0.80339683  1
  Se  Se223  1  0.24206522  0.09342078  0.18676219  1
  Se  Se224  1  0.25414023  0.08202074  0.70444432  1
  Se  Se225  1  0.25043381  0.41482495  0.18746631  1
  Se  Se226  1  0.24624878  0.41117995  0.69868821  1
  Se  Se227  1  0.25050966  0.75157115  0.19281905  1
  Se  Se228  1  0.25742098  0.74243636  0.70167211  1
  Se  Se229  1  0.57372426  0.08814765  0.18628758  1
  Se  Se230  1  0.57506498  0.09221721  0.68568359  1
  Se  Se231  1  0.57476267  0.41827911  0.17909131  1
  Se  Se232  1  0.57410543  0.42857033  0.70131182  1
  Se  Se233  1  0.57326198  0.74500122  0.18758059  1
  Se  Se234  1  0.58636505  0.75753322  0.69898249  1
  Se  Se235  1  0.91406097  0.08444524  0.20121691  1
  Se  Se236  1  0.91347212  0.09627187  0.68726282  1
  Se  Se237  1  0.91458431  0.41722507  0.20177707  1
  Se  Se238  1  0.91110682  0.43083873  0.68917440  1
  Se  Se239  1  0.90725575  0.75344467  0.19317536  1
  Se  Se240  1  0.91787217  0.75766824  0.68826046  1
  Se  Se241  1  0.08230259  0.25555162  0.19230008  1
  Se  Se242  1  0.08940761  0.23863635  0.69539363  1
  Se  Se243  1  0.08583567  0.57705204  0.18694628  1
  Se  Se244  1  0.09286600  0.56984661  0.69352819  1
  Se  Se245  1  0.07938531  0.91983048  0.19651362  1
  Se  Se246  1  0.10049991  0.90444479  0.69269023  1
  Se  Se247  1  0.41111029  0.25482386  0.18449051  1
  Se  Se248  1  0.41176392  0.25459516  0.70127406  1
  Se  Se249  1  0.41054675  0.58462913  0.18545364  1
  Se  Se250  1  0.41971068  0.57772333  0.68602245  1
  Se  Se251  1  0.41373451  0.91021700  0.19046898  1
  Se  Se252  1  0.41519729  0.91447860  0.69898641  1
  Se  Se253  1  0.75294067  0.24332271  0.19334947  1
  Se  Se254  1  0.74931702  0.26141978  0.69473297  1
  Se  Se255  1  0.75003015  0.57120683  0.19351106  1
  Se  Se256  1  0.74977691  0.59366801  0.69483811  1
  Se  Se257  1  0.74731362  0.90640742  0.19290731  1
  Se  Se258  1  0.76618178  0.91856416  0.68686831  1
