# generated using pymatgen
data_In86Cu29Se144
_symmetry_space_group_name_H-M   'P 1'
_cell_length_a   17.57657117
_cell_length_b   17.57701508
_cell_length_c   23.43522114
_cell_angle_alpha   90.03342352
_cell_angle_beta   89.98342545
_cell_angle_gamma   90.01439224
_symmetry_Int_Tables_number   1
_chemical_formula_structural   In86Cu29Se144
_chemical_formula_sum   'In86 Cu29 Se144'
_cell_volume   7240.16114848
_cell_formula_units_Z   1
loop_
 _symmetry_equiv_pos_site_id
 _symmetry_equiv_pos_as_xyz
  1  'x, y, z'
loop_
 _atom_site_type_symbol
 _atom_site_label
 _atom_site_symmetry_multiplicity
 _atom_site_fract_x
 _atom_site_fract_y
 _atom_site_fract_z
 _atom_site_occupancy
  In  In0  1  -0.01279660  0.16769900  0.12987197  1
  In  In1  1  0.01166024  0.18625041  0.59732126  1
  In  In2  1  0.00685108  0.50266847  0.11359756  1
  In  In3  1  0.00975630  0.48769704  0.63268978  1
  In  In4  1  0.00802956  0.83771936  0.12560063  1
  In  In5  1  -0.00980658  0.83265583  0.62921273  1
  In  In6  1  0.35022041  0.16155780  0.12736262  1
  In  In7  1  0.33516151  0.17070254  0.61370717  1
  In  In8  1  0.32646881  0.49648332  0.11617230  1
  In  In9  1  0.34149642  0.50625792  0.62427908  1
  In  In10  1  0.33957784  0.83180087  0.11407885  1
  In  In11  1  0.33151588  0.81653310  0.62680432  1
  In  In12  1  0.65988216  0.17712805  0.13678421  1
  In  In13  1  0.66835793  0.16731735  0.62146661  1
  In  In14  1  0.66762816  0.50224228  0.13026280  1
  In  In15  1  0.64327984  0.49752130  0.62477524  1
  In  In16  1  0.64902075  0.83943782  0.13834222  1
  In  In17  1  0.67164748  0.84413237  0.62502619  1
  In  In18  1  0.16319676  0.01229390  0.37803040  1
  In  In19  1  0.16072668  -0.01981080  0.87805055  1
  In  In20  1  0.17215139  0.32751026  0.38389117  1
  In  In21  1  0.16834954  0.34536067  0.87029505  1
  In  In22  1  0.15789469  0.66025068  0.37857087  1
  In  In23  1  0.16718607  0.66471767  0.87143958  1
  In  In24  1  0.51237565  -0.00983250  0.37945820  1
  In  In25  1  0.50734468  -0.01017001  0.87965541  1
  In  In26  1  0.50075006  0.33402032  0.37401229  1
  In  In27  1  0.50854159  0.32936173  0.88028579  1
  In  In28  1  0.51408091  0.66066223  0.38384040  1
  In  In29  1  0.49358044  0.67032545  0.88522151  1
  In  In30  1  0.83580313  0.00795515  0.37182630  1
  In  In31  1  0.83280981  0.01051752  0.87297555  1
  In  In32  1  0.81826801  0.33654579  0.37538043  1
  In  In33  1  0.83713765  0.33706959  0.86581130  1
  In  In34  1  0.82628866  0.67052347  0.37187459  1
  In  In35  1  0.83035849  0.64912318  0.87527552  1
  In  In36  1  0.01097511  0.15886662  0.39200684  1
  In  In37  1  -0.01153832  0.16540135  0.86917944  1
  In  In38  1  0.00384350  0.50403068  0.38388243  1
  In  In39  1  -0.00219691  0.50061183  0.86947806  1
  In  In40  1  -0.01441714  0.83544015  0.37350186  1
  In  In41  1  0.03304771  0.82861962  0.88489604  1
  In  In42  1  0.32673070  0.17822146  0.38086388  1
  In  In43  1  0.33656384  0.18153120  0.87497033  1
  In  In44  1  0.34803656  0.49374264  0.37771108  1
  In  In45  1  0.32021156  0.51858999  0.89452387  1
  In  In46  1  0.34834749  0.84210280  0.37226365  1
  In  In47  1  0.34382978  0.81419779  0.89035075  1
  In  In48  1  0.66473620  0.16588550  0.37556150  1
  In  In49  1  0.66520400  0.16201092  0.86731017  1
  In  In50  1  0.66603509  0.48885475  0.36597043  1
  In  In51  1  0.67567718  0.48964003  0.88438708  1
  In  In52  1  0.64546539  0.82249290  0.35621382  1
  In  In53  1  0.65277103  0.83599638  0.87636050  1
  In  In54  1  0.16616652  -0.00569593  0.12479950  1
  In  In55  1  0.15270908  0.00548721  0.61686504  1
  In  In56  1  0.16512505  0.34914583  0.12224855  1
  In  In57  1  0.15905760  0.33150955  0.61566198  1
  In  In58  1  0.17424797  0.66730674  0.10974149  1
  In  In59  1  0.17553723  0.65443588  0.63424002  1
  In  In60  1  0.50287111  0.00309456  0.12208081  1
  In  In61  1  0.50952653  0.01149778  0.61626067  1
  In  In62  1  0.50179611  0.33157660  0.12855834  1
  In  In63  1  0.50677890  0.33750031  0.62185716  1
  In  In64  1  0.50491104  0.67258553  0.11521360  1
  In  In65  1  0.49325843  0.65504367  0.61924990  1
  In  In66  1  0.82784251  0.00048924  0.13486769  1
  In  In67  1  0.82558567  0.00241296  0.62289935  1
  In  In68  1  0.82296998  0.33874380  0.13158710  1
  In  In69  1  0.83907106  0.32367647  0.62559064  1
  In  In70  1  0.82588309  0.64701220  0.12391903  1
  In  In71  1  0.83368329  0.67855582  0.62900115  1
  In  In72  1  0.33955708  0.00233725  0.24504262  1
  In  In73  1  -0.00880635  0.00005558  0.74813287  1
  In  In74  1  0.82686904  0.83653473  0.50187333  1
  In  In75  1  0.17265812  0.83226837  0.49750451  1
  In  In76  1  0.83127443  0.17082132  -0.00195955  1
  In  In77  1  0.82946187  0.49660796  0.49787954  1
  In  In78  1  0.33805047  -0.00009268  0.74742425  1
  In  In79  1  0.66474090  0.66492157  0.75116446  1
  In  In80  1  -0.00504180  0.33267446  0.25486447  1
  In  In81  1  0.33892072  0.34212431  0.75050365  1
  In  In82  1  0.17245705  0.16624413  -0.00239595  1
  In  In83  1  0.34053351  0.66690990  0.24609560  1
  In  In84  1  0.83487450  0.82958088  0.00807567  1
  In  In85  1  -0.00685278  0.66843830  0.24601527  1
  Cu  Cu86  1  0.83050072  0.49549184  0.74974951  1
  Cu  Cu87  1  0.50024498  0.16900805  0.25460282  1
  Cu  Cu88  1  0.33804530  -0.00127314  0.00066652  1
  Cu  Cu89  1  0.16311346  0.17145004  0.26011422  1
  Cu  Cu90  1  0.66350069  0.00146716  0.00176534  1
  Cu  Cu91  1  0.66308077  0.66251279  0.00150424  1
  Cu  Cu92  1  0.50196177  0.49374526  0.25046248  1
  Cu  Cu93  1  0.49443936  0.50359241  0.75421602  1
  Cu  Cu94  1  0.66765595  -0.00096078  0.49556972  1
  Cu  Cu95  1  0.00123597  0.66401070  -0.00456980  1
  Cu  Cu96  1  -0.00065327  0.34224213  -0.00787608  1
  Cu  Cu97  1  0.65991158  0.33101875  0.49723996  1
  Cu  Cu98  1  0.00575253  0.65902734  0.50776002  1
  Cu  Cu99  1  0.83808828  0.83432336  0.75290501  1
  Cu  Cu100  1  0.16249896  0.50201048  0.75320256  1
  Cu  Cu101  1  0.82606149  0.83791374  0.25115836  1
  Cu  Cu102  1  0.34380195  0.33148819  0.00117004  1
  Cu  Cu103  1  0.17231030  0.49860212  0.24627010  1
  Cu  Cu104  1  0.16528478  0.83968712  0.24561889  1
  Cu  Cu105  1  0.33589010  0.34100844  0.50011864  1
  Cu  Cu106  1  0.51009322  0.16377352  0.74812250  1
  Cu  Cu107  1  0.33902480  0.00205833  0.49599939  1
  Cu  Cu108  1  0.50002276  0.83371039  0.75425234  1
  Cu  Cu109  1  0.17178023  0.82389428  0.75257811  1
  Cu  Cu110  1  0.66327840  0.33529845  0.00852446  1
  Cu  Cu111  1  0.83181751  0.16308303  0.25599200  1
  Cu  Cu112  1  0.33960775  0.66410004  0.50176301  1
  Cu  Cu113  1  0.15562830  0.16782830  0.73864041  1
  Cu  Cu114  1  0.83072235  0.16896627  0.74388569  1
  Se  Se115  1  0.07797163  0.08701423  0.06109268  1
  Se  Se116  1  0.08376758  0.08215145  0.54147142  1
  Se  Se117  1  0.08875881  0.42014198  0.04430397  1
  Se  Se118  1  0.07973863  0.42148389  0.55110764  1
  Se  Se119  1  0.07687443  0.74965182  0.05337618  1
  Se  Se120  1  0.08295465  0.74716590  0.56400013  1
  Se  Se121  1  0.42156053  0.08463334  0.05056390  1
  Se  Se122  1  0.42080865  0.08797294  0.54868235  1
  Se  Se123  1  0.42246991  0.41473870  0.05706621  1
  Se  Se124  1  0.42061474  0.42026639  0.55627825  1
  Se  Se125  1  0.40293272  0.73332697  0.04940489  1
  Se  Se126  1  0.41962133  0.75188437  0.55331303  1
  Se  Se127  1  0.74293845  0.08272279  0.06140432  1
  Se  Se128  1  0.74905175  0.08267662  0.55032774  1
  Se  Se129  1  0.75040804  0.41878824  0.05738557  1
  Se  Se130  1  0.73820782  0.41091007  0.56133025  1
  Se  Se131  1  0.73888470  0.74494085  0.06484909  1
  Se  Se132  1  0.73744934  0.73977138  0.55657633  1
  Se  Se133  1  0.25905276  0.25384445  0.06207139  1
  Se  Se134  1  0.25053747  0.25440103  0.54973789  1
  Se  Se135  1  0.24592219  0.57527161  0.04489797  1
  Se  Se136  1  0.25270979  0.58484431  0.55554114  1
  Se  Se137  1  0.25119278  0.92012647  0.05420555  1
  Se  Se138  1  0.26036306  0.92366277  0.56091222  1
  Se  Se139  1  0.58271150  0.24563072  0.05769121  1
  Se  Se140  1  0.57945600  0.24662591  0.55343082  1
  Se  Se141  1  0.58435290  0.57585386  0.05562848  1
  Se  Se142  1  0.58372691  0.58479747  0.55035596  1
  Se  Se143  1  0.58421953  0.91448421  0.05529512  1
  Se  Se144  1  0.58677029  0.91663375  0.55265438  1
  Se  Se145  1  0.92242702  0.26473134  0.05690735  1
  Se  Se146  1  0.89645683  0.24234517  0.54474642  1
  Se  Se147  1  0.91653972  0.58384596  0.05024097  1
  Se  Se148  1  0.91647854  0.58566891  0.56436243  1
  Se  Se149  1  0.91990735  0.92957928  0.06146046  1
  Se  Se150  1  0.92547565  0.92500798  0.55619781  1
  Se  Se151  1  0.08151034  0.25817853  0.45246903  1
  Se  Se152  1  0.07679046  0.25345383  0.93661864  1
  Se  Se153  1  0.09074756  0.57819201  0.45506853  1
  Se  Se154  1  0.08206967  0.58066018  0.93925060  1
  Se  Se155  1  0.07604679  0.91699067  0.44089937  1
  Se  Se156  1  0.07506564  0.92903557  0.95784254  1
  Se  Se157  1  0.41792982  0.25508694  0.44667417  1
  Se  Se158  1  0.42389280  0.24524387  0.94883388  1
  Se  Se159  1  0.42248129  0.58084892  0.44766527  1
  Se  Se160  1  0.42340760  0.58110535  0.95534592  1
  Se  Se161  1  0.42311572  0.91409384  0.44962969  1
  Se  Se162  1  0.42185438  0.91274073  0.94917447  1
  Se  Se163  1  0.74660536  0.24929365  0.44646395  1
  Se  Se164  1  0.74062734  0.25985081  0.93987516  1
  Se  Se165  1  0.74077596  0.58754894  0.43943597  1
  Se  Se166  1  0.75157882  0.58045997  0.95245975  1
  Se  Se167  1  0.74198207  0.91608754  0.43273074  1
  Se  Se168  1  0.74795941  0.92253284  0.94318057  1
  Se  Se169  1  0.25110503  0.08477878  0.44734122  1
  Se  Se170  1  0.26017225  0.07428076  0.93476092  1
  Se  Se171  1  0.25305548  0.42258890  0.44476971  1
  Se  Se172  1  0.25279665  0.40660583  0.94736721  1
  Se  Se173  1  0.26327741  0.74190659  0.43588649  1
  Se  Se174  1  0.21972066  0.77212355  0.93809993  1
  Se  Se175  1  0.58128248  0.08545162  0.44673373  1
  Se  Se176  1  0.58697193  0.08428235  0.94196591  1
  Se  Se177  1  0.58382078  0.41915377  0.44259638  1
  Se  Se178  1  0.58179224  0.41752964  0.95128256  1
  Se  Se179  1  0.58521967  0.76180147  0.44434982  1
  Se  Se180  1  0.58437799  0.75196386  0.95005675  1
  Se  Se181  1  0.91399697  0.07699884  0.44821185  1
  Se  Se182  1  0.92704067  0.07555271  0.94710672  1
  Se  Se183  1  0.92240196  0.40540268  0.44260830  1
  Se  Se184  1  0.91115152  0.41983332  0.93923895  1
  Se  Se185  1  0.92346290  0.73757344  0.44713220  1
  Se  Se186  1  0.91910452  0.74621531  0.93758605  1
  Se  Se187  1  0.25016307  0.25669120  0.30538514  1
  Se  Se188  1  0.24011743  0.24403927  0.80015067  1
  Se  Se189  1  0.24705892  0.58094068  0.30886143  1
  Se  Se190  1  0.25302715  0.57814067  0.80630218  1
  Se  Se191  1  0.24466000  0.91569141  0.30871946  1
  Se  Se192  1  0.25376260  0.90709461  0.80889261  1
  Se  Se193  1  0.58617663  0.25252328  0.30555780  1
  Se  Se194  1  0.58471990  0.25334456  0.80317850  1
  Se  Se195  1  0.58063960  0.58016144  0.30485224  1
  Se  Se196  1  0.57974659  0.57795578  0.81619202  1
  Se  Se197  1  0.57870160  0.92482706  0.29527886  1
  Se  Se198  1  0.58610563  0.92076617  0.80045246  1
  Se  Se199  1  0.91298213  0.24071434  0.31762724  1
  Se  Se200  1  0.91694265  0.24977740  0.79757864  1
  Se  Se201  1  0.91346603  0.57539487  0.31022189  1
  Se  Se202  1  0.91339503  0.58273159  0.79927113  1
  Se  Se203  1  0.91450283  0.91876334  0.30125167  1
  Se  Se204  1  0.91893820  0.90727262  0.81832133  1
  Se  Se205  1  0.07731025  0.08635304  0.30713507  1
  Se  Se206  1  0.09158222  0.08451778  0.80764349  1
  Se  Se207  1  0.09020264  0.42500252  0.30974969  1
  Se  Se208  1  0.07816635  0.41307071  0.79981789  1
  Se  Se209  1  0.08863490  0.75751453  0.30726113  1
  Se  Se210  1  0.07972549  0.74553014  0.80132533  1
  Se  Se211  1  0.41883236  0.08857340  0.31469394  1
  Se  Se212  1  0.42429123  0.09123178  0.80956045  1
  Se  Se213  1  0.41523477  0.41163563  0.30126010  1
  Se  Se214  1  0.41820198  0.42633956  0.82024727  1
  Se  Se215  1  0.42988792  0.75192626  0.30813328  1
  Se  Se216  1  0.41965595  0.74883148  0.80831790  1
  Se  Se217  1  0.74292740  0.08034268  0.30418250  1
  Se  Se218  1  0.75202395  0.08177148  0.79852625  1
  Se  Se219  1  0.76162252  0.42191224  0.29792037  1
  Se  Se220  1  0.74310957  0.41561241  0.80243850  1
  Se  Se221  1  0.74711463  0.74604701  0.29850662  1
  Se  Se222  1  0.75470310  0.75607916  0.81310106  1
  Se  Se223  1  0.24095482  0.09501837  0.19282904  1
  Se  Se224  1  0.24381570  0.08839078  0.68632938  1
  Se  Se225  1  0.25508765  0.41512808  0.19432356  1
  Se  Se226  1  0.24246797  0.42263648  0.68951647  1
  Se  Se227  1  0.24342937  0.75648106  0.18861985  1
  Se  Se228  1  0.25706894  0.74020222  0.70233327  1
  Se  Se229  1  0.57768906  0.08347840  0.19728872  1
  Se  Se230  1  0.59017912  0.07984951  0.69339568  1
  Se  Se231  1  0.58767017  0.41139511  0.19724464  1
  Se  Se232  1  0.57445557  0.41665207  0.70175189  1
  Se  Se233  1  0.58197491  0.73484565  0.19646831  1
  Se  Se234  1  0.57866393  0.75515871  0.68946391  1
  Se  Se235  1  0.91574754  0.08236044  0.20113031  1
  Se  Se236  1  0.91714461  0.09469874  0.68286115  1
  Se  Se237  1  0.91989115  0.42795848  0.18921192  1
  Se  Se238  1  0.91361057  0.41255949  0.69530923  1
  Se  Se239  1  0.90305578  0.75870977  0.18564688  1
  Se  Se240  1  0.91986222  0.74778282  0.70280783  1
  Se  Se241  1  0.08957692  0.24844880  0.19078461  1
  Se  Se242  1  0.07498560  0.25077336  0.68553053  1
  Se  Se243  1  0.09352706  0.58291100  0.18878354  1
  Se  Se244  1  0.07810971  0.58492483  0.69956384  1
  Se  Se245  1  0.07912483  0.92482141  0.19859431  1
  Se  Se246  1  0.09341208  0.90934284  0.69396210  1
  Se  Se247  1  0.41648257  0.25012355  0.19962790  1
  Se  Se248  1  0.42158144  0.24188381  0.69222569  1
  Se  Se249  1  0.42350410  0.57208066  0.18661872  1
  Se  Se250  1  0.41529975  0.58808949  0.69950966  1
  Se  Se251  1  0.42438980  0.90467083  0.19016706  1
  Se  Se252  1  0.42589456  0.91031623  0.68634679  1
  Se  Se253  1  0.75329239  0.25103532  0.20297584  1
  Se  Se254  1  0.74453472  0.25290590  0.69349635  1
  Se  Se255  1  0.75328257  0.57754861  0.20231399  1
  Se  Se256  1  0.75131689  0.57474483  0.68758837  1
  Se  Se257  1  0.74012570  0.92202112  0.20087646  1
  Se  Se258  1  0.75674715  0.91653583  0.69805018  1
