# generated using pymatgen
data_In86Cu29Se144
_symmetry_space_group_name_H-M   'P 1'
_cell_length_a   17.59809509
_cell_length_b   17.60806305
_cell_length_c   23.47366969
_cell_angle_alpha   89.98548670
_cell_angle_beta   90.00607130
_cell_angle_gamma   89.99409603
_symmetry_Int_Tables_number   1
_chemical_formula_structural   In86Cu29Se144
_chemical_formula_sum   'In86 Cu29 Se144'
_cell_volume   7273.74740081
_cell_formula_units_Z   1
loop_
 _symmetry_equiv_pos_site_id
 _symmetry_equiv_pos_as_xyz
  1  'x, y, z'
loop_
 _atom_site_type_symbol
 _atom_site_label
 _atom_site_symmetry_multiplicity
 _atom_site_fract_x
 _atom_site_fract_y
 _atom_site_fract_z
 _atom_site_occupancy
  In  In0  1  -0.00776730  0.16460184  0.12618372  1
  In  In1  1  0.00556089  0.17323112  0.61729619  1
  In  In2  1  0.00035668  0.50540327  0.11968183  1
  In  In3  1  0.01496487  0.49770230  0.62727092  1
  In  In4  1  0.00624192  0.83811216  0.12636162  1
  In  In5  1  -0.00879023  0.83304303  0.62369690  1
  In  In6  1  0.33517965  0.17533619  0.13146442  1
  In  In7  1  0.33469000  0.17138248  0.62660783  1
  In  In8  1  0.33813583  0.47189142  0.12209699  1
  In  In9  1  0.34611866  0.49201914  0.61903651  1
  In  In10  1  0.34766877  0.84371799  0.12184547  1
  In  In11  1  0.34473758  0.82118015  0.63261732  1
  In  In12  1  0.65833895  0.15436983  0.12476727  1
  In  In13  1  0.66919616  0.17030819  0.62671586  1
  In  In14  1  0.65205210  0.49342482  0.10650639  1
  In  In15  1  0.65454937  0.50923824  0.63151826  1
  In  In16  1  0.66921332  0.83971902  0.12336081  1
  In  In17  1  0.65846852  0.82683416  0.62035923  1
  In  In18  1  0.19611760  0.02282189  0.35874093  1
  In  In19  1  0.18612714  0.00921895  0.87802224  1
  In  In20  1  0.17784474  0.32840668  0.38746843  1
  In  In21  1  0.17435480  0.31685581  0.87762312  1
  In  In22  1  0.16622480  0.66225493  0.38284212  1
  In  In23  1  0.16772200  0.66399992  0.86014308  1
  In  In24  1  0.49918507  0.00517951  0.38052904  1
  In  In25  1  0.47466335  -0.00023463  0.88080448  1
  In  In26  1  0.48461287  0.34100579  0.38876811  1
  In  In27  1  0.51127917  0.33344228  0.86087237  1
  In  In28  1  0.50085926  0.66477901  0.38570700  1
  In  In29  1  0.50426368  0.66581826  0.87609244  1
  In  In30  1  0.82846242  0.00098855  0.37510862  1
  In  In31  1  0.84310565  0.00284509  0.87970505  1
  In  In32  1  0.81322365  0.32699240  0.37427764  1
  In  In33  1  0.82515817  0.34415262  0.88285875  1
  In  In34  1  0.84531379  0.67434178  0.37795245  1
  In  In35  1  0.81267120  0.64437366  0.85643400  1
  In  In36  1  0.01057255  0.15506686  0.37917692  1
  In  In37  1  0.00340241  0.16393609  0.88481602  1
  In  In38  1  0.00758286  0.51072586  0.37874577  1
  In  In39  1  -0.01131049  0.49586582  0.87115885  1
  In  In40  1  -0.01203470  0.83760227  0.37879035  1
  In  In41  1  0.01142056  0.83195681  0.87359362  1
  In  In42  1  0.33642440  0.17314724  0.39081520  1
  In  In43  1  0.33526940  0.16242356  0.86597186  1
  In  In44  1  0.33285768  0.49279309  0.38345591  1
  In  In45  1  0.34215463  0.50016341  0.86874087  1
  In  In46  1  0.33890615  0.85018312  0.37632351  1
  In  In47  1  0.34617856  0.84074584  0.86649965  1
  In  In48  1  0.67185730  0.15890502  0.38481039  1
  In  In49  1  0.65962324  0.18041993  0.87369239  1
  In  In50  1  0.65731335  0.48776008  0.37584963  1
  In  In51  1  0.66565426  0.49998585  0.87395039  1
  In  In52  1  0.65252317  0.84698157  0.38564752  1
  In  In53  1  0.65774126  0.81591186  0.87420116  1
  In  In54  1  0.16073999  0.01088123  0.13598290  1
  In  In55  1  0.18027076  0.01814827  0.61890025  1
  In  In56  1  0.20359979  0.32585066  0.13533749  1
  In  In57  1  0.19864255  0.35324557  0.59424366  1
  In  In58  1  0.15977279  0.66279823  0.12267421  1
  In  In59  1  0.18513359  0.65449170  0.63623528  1
  In  In60  1  0.50992638  0.00586115  0.13560235  1
  In  In61  1  0.49173650  -0.00288972  0.62230634  1
  In  In62  1  0.47680502  0.33122653  0.11690200  1
  In  In63  1  0.49398756  0.33296194  0.62500390  1
  In  In64  1  0.49905949  0.66458756  0.10725932  1
  In  In65  1  0.50218744  0.66446491  0.62516742  1
  In  In66  1  0.82081535  0.00871700  0.13252921  1
  In  In67  1  0.84204789  0.00371761  0.61691017  1
  In  In68  1  0.82884323  0.33210763  0.11704303  1
  In  In69  1  0.82939812  0.31940472  0.62302643  1
  In  In70  1  0.83803858  0.66376985  0.11586833  1
  In  In71  1  0.82269392  0.67224749  0.63295247  1
  In  In72  1  0.83140093  0.50011448  0.49654921  1
  In  In73  1  0.33144258  0.66950358  0.24646016  1
  In  In74  1  0.17024350  0.83805291  0.00208951  1
  In  In75  1  0.49921644  0.16712163  -0.00128609  1
  In  In76  1  0.00020686  0.66889741  0.24308243  1
  In  In77  1  0.66228099  -0.00127337  0.74357403  1
  In  In78  1  0.00597307  0.33069478  0.74989179  1
  In  In79  1  0.16937349  0.49201133  0.00189284  1
  In  In80  1  0.16321416  0.83559634  0.49671690  1
  In  In81  1  0.00755614  -0.00066074  0.74222573  1
  In  In82  1  0.83128052  0.82930720  -0.00419933  1
  In  In83  1  0.64660078  0.31759243  0.24957776  1
  In  In84  1  0.66882509  0.67255173  0.24545376  1
  In  In85  1  0.00690907  0.33099402  0.26076623  1
  Cu  Cu86  1  0.33026096  0.66636528  -0.00801677  1
  Cu  Cu87  1  0.00152036  0.66680195  0.50574573  1
  Cu  Cu88  1  0.82501464  0.84468456  0.25375403  1
  Cu  Cu89  1  0.00455188  0.33001622  0.00304110  1
  Cu  Cu90  1  0.49960035  0.49943388  0.74904842  1
  Cu  Cu91  1  0.33708473  0.00117575  0.49948690  1
  Cu  Cu92  1  0.16282112  0.83704697  0.24993021  1
  Cu  Cu93  1  0.65859784  0.33180896  0.50261563  1
  Cu  Cu94  1  0.83183563  0.15792014  0.25197591  1
  Cu  Cu95  1  0.49302273  0.49839720  0.25059955  1
  Cu  Cu96  1  0.17559221  0.49519495  0.74466783  1
  Cu  Cu97  1  -0.00958370  0.65880335  -0.01022118  1
  Cu  Cu98  1  0.66308579  -0.00269154  0.00551215  1
  Cu  Cu99  1  0.17305291  0.17151134  0.25653379  1
  Cu  Cu100  1  0.83043708  0.49824106  0.24041767  1
  Cu  Cu101  1  -0.00148579  0.00850359  0.00702721  1
  Cu  Cu102  1  0.33899171  0.66413559  0.50801579  1
  Cu  Cu103  1  -0.00148013  -0.00426942  0.49278377  1
  Cu  Cu104  1  0.17506996  0.16897742  0.74515236  1
  Cu  Cu105  1  0.83123679  0.49566129  0.75127094  1
  Cu  Cu106  1  0.83429978  0.82621291  0.74714857  1
  Cu  Cu107  1  0.82892189  0.17351687  0.75331973  1
  Cu  Cu108  1  0.17021876  0.83335305  0.75067627  1
  Cu  Cu109  1  0.66673867  0.66699725  0.50636651  1
  Cu  Cu110  1  -0.00403902  0.32726319  0.49730120  1
  Cu  Cu111  1  0.50408946  0.82714542  0.74872607  1
  Cu  Cu112  1  0.66843196  0.00203977  0.50378257  1
  Cu  Cu113  1  0.66943415  0.33545118  -0.00681109  1
  Cu  Cu114  1  0.50087675  0.84116834  0.25283043  1
  Se  Se115  1  0.08455975  0.08791631  0.06004429  1
  Se  Se116  1  0.07650575  0.07492678  0.55352245  1
  Se  Se117  1  0.08536750  0.40288338  0.06753774  1
  Se  Se118  1  0.07618448  0.41335983  0.55005139  1
  Se  Se119  1  0.06884167  0.74087529  0.05076357  1
  Se  Se120  1  0.08793286  0.74231114  0.56494101  1
  Se  Se121  1  0.41617237  0.08022925  0.06415212  1
  Se  Se122  1  0.41525482  0.08683073  0.55523744  1
  Se  Se123  1  0.43380982  0.43379765  0.04557593  1
  Se  Se124  1  0.40186184  0.39238507  0.54785397  1
  Se  Se125  1  0.40822234  0.75159464  0.04912672  1
  Se  Se126  1  0.42302410  0.75159572  0.55503554  1
  Se  Se127  1  0.74768492  0.08356910  0.05386713  1
  Se  Se128  1  0.75093218  0.08685589  0.55695179  1
  Se  Se129  1  0.75262583  0.41821436  0.04811178  1
  Se  Se130  1  0.74289388  0.41471582  0.56042283  1
  Se  Se131  1  0.73903676  0.74095992  0.05452622  1
  Se  Se132  1  0.75330365  0.75061657  0.55485039  1
  Se  Se133  1  0.26485531  0.25439756  0.05337094  1
  Se  Se134  1  0.22319077  0.21765203  0.56085442  1
  Se  Se135  1  0.25841349  0.58787035  0.05994265  1
  Se  Se136  1  0.25420960  0.58002473  0.55726202  1
  Se  Se137  1  0.25142420  0.93084077  0.06309929  1
  Se  Se138  1  0.25969438  0.91486900  0.55961648  1
  Se  Se139  1  0.59047652  0.25946231  0.05918828  1
  Se  Se140  1  0.58091655  0.24791847  0.55884304  1
  Se  Se141  1  0.58969270  0.59195301  0.04191227  1
  Se  Se142  1  0.58078852  0.58046767  0.55238525  1
  Se  Se143  1  0.57850768  0.91923811  0.05980129  1
  Se  Se144  1  0.58309275  0.91922104  0.55613089  1
  Se  Se145  1  0.91617196  0.24813021  0.05414060  1
  Se  Se146  1  0.91194296  0.24579277  0.55032798  1
  Se  Se147  1  0.91359461  0.57590130  0.04737678  1
  Se  Se148  1  0.91833914  0.58491603  0.56311653  1
  Se  Se149  1  0.91705334  0.92085639  0.05992174  1
  Se  Se150  1  0.91828562  0.91363286  0.54938164  1
  Se  Se151  1  0.08316086  0.24564610  0.44680052  1
  Se  Se152  1  0.08808656  0.24723271  0.95039947  1
  Se  Se153  1  0.08581194  0.58334721  0.45468196  1
  Se  Se154  1  0.08328568  0.58419221  0.93688304  1
  Se  Se155  1  0.08796496  0.92848580  0.43014657  1
  Se  Se156  1  0.07699255  0.93062191  0.94319495  1
  Se  Se157  1  0.39832630  0.27034123  0.46183985  1
  Se  Se158  1  0.41945584  0.25560531  0.93268042  1
  Se  Se159  1  0.41669483  0.57984682  0.44923418  1
  Se  Se160  1  0.41523297  0.58243109  0.94228157  1
  Se  Se161  1  0.42285113  0.91495478  0.45163160  1
  Se  Se162  1  0.40084020  0.91646423  0.95097258  1
  Se  Se163  1  0.74795649  0.25027250  0.45330061  1
  Se  Se164  1  0.75101416  0.24536577  0.94540638  1
  Se  Se165  1  0.74083149  0.59192188  0.43598176  1
  Se  Se166  1  0.75428591  0.57867707  0.94167746  1
  Se  Se167  1  0.75092515  0.91806577  0.44855996  1
  Se  Se168  1  0.74037105  0.92201178  0.93814893  1
  Se  Se169  1  0.24643884  0.08190290  0.45145093  1
  Se  Se170  1  0.25004311  0.10245031  0.94521646  1
  Se  Se171  1  0.24018609  0.42700939  0.45432795  1
  Se  Se172  1  0.26064220  0.40946867  0.94012378  1
  Se  Se173  1  0.26392059  0.74550027  0.44258351  1
  Se  Se174  1  0.24818416  0.74613585  0.93522449  1
  Se  Se175  1  0.58150050  0.08483403  0.45294361  1
  Se  Se176  1  0.58831088  0.07410679  0.93776189  1
  Se  Se177  1  0.57864315  0.42096812  0.45251142  1
  Se  Se178  1  0.58175558  0.41223334  0.93907051  1
  Se  Se179  1  0.58330538  0.74983215  0.45107612  1
  Se  Se180  1  0.57120871  0.75654762  0.94878712  1
  Se  Se181  1  0.91395294  0.08321099  0.44363492  1
  Se  Se182  1  0.91307150  0.08760673  0.95231163  1
  Se  Se183  1  0.91923789  0.40815149  0.43429112  1
  Se  Se184  1  0.92327912  0.41376888  0.94829450  1
  Se  Se185  1  0.91937246  0.75148784  0.45331701  1
  Se  Se186  1  0.91628712  0.74296929  0.92982949  1
  Se  Se187  1  0.25463332  0.25053806  0.31401444  1
  Se  Se188  1  0.25552578  0.25364771  0.79917506  1
  Se  Se189  1  0.24724635  0.58182372  0.31085123  1
  Se  Se190  1  0.25650300  0.58028936  0.79917779  1
  Se  Se191  1  0.25607753  0.91377384  0.29871998  1
  Se  Se192  1  0.24899137  0.91861522  0.80533752  1
  Se  Se193  1  0.56975028  0.24442857  0.32614828  1
  Se  Se194  1  0.58592982  0.24304397  0.79347258  1
  Se  Se195  1  0.57732201  0.57966764  0.30587119  1
  Se  Se196  1  0.58270421  0.58207126  0.80419181  1
  Se  Se197  1  0.58210871  0.92324789  0.30815978  1
  Se  Se198  1  0.57698918  0.91326163  0.81043587  1
  Se  Se199  1  0.90674370  0.24176098  0.31249002  1
  Se  Se200  1  0.91484162  0.24658028  0.81393032  1
  Se  Se201  1  0.90777119  0.57568954  0.30381956  1
  Se  Se202  1  0.92079404  0.58107127  0.79686725  1
  Se  Se203  1  0.91582395  0.92021786  0.30543277  1
  Se  Se204  1  0.91305806  0.91120868  0.80450880  1
  Se  Se205  1  0.08480938  0.08324327  0.30028478  1
  Se  Se206  1  0.08991752  0.09196480  0.80575720  1
  Se  Se207  1  0.09504838  0.42468889  0.31548839  1
  Se  Se208  1  0.09590522  0.42076761  0.81127337  1
  Se  Se209  1  0.08773192  0.75406712  0.31085756  1
  Se  Se210  1  0.08074663  0.75127352  0.79804824  1
  Se  Se211  1  0.39596993  0.07434329  0.32187988  1
  Se  Se212  1  0.42160303  0.08105056  0.80032908  1
  Se  Se213  1  0.41455505  0.41845823  0.30894815  1
  Se  Se214  1  0.41619685  0.41282913  0.79842921  1
  Se  Se215  1  0.42463403  0.75358473  0.31021163  1
  Se  Se216  1  0.41985718  0.74522637  0.80364684  1
  Se  Se217  1  0.74290384  0.08225164  0.30610283  1
  Se  Se218  1  0.75583520  0.08284479  0.80918534  1
  Se  Se219  1  0.74729519  0.42024344  0.29889188  1
  Se  Se220  1  0.74815722  0.41297152  0.80466504  1
  Se  Se221  1  0.75217155  0.75806712  0.31385463  1
  Se  Se222  1  0.74413176  0.75012458  0.79902947  1
  Se  Se223  1  0.25383092  0.08851497  0.19940334  1
  Se  Se224  1  0.25907317  0.07977014  0.69878143  1
  Se  Se225  1  0.24974324  0.43099448  0.20262462  1
  Se  Se226  1  0.25260479  0.41371842  0.68599079  1
  Se  Se227  1  0.23943587  0.76057231  0.18518790  1
  Se  Se228  1  0.25694041  0.74759563  0.70278931  1
  Se  Se229  1  0.57987924  0.09716966  0.20476870  1
  Se  Se230  1  0.57109608  0.09113722  0.69065849  1
  Se  Se231  1  0.57471646  0.42203021  0.18878888  1
  Se  Se232  1  0.58043497  0.41417731  0.69427446  1
  Se  Se233  1  0.57067782  0.75586760  0.18865214  1
  Se  Se234  1  0.58791488  0.74481856  0.69542350  1
  Se  Se235  1  0.91794703  0.07905974  0.19787476  1
  Se  Se236  1  0.91211872  0.09622843  0.69306747  1
  Se  Se237  1  0.91727363  0.41547825  0.19060193  1
  Se  Se238  1  0.91116162  0.41798017  0.68838404  1
  Se  Se239  1  0.90114811  0.76171681  0.19111212  1
  Se  Se240  1  0.92172994  0.74600793  0.69583808  1
  Se  Se241  1  0.09212544  0.24721699  0.19261706  1
  Se  Se242  1  0.09558135  0.25006356  0.68581242  1
  Se  Se243  1  0.09382687  0.56954177  0.19607677  1
  Se  Se244  1  0.08644101  0.58157661  0.70000228  1
  Se  Se245  1  0.07683505  0.91988488  0.19968019  1
  Se  Se246  1  0.09858779  0.91115283  0.68259793  1
  Se  Se247  1  0.42572454  0.25134842  0.19831730  1
  Se  Se248  1  0.40327933  0.26326839  0.69578133  1
  Se  Se249  1  0.42248594  0.58163427  0.18588424  1
  Se  Se250  1  0.41773875  0.57949050  0.69086550  1
  Se  Se251  1  0.41684396  0.92241093  0.19882260  1
  Se  Se252  1  0.42072235  0.91375545  0.69793258  1
  Se  Se253  1  0.75557535  0.24391998  0.19263902  1
  Se  Se254  1  0.74593672  0.25470905  0.69989799  1
  Se  Se255  1  0.74902071  0.57616284  0.18224580  1
  Se  Se256  1  0.74754635  0.58130039  0.69912323  1
  Se  Se257  1  0.73896302  0.92182726  0.19871340  1
  Se  Se258  1  0.76046459  0.91221432  0.68645953  1
