# generated using pymatgen
data_In86Cu29Se144
_symmetry_space_group_name_H-M   'P 1'
_cell_length_a   17.57274916
_cell_length_b   17.57106763
_cell_length_c   23.43419191
_cell_angle_alpha   89.98472385
_cell_angle_beta   89.98513802
_cell_angle_gamma   89.97957925
_symmetry_Int_Tables_number   1
_chemical_formula_structural   In86Cu29Se144
_chemical_formula_sum   'In86 Cu29 Se144'
_cell_volume   7235.82050112
_cell_formula_units_Z   1
loop_
 _symmetry_equiv_pos_site_id
 _symmetry_equiv_pos_as_xyz
  1  'x, y, z'
loop_
 _atom_site_type_symbol
 _atom_site_label
 _atom_site_symmetry_multiplicity
 _atom_site_fract_x
 _atom_site_fract_y
 _atom_site_fract_z
 _atom_site_occupancy
  In  In0  1  0.00810710  0.17052518  0.11703757  1
  In  In1  1  0.00147494  0.18342048  0.62418894  1
  In  In2  1  -0.00838188  0.49922061  0.12776955  1
  In  In3  1  -0.00528126  0.50508544  0.63385987  1
  In  In4  1  -0.00625763  0.83940489  0.12665907  1
  In  In5  1  -0.00499674  0.82334816  0.62464721  1
  In  In6  1  0.32618436  0.17591396  0.13524918  1
  In  In7  1  0.34124101  0.16802009  0.62087392  1
  In  In8  1  0.33576927  0.49640582  0.13116321  1
  In  In9  1  0.33308552  0.48572966  0.62279362  1
  In  In10  1  0.33257909  0.82843980  0.14159736  1
  In  In11  1  0.33453609  0.84776844  0.60429269  1
  In  In12  1  0.67210671  0.15936661  0.12925153  1
  In  In13  1  0.66521226  0.16764749  0.62495963  1
  In  In14  1  0.65130867  0.50065361  0.12208400  1
  In  In15  1  0.66006080  0.50657437  0.63070063  1
  In  In16  1  0.67615662  0.83913653  0.12641872  1
  In  In17  1  0.66401873  0.84048310  0.63520856  1
  In  In18  1  0.17077206  -0.01817172  0.38407712  1
  In  In19  1  0.17255362  0.00570635  0.87937392  1
  In  In20  1  0.16938731  0.33611264  0.36616255  1
  In  In21  1  0.15856217  0.31939898  0.86154982  1
  In  In22  1  0.19240770  0.69375599  0.34415702  1
  In  In23  1  0.16451177  0.67379745  0.87687398  1
  In  In24  1  0.49926827  -0.00096030  0.37305420  1
  In  In25  1  0.50493904  -0.01375485  0.87198488  1
  In  In26  1  0.50247450  0.32952869  0.37845524  1
  In  In27  1  0.50781720  0.33710674  0.86897316  1
  In  In28  1  0.49042258  0.67795795  0.38535912  1
  In  In29  1  0.50294127  0.65030601  0.88009030  1
  In  In30  1  0.84398739  0.01937471  0.37926037  1
  In  In31  1  0.82974393  0.00805276  0.87859812  1
  In  In32  1  0.82541804  0.32538093  0.36910049  1
  In  In33  1  0.82670545  0.32585114  0.87161805  1
  In  In34  1  0.83740934  0.65994108  0.37235955  1
  In  In35  1  0.84408496  0.68110934  0.86463791  1
  In  In36  1  -0.01569545  0.16033084  0.37868937  1
  In  In37  1  -0.00290267  0.16652783  0.87820773  1
  In  In38  1  0.00878743  0.50736222  0.36522370  1
  In  In39  1  0.00639349  0.50294904  0.87163651  1
  In  In40  1  0.03483195  0.83787569  0.37070282  1
  In  In41  1  -0.00773724  0.81385156  0.87003876  1
  In  In42  1  0.34293257  0.17586123  0.37048234  1
  In  In43  1  0.32098992  0.17073887  0.87576996  1
  In  In44  1  0.34059095  0.50541025  0.37158072  1
  In  In45  1  0.35158602  0.49448439  0.88346435  1
  In  In46  1  0.33638293  0.83523029  0.37471854  1
  In  In47  1  0.32759286  0.83388364  0.87715889  1
  In  In48  1  0.66650659  0.16310100  0.37660912  1
  In  In49  1  0.67765895  0.17675854  0.86591331  1
  In  In50  1  0.66671855  0.48353209  0.37507532  1
  In  In51  1  0.65883403  0.49213061  0.86924432  1
  In  In52  1  0.64993327  0.83532127  0.37686859  1
  In  In53  1  0.68627527  0.84898364  0.85524184  1
  In  In54  1  0.15942062  0.01023020  0.13037403  1
  In  In55  1  0.18544454  0.00106931  0.61548327  1
  In  In56  1  0.16901931  0.32501721  0.12929012  1
  In  In57  1  0.16269061  0.32843629  0.63921281  1
  In  In58  1  0.16369278  0.67027523  0.13474756  1
  In  In59  1  0.15635898  0.67608059  0.62513607  1
  In  In60  1  0.49971597  -0.00213768  0.14050411  1
  In  In61  1  0.50717385  0.00959589  0.61408349  1
  In  In62  1  0.49255198  0.34345682  0.13328673  1
  In  In63  1  0.50328551  0.33194378  0.62272361  1
  In  In64  1  0.49685462  0.65305628  0.12388950  1
  In  In65  1  0.50175372  0.67432963  0.61584257  1
  In  In66  1  0.82766265  -0.00164139  0.12032802  1
  In  In67  1  0.81490132  -0.00660695  0.62759967  1
  In  In68  1  0.84115537  0.32151952  0.12759953  1
  In  In69  1  0.83725815  0.32639189  0.63120927  1
  In  In70  1  0.83096817  0.68226088  0.11919473  1
  In  In71  1  0.83734125  0.67424260  0.64057191  1
  In  In72  1  0.66590778  0.66464618  0.24645160  1
  In  In73  1  0.50392954  0.16697531  0.00326699  1
  In  In74  1  0.16423104  0.50598282  0.50257289  1
  In  In75  1  0.50518414  0.82645474  0.00709457  1
  In  In76  1  0.34155479  0.01174578  0.73630157  1
  In  In77  1  0.16925155  0.50108028  -0.00194148  1
  In  In78  1  0.00177094  0.00262928  0.75027907  1
  In  In79  1  0.33331590  0.66641531  0.75484645  1
  In  In80  1  0.16441786  0.83585712  0.00064175  1
  In  In81  1  0.82912561  0.50318258  -0.00358077  1
  In  In82  1  0.16600528  0.16350508  0.49334956  1
  In  In83  1  0.83277885  0.49768576  0.50748110  1
  In  In84  1  0.83286318  0.83639723  0.50404192  1
  In  In85  1  0.00273437  0.00053490  0.25485975  1
  Cu  Cu86  1  0.16945346  0.83641641  0.74655967  1
  Cu  Cu87  1  0.66428492  0.33479999  -0.00529604  1
  Cu  Cu88  1  -0.00784488  0.33877682  0.50058250  1
  Cu  Cu89  1  0.83215333  0.49519809  0.75543761  1
  Cu  Cu90  1  0.83456866  0.49343358  0.24818077  1
  Cu  Cu91  1  0.82988878  0.16482955  0.75103060  1
  Cu  Cu92  1  0.33922594  0.33063265  0.49851294  1
  Cu  Cu93  1  0.66543542  0.67119197  -0.00500622  1
  Cu  Cu94  1  0.50652194  0.16899736  0.25431739  1
  Cu  Cu95  1  0.00224655  0.32730151  -0.00227318  1
  Cu  Cu96  1  0.66204482  0.32274039  0.49866806  1
  Cu  Cu97  1  0.66166512  0.00150267  0.50015761  1
  Cu  Cu98  1  0.50104710  0.16633634  0.74326598  1
  Cu  Cu99  1  0.83409142  0.83882761  0.24794093  1
  Cu  Cu100  1  0.33138561  0.66802613  0.49133727  1
  Cu  Cu101  1  0.00576651  0.67472336  0.49590113  1
  Cu  Cu102  1  0.67432379  0.00555988  -0.00342333  1
  Cu  Cu103  1  0.16910758  0.16636327  0.25178776  1
  Cu  Cu104  1  0.49808706  0.49624771  0.74899224  1
  Cu  Cu105  1  0.50871993  0.82860659  0.74556161  1
  Cu  Cu106  1  0.83267845  0.16793094  0.25100510  1
  Cu  Cu107  1  0.50116801  0.49771099  0.25406459  1
  Cu  Cu108  1  0.16671041  0.49871286  0.74969299  1
  Cu  Cu109  1  0.32956444  0.00532011  0.00645134  1
  Cu  Cu110  1  -0.00571989  -0.00122562  0.00055485  1
  Cu  Cu111  1  0.66143158  0.66281266  0.50540731  1
  Cu  Cu112  1  0.16365544  0.49218429  0.24407070  1
  Cu  Cu113  1  0.49603004  0.83317044  0.25645060  1
  Cu  Cu114  1  0.33264799  0.33339379  0.00825052  1
  Se  Se115  1  0.08470200  0.07873012  0.05038507  1
  Se  Se116  1  0.07859839  0.08283746  0.56130674  1
  Se  Se117  1  0.07769806  0.41034028  0.05832411  1
  Se  Se118  1  0.07543453  0.41285414  0.56239886  1
  Se  Se119  1  0.07602460  0.74556782  0.05978388  1
  Se  Se120  1  0.08608777  0.75923404  0.55025143  1
  Se  Se121  1  0.41487727  0.07925992  0.06607675  1
  Se  Se122  1  0.39294370  0.06163265  0.55726224  1
  Se  Se123  1  0.41697916  0.41938252  0.05645148  1
  Se  Se124  1  0.42069609  0.41590341  0.55175374  1
  Se  Se125  1  0.40551241  0.74498893  0.06292305  1
  Se  Se126  1  0.41505402  0.75061105  0.54690594  1
  Se  Se127  1  0.75334786  0.09024032  0.05191664  1
  Se  Se128  1  0.74641096  0.08173270  0.55522079  1
  Se  Se129  1  0.74494758  0.41110342  0.05956624  1
  Se  Se130  1  0.73955987  0.40538087  0.56110282  1
  Se  Se131  1  0.74368626  0.75677271  0.04947736  1
  Se  Se132  1  0.74684416  0.74068961  0.56294576  1
  Se  Se133  1  0.24887614  0.24589969  0.05596407  1
  Se  Se134  1  0.24816578  0.26041569  0.55739491  1
  Se  Se135  1  0.25197287  0.58830939  0.06399027  1
  Se  Se136  1  0.25790421  0.59477072  0.56228571  1
  Se  Se137  1  0.25451710  0.91998164  0.06594095  1
  Se  Se138  1  0.23528398  0.91002326  0.53891354  1
  Se  Se139  1  0.58890833  0.25987172  0.06356771  1
  Se  Se140  1  0.57727640  0.24134409  0.55307895  1
  Se  Se141  1  0.58288599  0.58694489  0.04798960  1
  Se  Se142  1  0.57811346  0.57560504  0.55406761  1
  Se  Se143  1  0.58939015  0.93175630  0.05894103  1
  Se  Se144  1  0.58791102  0.91116267  0.55615211  1
  Se  Se145  1  0.91554464  0.24611680  0.05012905  1
  Se  Se146  1  0.91159170  0.25230530  0.55211054  1
  Se  Se147  1  0.92031058  0.59202957  0.05542249  1
  Se  Se148  1  0.92430095  0.59770717  0.55805886  1
  Se  Se149  1  0.91234406  0.91437488  0.05343133  1
  Se  Se150  1  0.92213114  0.92675034  0.56300672  1
  Se  Se151  1  0.07581971  0.26258006  0.43925124  1
  Se  Se152  1  0.08837747  0.24784319  0.94337862  1
  Se  Se153  1  0.08513591  0.59506031  0.43627654  1
  Se  Se154  1  0.07385678  0.59531693  0.94649843  1
  Se  Se155  1  0.05912477  0.93740614  0.44790749  1
  Se  Se156  1  0.07278402  0.92024815  0.93614122  1
  Se  Se157  1  0.42205959  0.24431477  0.44915045  1
  Se  Se158  1  0.41321383  0.25553933  0.94325854  1
  Se  Se159  1  0.41774996  0.57840085  0.44852799  1
  Se  Se160  1  0.41102876  0.59094841  0.95219867  1
  Se  Se161  1  0.43485701  0.90076645  0.44018320  1
  Se  Se162  1  0.40943931  0.92281125  0.94849638  1
  Se  Se163  1  0.75232669  0.24698269  0.44527540  1
  Se  Se164  1  0.74899017  0.24833453  0.94706508  1
  Se  Se165  1  0.74250409  0.58722626  0.44341278  1
  Se  Se166  1  0.74210866  0.58949744  0.93335513  1
  Se  Se167  1  0.74423246  0.92313961  0.43914167  1
  Se  Se168  1  0.74909416  0.91490126  0.94275610  1
  Se  Se169  1  0.26254686  0.07860365  0.43759700  1
  Se  Se170  1  0.24939155  0.08764402  0.95115861  1
  Se  Se171  1  0.25359443  0.41249161  0.44309853  1
  Se  Se172  1  0.25303518  0.40464561  0.93991383  1
  Se  Se173  1  0.24536730  0.74811618  0.43843990  1
  Se  Se174  1  0.26115645  0.73992687  0.94873967  1
  Se  Se175  1  0.57935921  0.08349571  0.44465140  1
  Se  Se176  1  0.58862947  0.07949316  0.93677224  1
  Se  Se177  1  0.58305436  0.41477413  0.44940706  1
  Se  Se178  1  0.57829660  0.41847916  0.94583425  1
  Se  Se179  1  0.58328544  0.75112527  0.45257584  1
  Se  Se180  1  0.59007935  0.75501315  0.93256642  1
  Se  Se181  1  0.91440074  0.08998496  0.45920622  1
  Se  Se182  1  0.91412951  0.08629785  0.94815665  1
  Se  Se183  1  0.91938872  0.41932013  0.43610445  1
  Se  Se184  1  0.92307691  0.41030016  0.93960951  1
  Se  Se185  1  0.92027984  0.75148867  0.43695379  1
  Se  Se186  1  0.91120844  0.75044902  0.94736496  1
  Se  Se187  1  0.25442810  0.25223957  0.30141751  1
  Se  Se188  1  0.26120487  0.25482564  0.79894631  1
  Se  Se189  1  0.24889484  0.57153274  0.29964125  1
  Se  Se190  1  0.24596179  0.57309504  0.81539644  1
  Se  Se191  1  0.23851599  0.90391121  0.30770364  1
  Se  Se192  1  0.25131950  0.91921790  0.80310110  1
  Se  Se193  1  0.58915608  0.25239756  0.30791254  1
  Se  Se194  1  0.58328244  0.24905632  0.80021665  1
  Se  Se195  1  0.57961389  0.58182923  0.31419573  1
  Se  Se196  1  0.57988549  0.58168598  0.80129376  1
  Se  Se197  1  0.58525202  0.91889164  0.30056497  1
  Se  Se198  1  0.58586025  0.92230738  0.79397266  1
  Se  Se199  1  0.91947725  0.24820493  0.30409582  1
  Se  Se200  1  0.91546379  0.24503915  0.80584786  1
  Se  Se201  1  0.91415223  0.58208438  0.29918060  1
  Se  Se202  1  0.91836108  0.58070843  0.80430572  1
  Se  Se203  1  0.91265654  0.91012683  0.31573162  1
  Se  Se204  1  0.91258505  0.91429589  0.81034336  1
  Se  Se205  1  0.09258941  0.08920186  0.31673108  1
  Se  Se206  1  0.09522220  0.09110910  0.80791707  1
  Se  Se207  1  0.07891978  0.41148645  0.29910762  1
  Se  Se208  1  0.08022542  0.41619823  0.80128571  1
  Se  Se209  1  0.06157082  0.72880249  0.30211480  1
  Se  Se210  1  0.09056035  0.75048544  0.80073697  1
  Se  Se211  1  0.41910705  0.08481885  0.30322422  1
  Se  Se212  1  0.42568787  0.08962222  0.81166739  1
  Se  Se213  1  0.41920900  0.41236476  0.30803527  1
  Se  Se214  1  0.41486745  0.41479820  0.80343758  1
  Se  Se215  1  0.41474727  0.74370860  0.30485775  1
  Se  Se216  1  0.42647832  0.75933630  0.81189008  1
  Se  Se217  1  0.75362834  0.08237575  0.30609679  1
  Se  Se218  1  0.74748499  0.07765543  0.80164033  1
  Se  Se219  1  0.74800473  0.41328155  0.30000329  1
  Se  Se220  1  0.74572226  0.41014246  0.80338225  1
  Se  Se221  1  0.75281156  0.75713093  0.30924268  1
  Se  Se222  1  0.73627140  0.73303586  0.80080922  1
  Se  Se223  1  0.25074692  0.08028144  0.19963390  1
  Se  Se224  1  0.23820802  0.10022664  0.69067346  1
  Se  Se225  1  0.25240941  0.40928257  0.19576304  1
  Se  Se226  1  0.25200949  0.41621523  0.69841419  1
  Se  Se227  1  0.24686759  0.74595963  0.20576620  1
  Se  Se228  1  0.25564799  0.76023579  0.68748637  1
  Se  Se229  1  0.58822923  0.08323799  0.20113429  1
  Se  Se230  1  0.58357442  0.07937170  0.69313189  1
  Se  Se231  1  0.58702075  0.41791544  0.19988801  1
  Se  Se232  1  0.58305560  0.41351292  0.69533410  1
  Se  Se233  1  0.57397991  0.75778046  0.18841911  1
  Se  Se234  1  0.58514360  0.73926327  0.69299327  1
  Se  Se235  1  0.91517641  0.08724809  0.18991503  1
  Se  Se236  1  0.90981015  0.08830102  0.68764637  1
  Se  Se237  1  0.91878797  0.40898388  0.19621874  1
  Se  Se238  1  0.91591817  0.41515062  0.69821759  1
  Se  Se239  1  0.91321732  0.75251834  0.19483653  1
  Se  Se240  1  0.93176371  0.74694833  0.70440085  1
  Se  Se241  1  0.08102827  0.24414010  0.19637545  1
  Se  Se242  1  0.07160842  0.25402527  0.70377414  1
  Se  Se243  1  0.07931471  0.57813692  0.19460938  1
  Se  Se244  1  0.08775662  0.58579953  0.69605816  1
  Se  Se245  1  0.09188270  0.90692439  0.19656279  1
  Se  Se246  1  0.09374343  0.91795428  0.68587582  1
  Se  Se247  1  0.42024227  0.25006574  0.19983535  1
  Se  Se248  1  0.41718114  0.25062537  0.69257689  1
  Se  Se249  1  0.41804815  0.58170130  0.20036357  1
  Se  Se250  1  0.41852839  0.57899101  0.68912478  1
  Se  Se251  1  0.41105739  0.91930966  0.20616747  1
  Se  Se252  1  0.42465188  0.90730842  0.68584434  1
  Se  Se253  1  0.74888690  0.25033491  0.19644501  1
  Se  Se254  1  0.74612567  0.24896058  0.69705391  1
  Se  Se255  1  0.75738778  0.57581756  0.18497460  1
  Se  Se256  1  0.75383575  0.57876794  0.69737397  1
  Se  Se257  1  0.74983003  0.92374092  0.19815794  1
  Se  Se258  1  0.76432476  0.89925435  0.70198975  1
