# generated using pymatgen
data_In86Cu29Se144
_symmetry_space_group_name_H-M   'P 1'
_cell_length_a   17.58162149
_cell_length_b   17.58718262
_cell_length_c   23.43990301
_cell_angle_alpha   90.00912257
_cell_angle_beta   89.99386848
_cell_angle_gamma   90.01173349
_symmetry_Int_Tables_number   1
_chemical_formula_structural   In86Cu29Se144
_chemical_formula_sum   'In86 Cu29 Se144'
_cell_volume   7247.87996795
_cell_formula_units_Z   1
loop_
 _symmetry_equiv_pos_site_id
 _symmetry_equiv_pos_as_xyz
  1  'x, y, z'
loop_
 _atom_site_type_symbol
 _atom_site_label
 _atom_site_symmetry_multiplicity
 _atom_site_fract_x
 _atom_site_fract_y
 _atom_site_fract_z
 _atom_site_occupancy
  In  In0  1  0.00097238  0.16637724  0.12050709  1
  In  In1  1  0.00125077  0.17101887  0.62105963  1
  In  In2  1  -0.02699287  0.52189921  0.15349528  1
  In  In3  1  -0.01118606  0.49489467  0.62351186  1
  In  In4  1  -0.03843962  0.85826925  0.16390909  1
  In  In5  1  -0.01005042  0.82884215  0.61121534  1
  In  In6  1  0.32666383  0.17538860  0.10873098  1
  In  In7  1  0.33191956  0.17553273  0.62558001  1
  In  In8  1  0.33834695  0.50415536  0.12394673  1
  In  In9  1  0.33976952  0.48351213  0.62526329  1
  In  In10  1  0.32412245  0.82378794  0.12898140  1
  In  In11  1  0.32172249  0.83997088  0.62431974  1
  In  In12  1  0.67085911  0.16328741  0.12252627  1
  In  In13  1  0.67762296  0.15622245  0.63415912  1
  In  In14  1  0.68999012  0.48770183  0.14867222  1
  In  In15  1  0.66090236  0.50927904  0.62492492  1
  In  In16  1  0.69225874  0.81896799  0.13944803  1
  In  In17  1  0.67547728  0.82972915  0.63173666  1
  In  In18  1  0.15233233  0.01168326  0.37924560  1
  In  In19  1  0.17449539  0.00627615  0.87233665  1
  In  In20  1  0.15513659  0.32957959  0.37226967  1
  In  In21  1  0.15857921  0.32444377  0.86965712  1
  In  In22  1  0.17307718  0.66414317  0.36514394  1
  In  In23  1  0.15931405  0.67606244  0.87939040  1
  In  In24  1  0.50591697  -0.01050505  0.37482438  1
  In  In25  1  0.51769163  0.00057305  0.87511269  1
  In  In26  1  0.51925234  0.33618147  0.37891925  1
  In  In27  1  0.49682578  0.32958409  0.87131876  1
  In  In28  1  0.49897682  0.66450779  0.37385550  1
  In  In29  1  0.51047808  0.65392481  0.88007964  1
  In  In30  1  0.83819423  0.00031395  0.36720609  1
  In  In31  1  0.83128820  0.00510993  0.88777896  1
  In  In32  1  0.82916124  0.33420655  0.36535177  1
  In  In33  1  0.83140896  0.33542310  0.87778659  1
  In  In34  1  0.85545545  0.68298820  0.34759950  1
  In  In35  1  0.82402798  0.67563027  0.89155693  1
  In  In36  1  -0.00179939  0.16556527  0.37256517  1
  In  In37  1  -0.02681089  0.17792199  0.90078327  1
  In  In38  1  0.00136099  0.49627657  0.34803183  1
  In  In39  1  0.00271085  0.48883397  0.87765756  1
  In  In40  1  -0.00509466  0.84157656  0.36940986  1
  In  In41  1  -0.00877665  0.83395282  0.88223166  1
  In  In42  1  0.32878739  0.15513616  0.37736892  1
  In  In43  1  0.32269187  0.18957537  0.89165474  1
  In  In44  1  0.33584142  0.51493797  0.37370121  1
  In  In45  1  0.34644698  0.49456321  0.87865780  1
  In  In46  1  0.32798867  0.81257572  0.37281317  1
  In  In47  1  0.31940840  0.83685086  0.87526769  1
  In  In48  1  0.68311617  0.17873353  0.36940421  1
  In  In49  1  0.66661491  0.16844971  0.88277772  1
  In  In50  1  0.67218127  0.49652998  0.36671799  1
  In  In51  1  0.67989311  0.50892568  0.87168535  1
  In  In52  1  0.69228382  0.84629147  0.34859708  1
  In  In53  1  0.68561175  0.83827485  0.86240814  1
  In  In54  1  0.14255366  0.00376075  0.12132699  1
  In  In55  1  0.15274015  -0.00489696  0.61382834  1
  In  In56  1  0.15699313  0.32172079  0.11937178  1
  In  In57  1  0.17276307  0.32840103  0.62823656  1
  In  In58  1  0.15866124  0.65961402  0.14325330  1
  In  In59  1  0.15122017  0.67079688  0.61604601  1
  In  In60  1  0.50403464  0.01564014  0.12011766  1
  In  In61  1  0.50915180  0.00842979  0.62599276  1
  In  In62  1  0.50672509  0.33760134  0.11948195  1
  In  In63  1  0.49722529  0.33495476  0.62847362  1
  In  In64  1  0.49995732  0.66321772  0.12878787  1
  In  In65  1  0.51803629  0.66784877  0.61876330  1
  In  In66  1  0.83519592  0.00138965  0.12248696  1
  In  In67  1  0.82674390  -0.00326107  0.61681668  1
  In  In68  1  0.83719520  0.33094337  0.12743125  1
  In  In69  1  0.84078176  0.32383076  0.63417069  1
  In  In70  1  0.83518652  0.67192365  0.12730628  1
  In  In71  1  0.82279255  0.66899769  0.62123295  1
  In  In72  1  0.16044948  0.82978101  0.01069205  1
  In  In73  1  0.34499392  0.01041151  0.74405505  1
  In  In74  1  0.50129236  0.16852665  0.50658579  1
  In  In75  1  0.33242759  0.33404149  0.24052670  1
  In  In76  1  0.33800598  0.66088129  0.75833835  1
  In  In77  1  0.50426020  0.49620814  0.00397282  1
  In  In78  1  0.16491520  0.50280311  0.49047241  1
  In  In79  1  0.33324729  0.00005189  0.24866050  1
  In  In80  1  0.50827962  0.83614943  0.00636785  1
  In  In81  1  0.82906647  0.50223541  0.48997007  1
  In  In82  1  0.50280288  0.82717792  0.49525338  1
  In  In83  1  0.16118225  0.49386276  0.01172384  1
  In  In84  1  -0.01077196  0.65901392  0.73991198  1
  In  In85  1  -0.00832895  0.00463948  0.76111789  1
  Cu  Cu86  1  0.33085470  0.66378327  0.49736823  1
  Cu  Cu87  1  -0.00333718  0.33244550  0.49647113  1
  Cu  Cu88  1  -0.00829928  0.00215711  0.49452560  1
  Cu  Cu89  1  0.50577275  0.49611618  0.75165815  1
  Cu  Cu90  1  0.67194734  0.00209861  0.49398456  1
  Cu  Cu91  1  0.16811910  0.83193149  0.25170416  1
  Cu  Cu92  1  0.16148495  0.16255664  0.24595817  1
  Cu  Cu93  1  -0.00246387  0.66531678  0.01603828  1
  Cu  Cu94  1  0.50891180  0.82627139  0.75160984  1
  Cu  Cu95  1  0.49778847  0.83538485  0.25283876  1
  Cu  Cu96  1  0.15732385  0.83141477  0.74267373  1
  Cu  Cu97  1  0.67258313  0.67217391  0.49111862  1
  Cu  Cu98  1  0.49703511  0.49653637  0.24788352  1
  Cu  Cu99  1  -0.00753208  0.34142707  0.00572918  1
  Cu  Cu100  1  0.50494649  0.16766910  0.75599174  1
  Cu  Cu101  1  -0.00376881  0.67356689  0.48584586  1
  Cu  Cu102  1  0.16536775  0.17084310  0.75032550  1
  Cu  Cu103  1  0.66938637  0.66401708  0.00874079  1
  Cu  Cu104  1  0.83587904  0.49478349  0.75206527  1
  Cu  Cu105  1  0.17165280  0.49016662  0.75178830  1
  Cu  Cu106  1  0.33596941  0.00207537  -0.00106092  1
  Cu  Cu107  1  0.51219699  0.17020127  0.24843714  1
  Cu  Cu108  1  0.67387475  0.33828335  0.49863578  1
  Cu  Cu109  1  0.67356445  0.33293075  0.00474285  1
  Cu  Cu110  1  0.83180189  0.16608333  0.76058367  1
  Cu  Cu111  1  0.67424370  -0.00286330  0.00180810  1
  Cu  Cu112  1  0.31829766  -0.00683848  0.49804200  1
  Cu  Cu113  1  0.33651255  0.33282346  0.50298863  1
  Cu  Cu114  1  0.83612783  0.16693465  0.24587884  1
  Se  Se115  1  0.09972039  0.10381561  0.05037629  1
  Se  Se116  1  0.07608244  0.08493502  0.54921672  1
  Se  Se117  1  0.05974611  0.42219234  0.07273071  1
  Se  Se118  1  0.07843792  0.41375262  0.55512619  1
  Se  Se119  1  0.07436005  0.74634391  0.07559965  1
  Se  Se120  1  0.08025991  0.75310454  0.54320061  1
  Se  Se121  1  0.41771872  0.08809187  0.04969236  1
  Se  Se122  1  0.40393975  0.07102906  0.55730649  1
  Se  Se123  1  0.40312041  0.40528740  0.05366707  1
  Se  Se124  1  0.42464800  0.41494224  0.55084603  1
  Se  Se125  1  0.41092058  0.74438151  0.05719693  1
  Se  Se126  1  0.40771723  0.74416188  0.56146057  1
  Se  Se127  1  0.75554134  0.08557412  0.05135564  1
  Se  Se128  1  0.74800703  0.08891788  0.55066861  1
  Se  Se129  1  0.75080265  0.41854974  0.06174593  1
  Se  Se130  1  0.75336260  0.41542071  0.56207570  1
  Se  Se131  1  0.75624691  0.75305493  0.05315107  1
  Se  Se132  1  0.74732699  0.75514187  0.55124504  1
  Se  Se133  1  0.24644255  0.26199488  0.04486018  1
  Se  Se134  1  0.24963841  0.25008920  0.55239269  1
  Se  Se135  1  0.24921252  0.59505701  0.06246616  1
  Se  Se136  1  0.25448649  0.58366158  0.56185249  1
  Se  Se137  1  0.25685680  0.92619753  0.06248045  1
  Se  Se138  1  0.23760324  0.90689098  0.55031570  1
  Se  Se139  1  0.58645092  0.24977553  0.05410148  1
  Se  Se140  1  0.59713365  0.25607979  0.56184582  1
  Se  Se141  1  0.59548435  0.57832059  0.06802618  1
  Se  Se142  1  0.59083329  0.58702020  0.54462810  1
  Se  Se143  1  0.59952838  0.91971306  0.06800893  1
  Se  Se144  1  0.58867997  0.92294529  0.55421525  1
  Se  Se145  1  0.91302660  0.24915944  0.05362971  1
  Se  Se146  1  0.91432487  0.25315530  0.55369053  1
  Se  Se147  1  0.91230215  0.57733762  0.06185663  1
  Se  Se148  1  0.92296222  0.59324412  0.55189135  1
  Se  Se149  1  0.92605745  0.91052572  0.06567771  1
  Se  Se150  1  0.90871421  0.91641431  0.54661443  1
  Se  Se151  1  0.08175452  0.24811918  0.44492269  1
  Se  Se152  1  0.07698217  0.26147395  0.94988989  1
  Se  Se153  1  0.06933297  0.58479798  0.43001483  1
  Se  Se154  1  0.07530575  0.59183235  0.94877135  1
  Se  Se155  1  0.07743870  0.91746609  0.44362224  1
  Se  Se156  1  0.08620454  0.92113955  0.94039287  1
  Se  Se157  1  0.41359001  0.25416534  0.43832251  1
  Se  Se158  1  0.42914141  0.25243971  0.94983837  1
  Se  Se159  1  0.42010192  0.58422164  0.44844522  1
  Se  Se160  1  0.40921890  0.59296664  0.94968152  1
  Se  Se161  1  0.40406165  0.91758752  0.43952234  1
  Se  Se162  1  0.41227069  0.91919552  0.93938952  1
  Se  Se163  1  0.75798562  0.25690245  0.44511147  1
  Se  Se164  1  0.75486180  0.24954464  0.94949635  1
  Se  Se165  1  0.75397008  0.59898991  0.42746974  1
  Se  Se166  1  0.75072302  0.57743467  0.95439414  1
  Se  Se167  1  0.74909367  0.91811360  0.43588807  1
  Se  Se168  1  0.74915849  0.90760567  0.94729873  1
  Se  Se169  1  0.24241791  0.08630595  0.44922574  1
  Se  Se170  1  0.25003490  0.08343218  0.94676274  1
  Se  Se171  1  0.25897853  0.40893196  0.43657026  1
  Se  Se172  1  0.24579606  0.41656619  0.93796260  1
  Se  Se173  1  0.24298264  0.74213512  0.44589935  1
  Se  Se174  1  0.25699535  0.74305828  0.94856902  1
  Se  Se175  1  0.58756794  0.08390528  0.43853170  1
  Se  Se176  1  0.58595985  0.07972699  0.95202160  1
  Se  Se177  1  0.59363374  0.42466681  0.44717005  1
  Se  Se178  1  0.59528677  0.41339162  0.94039398  1
  Se  Se179  1  0.59815621  0.75577094  0.42869996  1
  Se  Se180  1  0.59378566  0.74452257  0.94469542  1
  Se  Se181  1  0.91071070  0.08620132  0.44068093  1
  Se  Se182  1  0.93231341  0.05982892  0.95610588  1
  Se  Se183  1  0.92791399  0.41753433  0.43343120  1
  Se  Se184  1  0.91191739  0.42232510  0.94811625  1
  Se  Se185  1  0.90861718  0.75417752  0.43586567  1
  Se  Se186  1  0.92111676  0.74911615  0.95497093  1
  Se  Se187  1  0.24862087  0.23823634  0.30456102  1
  Se  Se188  1  0.25408931  0.24889195  0.80387006  1
  Se  Se189  1  0.25095120  0.57619699  0.29887402  1
  Se  Se190  1  0.23878863  0.57550240  0.81543896  1
  Se  Se191  1  0.24582057  0.91510396  0.31395375  1
  Se  Se192  1  0.24346673  0.91365456  0.79526543  1
  Se  Se193  1  0.58954194  0.25565163  0.30360251  1
  Se  Se194  1  0.58914587  0.25019695  0.80804581  1
  Se  Se195  1  0.57718180  0.57764906  0.30535336  1
  Se  Se196  1  0.58642840  0.58326831  0.80301693  1
  Se  Se197  1  0.58435159  0.92300675  0.29726070  1
  Se  Se198  1  0.58778805  0.91592649  0.80215578  1
  Se  Se199  1  0.91807329  0.24943271  0.30277719  1
  Se  Se200  1  0.91842509  0.24749436  0.81256225  1
  Se  Se201  1  0.89424600  0.56095350  0.29224033  1
  Se  Se202  1  0.91219285  0.57793801  0.81383095  1
  Se  Se203  1  0.90516121  0.90714222  0.29523847  1
  Se  Se204  1  0.90206359  0.90691465  0.81107068  1
  Se  Se205  1  0.07807239  0.08115733  0.30007757  1
  Se  Se206  1  0.08502728  0.09721517  0.81374887  1
  Se  Se207  1  0.09614576  0.41146855  0.29458806  1
  Se  Se208  1  0.08009377  0.41369446  0.80242619  1
  Se  Se209  1  0.08350575  0.75281907  0.30650860  1
  Se  Se210  1  0.07768348  0.75326637  0.80360868  1
  Se  Se211  1  0.42910831  0.09105952  0.30711458  1
  Se  Se212  1  0.42202882  0.09120142  0.81745276  1
  Se  Se213  1  0.42081635  0.41430862  0.31096946  1
  Se  Se214  1  0.41657206  0.41655528  0.80182399  1
  Se  Se215  1  0.41751006  0.74630832  0.30204837  1
  Se  Se216  1  0.42514027  0.75814256  0.81637548  1
  Se  Se217  1  0.75138306  0.08567774  0.30102496  1
  Se  Se218  1  0.75102592  0.08216177  0.81517589  1
  Se  Se219  1  0.75445518  0.42047655  0.29483262  1
  Se  Se220  1  0.74982699  0.41388746  0.80424576  1
  Se  Se221  1  0.73495034  0.72721756  0.29154808  1
  Se  Se222  1  0.75226832  0.73211817  0.80579067  1
  Se  Se223  1  0.24807302  0.08917772  0.18556627  1
  Se  Se224  1  0.23723564  0.08446827  0.68749862  1
  Se  Se225  1  0.24035788  0.42074612  0.18375186  1
  Se  Se226  1  0.25608598  0.41066620  0.69750165  1
  Se  Se227  1  0.25251649  0.74539900  0.20388459  1
  Se  Se228  1  0.24257819  0.74500668  0.69309958  1
  Se  Se229  1  0.58882421  0.08149453  0.19539684  1
  Se  Se230  1  0.58441148  0.08143977  0.70193953  1
  Se  Se231  1  0.58043215  0.41055106  0.19744808  1
  Se  Se232  1  0.58670063  0.41727105  0.69256032  1
  Se  Se233  1  0.57609559  0.75756342  0.19182818  1
  Se  Se234  1  0.58908748  0.74346157  0.69636272  1
  Se  Se235  1  0.91969593  0.08553101  0.19147601  1
  Se  Se236  1  0.90938564  0.09079877  0.69262746  1
  Se  Se237  1  0.90137044  0.41547986  0.20654297  1
  Se  Se238  1  0.92254235  0.41377908  0.69991351  1
  Se  Se239  1  0.93294077  0.72500916  0.20170552  1
  Se  Se240  1  0.90404967  0.76158913  0.68980420  1
  Se  Se241  1  0.07920968  0.24913667  0.19559335  1
  Se  Se242  1  0.08146850  0.25051780  0.69379322  1
  Se  Se243  1  0.08604165  0.57272519  0.21264574  1
  Se  Se244  1  0.09416257  0.56998078  0.68923708  1
  Se  Se245  1  0.08783113  0.92001819  0.20154565  1
  Se  Se246  1  0.07301288  0.91246589  0.68929142  1
  Se  Se247  1  0.42400245  0.23843510  0.18662432  1
  Se  Se248  1  0.42112156  0.24399393  0.69623969  1
  Se  Se249  1  0.41467333  0.58286681  0.19789965  1
  Se  Se250  1  0.42500258  0.57965685  0.68955796  1
  Se  Se251  1  0.42294622  0.91318736  0.18599380  1
  Se  Se252  1  0.42844381  0.90437700  0.68970244  1
  Se  Se253  1  0.74914298  0.24739162  0.19329329  1
  Se  Se254  1  0.75086064  0.24832750  0.70220279  1
  Se  Se255  1  0.72585051  0.61703919  0.19391824  1
  Se  Se256  1  0.75806098  0.57760173  0.69263485  1
  Se  Se257  1  0.75786148  0.92184046  0.19868725  1
  Se  Se258  1  0.74092806  0.93297964  0.69208837  1
