# generated using pymatgen
data_In86Cu29Se144
_symmetry_space_group_name_H-M   'P 1'
_cell_length_a   17.58095892
_cell_length_b   17.57963389
_cell_length_c   23.44633544
_cell_angle_alpha   89.99527601
_cell_angle_beta   90.01041342
_cell_angle_gamma   90.01110956
_symmetry_Int_Tables_number   1
_chemical_formula_structural   In86Cu29Se144
_chemical_formula_sum   'In86 Cu29 Se144'
_cell_volume   7246.48408544
_cell_formula_units_Z   1
loop_
 _symmetry_equiv_pos_site_id
 _symmetry_equiv_pos_as_xyz
  1  'x, y, z'
loop_
 _atom_site_type_symbol
 _atom_site_label
 _atom_site_symmetry_multiplicity
 _atom_site_fract_x
 _atom_site_fract_y
 _atom_site_fract_z
 _atom_site_occupancy
  In  In0  1  -0.01372985  0.14843557  0.11819292  1
  In  In1  1  0.00038275  0.17281440  0.62982106  1
  In  In2  1  0.01138942  0.51535503  0.12606650  1
  In  In3  1  -0.00552117  0.49710841  0.63438230  1
  In  In4  1  -0.00361145  0.83463290  0.12463331  1
  In  In5  1  -0.00258184  0.82857094  0.62098606  1
  In  In6  1  0.32593033  0.17272550  0.13249068  1
  In  In7  1  0.32905891  0.15082002  0.62458098  1
  In  In8  1  0.30882196  0.50057105  0.13286957  1
  In  In9  1  0.33463674  0.50556597  0.62388955  1
  In  In10  1  0.34190852  0.84224922  0.12123726  1
  In  In11  1  0.34027882  0.84330429  0.61576791  1
  In  In12  1  0.67389735  0.15609867  0.13183123  1
  In  In13  1  0.65667875  0.15555368  0.61233452  1
  In  In14  1  0.68383470  0.50013004  0.12417300  1
  In  In15  1  0.66179458  0.50309153  0.62200995  1
  In  In16  1  0.66929894  0.83565510  0.12786945  1
  In  In17  1  0.68662827  0.84354976  0.60699500  1
  In  In18  1  0.15153677  -0.01417995  0.36329453  1
  In  In19  1  0.17731842  -0.01265245  0.88283146  1
  In  In20  1  0.17089646  0.32378038  0.36814740  1
  In  In21  1  0.15156268  0.34530982  0.88904938  1
  In  In22  1  0.16579719  0.67942856  0.37282012  1
  In  In23  1  0.15090133  0.68150983  0.88401148  1
  In  In24  1  0.50270737  -0.00309572  0.37542703  1
  In  In25  1  0.49307881  -0.00683643  0.86814615  1
  In  In26  1  0.48888176  0.33336691  0.37065175  1
  In  In27  1  0.49804369  0.32702265  0.87584370  1
  In  In28  1  0.52369585  0.67241258  0.36858971  1
  In  In29  1  0.51502920  0.67915277  0.87782562  1
  In  In30  1  0.82926984  -0.00001657  0.37077469  1
  In  In31  1  0.82449451  0.00754537  0.87865526  1
  In  In32  1  0.82883649  0.32675176  0.37515633  1
  In  In33  1  0.84935277  0.32181661  0.88472948  1
  In  In34  1  0.84237222  0.68293261  0.36855677  1
  In  In35  1  0.84508672  0.66166109  0.88367967  1
  In  In36  1  -0.00219929  0.15297806  0.37178523  1
  In  In37  1  -0.01190110  0.17600067  0.88206918  1
  In  In38  1  -0.00267368  0.51122266  0.36843199  1
  In  In39  1  0.00021397  0.50222933  0.87864826  1
  In  In40  1  -0.00719357  0.83052840  0.37727541  1
  In  In41  1  0.01000780  0.82252811  0.87973812  1
  In  In42  1  0.33852197  0.16874082  0.36845239  1
  In  In43  1  0.33625001  0.14776255  0.87689579  1
  In  In44  1  0.35169986  0.49511540  0.35985415  1
  In  In45  1  0.32767103  0.48722180  0.88234307  1
  In  In46  1  0.32542436  0.84635491  0.37773523  1
  In  In47  1  0.32309796  0.84904251  0.88402811  1
  In  In48  1  0.68619394  0.14578093  0.38279005  1
  In  In49  1  0.68849444  0.15284911  0.87681921  1
  In  In50  1  0.65778755  0.51219499  0.36247978  1
  In  In51  1  0.67345169  0.52174056  0.87953169  1
  In  In52  1  0.66745951  0.83193581  0.37376868  1
  In  In53  1  0.66115497  0.84577812  0.88110869  1
  In  In54  1  0.16423404  -0.00140966  0.12218021  1
  In  In55  1  0.17425671  -0.00074438  0.63094832  1
  In  In56  1  0.16857705  0.33733555  0.12163150  1
  In  In57  1  0.15379073  0.32114369  0.63056398  1
  In  In58  1  0.15256976  0.66008010  0.12322499  1
  In  In59  1  0.15024942  0.67373388  0.62909714  1
  In  In60  1  0.51169433  -0.00955408  0.13619027  1
  In  In61  1  0.50148152  -0.00296150  0.61922615  1
  In  In62  1  0.49498953  0.32570565  0.13021007  1
  In  In63  1  0.51969104  0.32658427  0.62151078  1
  In  In64  1  0.49743811  0.68460727  0.12723489  1
  In  In65  1  0.50280455  0.67355460  0.61272578  1
  In  In66  1  0.83796393  0.00044146  0.12716216  1
  In  In67  1  0.82926833  -0.00556719  0.62448741  1
  In  In68  1  0.82950197  0.33237888  0.11733506  1
  In  In69  1  0.84445001  0.33278908  0.62706420  1
  In  In70  1  0.83363521  0.67237155  0.12848612  1
  In  In71  1  0.84404576  0.67771240  0.61817441  1
  In  In72  1  -0.00184094  -0.00228881  0.75427546  1
  In  In73  1  0.67915279  0.67635456  0.73728566  1
  In  In74  1  0.16237738  0.15556682  0.50264772  1
  In  In75  1  0.32181857  0.32323121  0.74606687  1
  In  In76  1  0.00814411  0.33615265  0.24614356  1
  In  In77  1  0.32991683  0.66824508  0.24710786  1
  In  In78  1  0.49954466  0.50421974  0.49412261  1
  In  In79  1  0.32389233  0.67808753  0.76000180  1
  In  In80  1  0.49659269  0.50795509  0.00369516  1
  In  In81  1  0.68123877  0.31963328  0.76241778  1
  In  In82  1  0.16848154  0.50360991  0.48968191  1
  In  In83  1  0.50228110  0.16446488  0.00468129  1
  In  In84  1  0.82983191  0.50363919  0.49645879  1
  In  In85  1  0.65989101  0.33292468  0.24879376  1
  Cu  Cu86  1  0.33794484  0.32555263  0.49451631  1
  Cu  Cu87  1  0.50388605  0.16134066  0.25421974  1
  Cu  Cu88  1  0.66620207  0.32358667  0.49314795  1
  Cu  Cu89  1  0.33174750  0.67654684  0.49426926  1
  Cu  Cu90  1  0.67027639  -0.00142227  0.00825351  1
  Cu  Cu91  1  0.32918276  0.66765459  0.00746041  1
  Cu  Cu92  1  0.15476919  0.50180235  0.75699522  1
  Cu  Cu93  1  0.67029639  0.33691799  -0.00381005  1
  Cu  Cu94  1  0.32007935  0.33424579  0.00800619  1
  Cu  Cu95  1  -0.01065997  -0.00817626  0.49502572  1
  Cu  Cu96  1  0.67436890  0.67742208  0.00285076  1
  Cu  Cu97  1  -0.00388539  0.66831283  0.00460483  1
  Cu  Cu98  1  -0.00120040  0.33118995  0.50303839  1
  Cu  Cu99  1  0.83241056  0.83765677  0.24980422  1
  Cu  Cu100  1  0.15992720  0.83626431  0.24824906  1
  Cu  Cu101  1  0.83402402  0.83007076  0.74810810  1
  Cu  Cu102  1  -0.00092915  -0.00417733  -0.00179929  1
  Cu  Cu103  1  0.83603326  0.50926940  0.24605265  1
  Cu  Cu104  1  0.16722012  0.16134564  0.24601207  1
  Cu  Cu105  1  0.33370207  0.00547646  0.49649585  1
  Cu  Cu106  1  0.33504930  0.00149375  0.00387618  1
  Cu  Cu107  1  0.49955120  0.84586781  0.74546273  1
  Cu  Cu108  1  0.49717618  0.50265818  0.74698589  1
  Cu  Cu109  1  0.00070915  0.33453964  0.00600230  1
  Cu  Cu110  1  0.50275199  0.15138377  0.74373644  1
  Cu  Cu111  1  0.50422892  0.83530825  0.25207562  1
  Cu  Cu112  1  0.84312073  0.49745865  0.75593530  1
  Cu  Cu113  1  0.66817149  -0.00589810  0.49664491  1
  Cu  Cu114  1  0.15951744  0.16800197  0.75783754  1
  Se  Se115  1  0.08237339  0.08048554  0.05089076  1
  Se  Se116  1  0.06852168  0.06880780  0.56189497  1
  Se  Se117  1  0.08169687  0.42077183  0.05760156  1
  Se  Se118  1  0.08161304  0.41442789  0.55760868  1
  Se  Se119  1  0.08181972  0.75263017  0.05512146  1
  Se  Se120  1  0.08673889  0.75352726  0.55202332  1
  Se  Se121  1  0.41546583  0.07716559  0.06741641  1
  Se  Se122  1  0.41687310  0.08524019  0.55214718  1
  Se  Se123  1  0.40895479  0.41306863  0.06219763  1
  Se  Se124  1  0.41315400  0.40926994  0.55796255  1
  Se  Se125  1  0.41761694  0.75362462  0.05066005  1
  Se  Se126  1  0.41909114  0.75617599  0.54698966  1
  Se  Se127  1  0.75357171  0.08561861  0.05635390  1
  Se  Se128  1  0.75198391  0.07695532  0.55116287  1
  Se  Se129  1  0.75491189  0.42151043  0.04739219  1
  Se  Se130  1  0.74176919  0.40633071  0.55670773  1
  Se  Se131  1  0.75588995  0.75823002  0.05789367  1
  Se  Se132  1  0.74474221  0.73304518  0.55055294  1
  Se  Se133  1  0.24340310  0.24161399  0.05609781  1
  Se  Se134  1  0.25331314  0.25538853  0.55835314  1
  Se  Se135  1  0.24440657  0.58250584  0.05513195  1
  Se  Se136  1  0.25544123  0.59327826  0.55538102  1
  Se  Se137  1  0.24986243  0.91563050  0.05364706  1
  Se  Se138  1  0.24839653  0.92606589  0.55251941  1
  Se  Se139  1  0.59518976  0.25832266  0.06110834  1
  Se  Se140  1  0.57733740  0.24287322  0.54303733  1
  Se  Se141  1  0.59131230  0.59442921  0.06142334  1
  Se  Se142  1  0.59910279  0.59421914  0.54622114  1
  Se  Se143  1  0.58262550  0.91591922  0.05707001  1
  Se  Se144  1  0.58132583  0.91246562  0.54927577  1
  Se  Se145  1  0.91519058  0.24779272  0.05361506  1
  Se  Se146  1  0.91767888  0.24632912  0.55508773  1
  Se  Se147  1  0.91463595  0.58478628  0.05988434  1
  Se  Se148  1  0.93005364  0.58305875  0.55533041  1
  Se  Se149  1  0.91423525  0.91650784  0.05416908  1
  Se  Se150  1  0.91131630  0.91198272  0.55540412  1
  Se  Se151  1  0.07902583  0.25329698  0.44130213  1
  Se  Se152  1  0.08013017  0.24722081  0.95185236  1
  Se  Se153  1  0.07265182  0.59768310  0.44224882  1
  Se  Se154  1  0.08076971  0.58495092  0.94970842  1
  Se  Se155  1  0.08083448  0.91604333  0.44430812  1
  Se  Se156  1  0.08590407  0.91141380  0.94915603  1
  Se  Se157  1  0.42116324  0.24328736  0.44310710  1
  Se  Se158  1  0.40572269  0.25681684  0.94752859  1
  Se  Se159  1  0.41014076  0.59398150  0.43392816  1
  Se  Se160  1  0.40945738  0.59593215  0.93788811  1
  Se  Se161  1  0.41648431  0.91886899  0.44639906  1
  Se  Se162  1  0.42074390  0.92133648  0.94869221  1
  Se  Se163  1  0.75871128  0.24346719  0.44852527  1
  Se  Se164  1  0.75091224  0.24754876  0.94742473  1
  Se  Se165  1  0.74615165  0.58925552  0.43089688  1
  Se  Se166  1  0.75622341  0.58761648  0.95516460  1
  Se  Se167  1  0.75296332  0.91423932  0.44223303  1
  Se  Se168  1  0.75245449  0.91791897  0.94977141  1
  Se  Se169  1  0.24765544  0.07691097  0.43346565  1
  Se  Se170  1  0.24967963  0.08262932  0.95123076  1
  Se  Se171  1  0.26236479  0.40890816  0.43550897  1
  Se  Se172  1  0.24099023  0.42319279  0.95674064  1
  Se  Se173  1  0.24443103  0.75879562  0.44498828  1
  Se  Se174  1  0.25171800  0.75019337  0.94736047  1
  Se  Se175  1  0.58439570  0.08001071  0.44585420  1
  Se  Se176  1  0.58829848  0.07455953  0.94250755  1
  Se  Se177  1  0.59219517  0.41087377  0.43572680  1
  Se  Se178  1  0.58620516  0.41672498  0.93983908  1
  Se  Se179  1  0.57795076  0.75875463  0.44483133  1
  Se  Se180  1  0.58559252  0.75872080  0.95300822  1
  Se  Se181  1  0.91308324  0.08224931  0.44404615  1
  Se  Se182  1  0.91408150  0.08174809  0.94820121  1
  Se  Se183  1  0.92614751  0.41164561  0.43868889  1
  Se  Se184  1  0.91929331  0.41901564  0.94948987  1
  Se  Se185  1  0.91156824  0.75157426  0.44915926  1
  Se  Se186  1  0.91692495  0.75512707  0.95071789  1
  Se  Se187  1  0.25093927  0.24502902  0.29812209  1
  Se  Se188  1  0.24279777  0.24578207  0.82055069  1
  Se  Se189  1  0.24396143  0.57714390  0.31021188  1
  Se  Se190  1  0.24297771  0.57373658  0.81533180  1
  Se  Se191  1  0.25011576  0.91705722  0.29802281  1
  Se  Se192  1  0.25257992  0.91768739  0.80397431  1
  Se  Se193  1  0.58478500  0.23952504  0.31595470  1
  Se  Se194  1  0.57516397  0.23049197  0.81171092  1
  Se  Se195  1  0.55615880  0.56731107  0.29689020  1
  Se  Se196  1  0.58181969  0.58563716  0.80170274  1
  Se  Se197  1  0.58779972  0.91906474  0.30470472  1
  Se  Se198  1  0.58843482  0.92006212  0.80201690  1
  Se  Se199  1  0.91566913  0.24746149  0.30588966  1
  Se  Se200  1  0.90454869  0.24019983  0.80475902  1
  Se  Se201  1  0.91845365  0.59232202  0.29916273  1
  Se  Se202  1  0.92118066  0.58744227  0.80689367  1
  Se  Se203  1  0.91722600  0.91628856  0.30572738  1
  Se  Se204  1  0.91021255  0.90661136  0.81485098  1
  Se  Se205  1  0.07988270  0.08184273  0.29799195  1
  Se  Se206  1  0.08533305  0.08415278  0.81949660  1
  Se  Se207  1  0.09490254  0.42699615  0.30846254  1
  Se  Se208  1  0.07641348  0.41206654  0.80820831  1
  Se  Se209  1  0.07923441  0.75428735  0.30355048  1
  Se  Se210  1  0.08881740  0.75359665  0.80203936  1
  Se  Se211  1  0.41761674  0.07722021  0.30468320  1
  Se  Se212  1  0.41235828  0.07744329  0.79857010  1
  Se  Se213  1  0.42078680  0.40653460  0.29084526  1
  Se  Se214  1  0.41906431  0.41811664  0.80477283  1
  Se  Se215  1  0.41820517  0.75694824  0.31122689  1
  Se  Se216  1  0.42790839  0.76353959  0.81117185  1
  Se  Se217  1  0.75565675  0.08668332  0.29856006  1
  Se  Se218  1  0.75095470  0.07585533  0.79771037  1
  Se  Se219  1  0.75898391  0.42520798  0.30530712  1
  Se  Se220  1  0.75629830  0.42701848  0.81795698  1
  Se  Se221  1  0.74781980  0.75131328  0.30017280  1
  Se  Se222  1  0.75467988  0.75356147  0.81450580  1
  Se  Se223  1  0.25040423  0.07599658  0.19424222  1
  Se  Se224  1  0.24383836  0.08982403  0.70198874  1
  Se  Se225  1  0.25019040  0.40184063  0.19998675  1
  Se  Se226  1  0.23597122  0.42721548  0.69041310  1
  Se  Se227  1  0.24251668  0.75869194  0.18604145  1
  Se  Se228  1  0.24906155  0.75992217  0.68657372  1
  Se  Se229  1  0.58963959  0.08078379  0.20199491  1
  Se  Se230  1  0.58913947  0.07441000  0.69007365  1
  Se  Se231  1  0.57793017  0.42701263  0.18573258  1
  Se  Se232  1  0.58637581  0.41775518  0.69829942  1
  Se  Se233  1  0.58656427  0.75164199  0.19892303  1
  Se  Se234  1  0.57733504  0.76044329  0.68574816  1
  Se  Se235  1  0.91652551  0.08170636  0.19971893  1
  Se  Se236  1  0.90975106  0.08651899  0.69310824  1
  Se  Se237  1  0.91067698  0.42221753  0.18797569  1
  Se  Se238  1  0.92039788  0.40764784  0.70335815  1
  Se  Se239  1  0.91750937  0.75316956  0.19780045  1
  Se  Se240  1  0.91951361  0.74859841  0.69659265  1
  Se  Se241  1  0.08494668  0.23799540  0.18426507  1
  Se  Se242  1  0.07496746  0.25095028  0.70663456  1
  Se  Se243  1  0.08766933  0.58420025  0.20387867  1
  Se  Se244  1  0.07763029  0.58455256  0.69849588  1
  Se  Se245  1  0.07861904  0.92039203  0.19283664  1
  Se  Se246  1  0.08685364  0.90991438  0.69280887  1
  Se  Se247  1  0.41957599  0.24341097  0.20128550  1
  Se  Se248  1  0.42617721  0.24376130  0.68829536  1
  Se  Se249  1  0.41870130  0.57939976  0.18466458  1
  Se  Se250  1  0.42053724  0.58971331  0.69165665  1
  Se  Se251  1  0.41571594  0.91514361  0.20019242  1
  Se  Se252  1  0.41274288  0.92377386  0.69175501  1
  Se  Se253  1  0.76020216  0.24777306  0.19581292  1
  Se  Se254  1  0.74785511  0.24235893  0.68247855  1
  Se  Se255  1  0.74617221  0.59043013  0.19776726  1
  Se  Se256  1  0.76598584  0.57046756  0.68718631  1
  Se  Se257  1  0.74984989  0.92092427  0.19596336  1
  Se  Se258  1  0.74902356  0.90846410  0.69393780  1
