# generated using pymatgen
data_In86Cu29Se144
_symmetry_space_group_name_H-M   'P 1'
_cell_length_a   17.59316246
_cell_length_b   17.58873330
_cell_length_c   23.45293720
_cell_angle_alpha   89.98876756
_cell_angle_beta   90.00905743
_cell_angle_gamma   89.96541524
_symmetry_Int_Tables_number   1
_chemical_formula_structural   In86Cu29Se144
_chemical_formula_sum   'In86 Cu29 Se144'
_cell_volume   7257.30916363
_cell_formula_units_Z   1
loop_
 _symmetry_equiv_pos_site_id
 _symmetry_equiv_pos_as_xyz
  1  'x, y, z'
loop_
 _atom_site_type_symbol
 _atom_site_label
 _atom_site_symmetry_multiplicity
 _atom_site_fract_x
 _atom_site_fract_y
 _atom_site_fract_z
 _atom_site_occupancy
  In  In0  1  -0.01039123  0.17213429  0.13527522  1
  In  In1  1  -0.00037045  0.17006676  0.62008602  1
  In  In2  1  0.00831648  0.48717661  0.13493449  1
  In  In3  1  -0.00878285  0.46551895  0.60961407  1
  In  In4  1  -0.00324988  0.83766633  0.12454769  1
  In  In5  1  0.00535087  0.84596991  0.62750653  1
  In  In6  1  0.33721524  0.15622687  0.13988958  1
  In  In7  1  0.35124297  0.17735023  0.60890011  1
  In  In8  1  0.32253789  0.49270368  0.12857318  1
  In  In9  1  0.31500816  0.49056857  0.61244850  1
  In  In10  1  0.34524366  0.85071289  0.12066354  1
  In  In11  1  0.33407818  0.82699359  0.62251085  1
  In  In12  1  0.67208396  0.16941153  0.11594599  1
  In  In13  1  0.67276132  0.17494369  0.61979003  1
  In  In14  1  0.67235807  0.49949549  0.13379067  1
  In  In15  1  0.66327758  0.49679005  0.62994398  1
  In  In16  1  0.65915222  0.83124018  0.11872311  1
  In  In17  1  0.65868475  0.83037538  0.62715258  1
  In  In18  1  0.18804950  0.04457933  0.33477840  1
  In  In19  1  0.15573952  0.00318413  0.87801628  1
  In  In20  1  0.16944775  0.32169539  0.37717214  1
  In  In21  1  0.16246396  0.32929648  0.86650917  1
  In  In22  1  0.15337751  0.66820777  0.37429518  1
  In  In23  1  0.17634615  0.67175285  0.87812171  1
  In  In24  1  0.48416474  0.01579681  0.39494350  1
  In  In25  1  0.50534344  0.00699922  0.89112070  1
  In  In26  1  0.49038018  0.32355992  0.36955067  1
  In  In27  1  0.49677962  0.31961994  0.86424304  1
  In  In28  1  0.51581092  0.67523357  0.37418407  1
  In  In29  1  0.50861404  0.67033959  0.87404352  1
  In  In30  1  0.85023504  0.00890476  0.37061135  1
  In  In31  1  0.83274153  -0.00286513  0.88432956  1
  In  In32  1  0.83300968  0.32852651  0.37381063  1
  In  In33  1  0.81791528  0.31757301  0.85980463  1
  In  In34  1  0.83341368  0.66478976  0.36778590  1
  In  In35  1  0.82732618  0.68223283  0.87666112  1
  In  In36  1  0.00080824  0.16858799  0.37683055  1
  In  In37  1  -0.01502588  0.15386207  0.85995122  1
  In  In38  1  0.00350751  0.49768191  0.37411322  1
  In  In39  1  0.00546934  0.48991744  0.87463323  1
  In  In40  1  0.01112855  0.84191498  0.36369287  1
  In  In41  1  -0.01317502  0.84489064  0.88892215  1
  In  In42  1  0.33142499  0.16706387  0.37850473  1
  In  In43  1  0.34103307  0.17674422  0.87027180  1
  In  In44  1  0.33362594  0.47973509  0.37458624  1
  In  In45  1  0.33891367  0.49420610  0.87033810  1
  In  In46  1  0.33183270  0.86492077  0.37585828  1
  In  In47  1  0.33468024  0.83972711  0.88639745  1
  In  In48  1  0.65719756  0.17504720  0.38220124  1
  In  In49  1  0.66756862  0.16844136  0.87973731  1
  In  In50  1  0.67280473  0.50391367  0.36754093  1
  In  In51  1  0.66305960  0.50069613  0.86565572  1
  In  In52  1  0.66173271  0.82514280  0.37270795  1
  In  In53  1  0.67187942  0.83450887  0.88254943  1
  In  In54  1  0.17518044  -0.00011532  0.13674117  1
  In  In55  1  0.15191964  0.00165907  0.62746917  1
  In  In56  1  0.16787227  0.31520496  0.14432858  1
  In  In57  1  0.16846721  0.32860703  0.61965116  1
  In  In58  1  0.15074479  0.66868612  0.13046429  1
  In  In59  1  0.17164449  0.66173395  0.61780019  1
  In  In60  1  0.49829206  -0.00174767  0.12096121  1
  In  In61  1  0.50092259  0.00132191  0.61240539  1
  In  In62  1  0.51033996  0.32495087  0.13222638  1
  In  In63  1  0.50766052  0.31414585  0.63775091  1
  In  In64  1  0.50447277  0.68470122  0.12736571  1
  In  In65  1  0.50479676  0.67190309  0.62357774  1
  In  In66  1  0.83004246  0.01207397  0.10896046  1
  In  In67  1  0.83365556  0.02216159  0.62934922  1
  In  In68  1  0.83864332  0.32475445  0.12915688  1
  In  In69  1  0.84601055  0.30811462  0.64680734  1
  In  In70  1  0.82620718  0.67389933  0.13136222  1
  In  In71  1  0.82793057  0.66223330  0.62891119  1
  In  In72  1  -0.00188707  0.66039413  0.74968801  1
  In  In73  1  0.49632134  0.49772791  0.49744488  1
  In  In74  1  0.83023123  0.49211070  0.49335534  1
  In  In75  1  0.33494449  0.00974306  0.75088150  1
  In  In76  1  0.66577131  -0.00471576  0.24444141  1
  In  In77  1  0.83810877  0.50016019  0.00308327  1
  In  In78  1  0.82839555  0.83676532  0.49881191  1
  In  In79  1  0.33391996  0.66059872  0.74071060  1
  In  In80  1  0.66614213  0.00642261  0.75173297  1
  In  In81  1  0.16799186  0.83940746  0.49621696  1
  In  In82  1  0.49844577  0.50335581  -0.00564194  1
  In  In83  1  0.16174368  0.49907747  0.00685848  1
  In  In84  1  0.33848167  0.66640409  0.24816221  1
  In  In85  1  0.16794404  0.16561206  0.00502229  1
  Cu  Cu86  1  0.33129397  0.32580853  0.49611906  1
  Cu  Cu87  1  0.66596294  0.32545798  -0.00262473  1
  Cu  Cu88  1  0.00158409  0.00048474  0.00096871  1
  Cu  Cu89  1  0.83982392  0.49609106  0.25197371  1
  Cu  Cu90  1  0.82887357  0.49998259  0.74655953  1
  Cu  Cu91  1  0.83036182  0.83809318  0.75947265  1
  Cu  Cu92  1  0.50581036  0.49968323  0.25346306  1
  Cu  Cu93  1  0.50029153  0.16940335  0.25797681  1
  Cu  Cu94  1  0.66377437  0.67245638  0.00068445  1
  Cu  Cu95  1  0.16373326  0.83243223  0.24768521  1
  Cu  Cu96  1  0.82815750  0.16715980  0.24824291  1
  Cu  Cu97  1  0.50069658  0.84158531  0.24808769  1
  Cu  Cu98  1  0.66648164  0.33502706  0.50153101  1
  Cu  Cu99  1  0.16739443  0.17224694  0.74529183  1
  Cu  Cu100  1  0.33043691  0.68221241  0.00344396  1
  Cu  Cu101  1  0.50256562  0.83195517  0.75026160  1
  Cu  Cu102  1  -0.00466892  0.31993738  0.00220032  1
  Cu  Cu103  1  0.16268934  0.49231302  0.73854490  1
  Cu  Cu104  1  0.15444972  0.83810305  0.75574952  1
  Cu  Cu105  1  0.16779975  0.49148901  0.25535829  1
  Cu  Cu106  1  0.49643860  0.49157387  0.74817302  1
  Cu  Cu107  1  -0.00472208  0.66425594  0.49406614  1
  Cu  Cu108  1  0.00131091  0.01078665  0.49601822  1
  Cu  Cu109  1  0.83585034  0.82823447  0.24708331  1
  Cu  Cu110  1  0.33877018  0.33014001  -0.00252260  1
  Cu  Cu111  1  0.67165024  0.00215629  0.50242938  1
  Cu  Cu112  1  0.33313999  0.00568941  0.00819452  1
  Cu  Cu113  1  -0.00232865  0.67306696  0.00682636  1
  Cu  Cu114  1  0.33764546  0.67112897  0.49606160  1
  Se  Se115  1  0.07709097  0.07935465  0.06559320  1
  Se  Se116  1  0.08689781  0.08723883  0.55205665  1
  Se  Se117  1  0.08160095  0.39496095  0.06135710  1
  Se  Se118  1  0.10775101  0.43122338  0.55175831  1
  Se  Se119  1  0.08505298  0.75496790  0.05637651  1
  Se  Se120  1  0.07276912  0.74706097  0.55634915  1
  Se  Se121  1  0.41490087  0.09183984  0.05888582  1
  Se  Se122  1  0.40948040  0.07215892  0.54632200  1
  Se  Se123  1  0.41352167  0.41387440  0.05910187  1
  Se  Se124  1  0.41515837  0.40311985  0.55887419  1
  Se  Se125  1  0.42124289  0.75744033  0.05489057  1
  Se  Se126  1  0.41847333  0.74847323  0.55401258  1
  Se  Se127  1  0.72766799  0.07229654  0.04299638  1
  Se  Se128  1  0.75442227  0.08899339  0.55166646  1
  Se  Se129  1  0.74269599  0.40954326  0.05762214  1
  Se  Se130  1  0.74790918  0.40931753  0.56351059  1
  Se  Se131  1  0.75165393  0.74912366  0.05484610  1
  Se  Se132  1  0.74338679  0.74157160  0.55699856  1
  Se  Se133  1  0.25897796  0.25623558  0.06291867  1
  Se  Se134  1  0.24617333  0.24272191  0.54870686  1
  Se  Se135  1  0.25563099  0.59507558  0.06099049  1
  Se  Se136  1  0.25030004  0.58695479  0.54345107  1
  Se  Se137  1  0.24617402  0.92302080  0.05774771  1
  Se  Se138  1  0.25358073  0.92411519  0.56266990  1
  Se  Se139  1  0.57796504  0.24959979  0.05196074  1
  Se  Se140  1  0.58041117  0.25167553  0.55320397  1
  Se  Se141  1  0.58853528  0.58719865  0.06050208  1
  Se  Se142  1  0.59042756  0.58549611  0.55474631  1
  Se  Se143  1  0.57904431  0.91628108  0.05364842  1
  Se  Se144  1  0.59053308  0.91431065  0.55276261  1
  Se  Se145  1  0.91035626  0.23990321  0.05534451  1
  Se  Se146  1  0.91550944  0.26107992  0.55840735  1
  Se  Se147  1  0.92855173  0.58368711  0.06697462  1
  Se  Se148  1  0.91954702  0.58615361  0.55828996  1
  Se  Se149  1  0.91557381  0.91733945  0.05210994  1
  Se  Se150  1  0.92192134  0.92714565  0.55596337  1
  Se  Se151  1  0.09216201  0.23702097  0.44684072  1
  Se  Se152  1  0.07903753  0.24789708  0.93885053  1
  Se  Se153  1  0.08287535  0.58157166  0.44613488  1
  Se  Se154  1  0.07444135  0.59196340  0.94376756  1
  Se  Se155  1  0.08074472  0.92864821  0.43731679  1
  Se  Se156  1  0.08770110  0.91638980  0.95095145  1
  Se  Se157  1  0.42192702  0.24551004  0.44751522  1
  Se  Se158  1  0.42302646  0.24853713  0.94530833  1
  Se  Se159  1  0.41135819  0.58877971  0.43257805  1
  Se  Se160  1  0.40205300  0.59735751  0.94014325  1
  Se  Se161  1  0.42845323  0.90262309  0.45178459  1
  Se  Se162  1  0.41696911  0.92221924  0.95317380  1
  Se  Se163  1  0.75005539  0.25263891  0.44675341  1
  Se  Se164  1  0.75802563  0.24952224  0.94637992  1
  Se  Se165  1  0.74356006  0.59380156  0.44305061  1
  Se  Se166  1  0.74113412  0.58635502  0.94256949  1
  Se  Se167  1  0.74596886  0.92802012  0.43388233  1
  Se  Se168  1  0.76219270  0.90409480  0.95033598  1
  Se  Se169  1  0.24919709  0.06649639  0.43247199  1
  Se  Se170  1  0.25980508  0.08170649  0.93916137  1
  Se  Se171  1  0.24808114  0.41310945  0.44775007  1
  Se  Se172  1  0.25343052  0.41157369  0.94268533  1
  Se  Se173  1  0.25777134  0.74950172  0.43293542  1
  Se  Se174  1  0.24288737  0.75984313  0.95029443  1
  Se  Se175  1  0.58506685  0.08855628  0.45405728  1
  Se  Se176  1  0.60586078  0.07485530  0.95285000  1
  Se  Se177  1  0.58964743  0.41243912  0.43646997  1
  Se  Se178  1  0.58828298  0.41007581  0.93850796  1
  Se  Se179  1  0.58376907  0.75529448  0.44970577  1
  Se  Se180  1  0.57858870  0.75370236  0.94721717  1
  Se  Se181  1  0.91058936  0.09215414  0.44898749  1
  Se  Se182  1  0.92169549  0.08614138  0.94592356  1
  Se  Se183  1  0.92904123  0.40309195  0.44413015  1
  Se  Se184  1  0.92030935  0.40530672  0.94202846  1
  Se  Se185  1  0.92249580  0.75170826  0.43649368  1
  Se  Se186  1  0.91090551  0.74919872  0.95198257  1
  Se  Se187  1  0.26589500  0.25925061  0.30778740  1
  Se  Se188  1  0.25227499  0.25034549  0.80163091  1
  Se  Se189  1  0.24839697  0.57860771  0.31057704  1
  Se  Se190  1  0.23855117  0.57368661  0.80308605  1
  Se  Se191  1  0.25001862  0.91891604  0.29453819  1
  Se  Se192  1  0.24630956  0.91259476  0.80983825  1
  Se  Se193  1  0.58881626  0.25405666  0.30365562  1
  Se  Se194  1  0.59722088  0.25040046  0.80457434  1
  Se  Se195  1  0.58661516  0.58814944  0.30206058  1
  Se  Se196  1  0.57345744  0.58164713  0.80097610  1
  Se  Se197  1  0.57434197  0.92174482  0.31384054  1
  Se  Se198  1  0.57591014  0.91496984  0.81244992  1
  Se  Se199  1  0.91358929  0.24533373  0.30437454  1
  Se  Se200  1  0.93435800  0.26919799  0.80480779  1
  Se  Se201  1  0.92134584  0.58105797  0.30514536  1
  Se  Se202  1  0.90530794  0.57600772  0.81400862  1
  Se  Se203  1  0.91422791  0.91506400  0.30004980  1
  Se  Se204  1  0.91609070  0.91967929  0.81005076  1
  Se  Se205  1  0.04781362  0.05889676  0.30954746  1
  Se  Se206  1  0.09032007  0.08509209  0.80121042  1
  Se  Se207  1  0.08536121  0.40943943  0.30940482  1
  Se  Se208  1  0.08161954  0.41559676  0.79909964  1
  Se  Se209  1  0.08180942  0.74539304  0.29732987  1
  Se  Se210  1  0.08021392  0.75265260  0.81492098  1
  Se  Se211  1  0.41959507  0.08244457  0.30959539  1
  Se  Se212  1  0.43512747  0.08826387  0.80979893  1
  Se  Se213  1  0.41860199  0.41469653  0.29932002  1
  Se  Se214  1  0.41224911  0.40962992  0.80075510  1
  Se  Se215  1  0.41971641  0.76098223  0.31017154  1
  Se  Se216  1  0.41328207  0.75570451  0.80704799  1
  Se  Se217  1  0.74746328  0.08836070  0.30922066  1
  Se  Se218  1  0.76182014  0.08884019  0.81010753  1
  Se  Se219  1  0.75354138  0.41452982  0.30422639  1
  Se  Se220  1  0.74460195  0.41674653  0.79892413  1
  Se  Se221  1  0.74976019  0.75128546  0.30271483  1
  Se  Se222  1  0.74197969  0.75273833  0.80396492  1
  Se  Se223  1  0.23444801  0.09824765  0.20593378  1
  Se  Se224  1  0.24715456  0.09156692  0.68530835  1
  Se  Se225  1  0.25245799  0.41023027  0.20185235  1
  Se  Se226  1  0.25290834  0.41098735  0.69194647  1
  Se  Se227  1  0.25059423  0.75665331  0.18691917  1
  Se  Se228  1  0.23357113  0.75858415  0.69410974  1
  Se  Se229  1  0.57753437  0.09365177  0.19070006  1
  Se  Se230  1  0.57742764  0.08680670  0.68532370  1
  Se  Se231  1  0.58774471  0.41536599  0.19843818  1
  Se  Se232  1  0.58494016  0.41072014  0.69817104  1
  Se  Se233  1  0.58770726  0.75633233  0.20054293  1
  Se  Se234  1  0.58437940  0.74556571  0.69960280  1
  Se  Se235  1  0.90248298  0.07801259  0.19200880  1
  Se  Se236  1  0.93077991  0.08225405  0.69505154  1
  Se  Se237  1  0.91857161  0.40788699  0.19876248  1
  Se  Se238  1  0.91808321  0.41892508  0.69820043  1
  Se  Se239  1  0.92274953  0.74676866  0.19491634  1
  Se  Se240  1  0.90962992  0.76047494  0.69356059  1
  Se  Se241  1  0.07215555  0.24610016  0.20725779  1
  Se  Se242  1  0.08345750  0.25306352  0.69094094  1
  Se  Se243  1  0.08643557  0.57625757  0.20134690  1
  Se  Se244  1  0.08149779  0.57518953  0.68179743  1
  Se  Se245  1  0.08033442  0.91724651  0.19560130  1
  Se  Se246  1  0.07530907  0.92484294  0.70383732  1
  Se  Se247  1  0.41855264  0.25123107  0.19974022  1
  Se  Se248  1  0.40972479  0.23995361  0.69739792  1
  Se  Se249  1  0.42796417  0.57523930  0.18640856  1
  Se  Se250  1  0.42058665  0.56798147  0.68124299  1
  Se  Se251  1  0.41669100  0.92726745  0.19854907  1
  Se  Se252  1  0.42193161  0.91169748  0.69130725  1
  Se  Se253  1  0.74392855  0.24833570  0.19299315  1
  Se  Se254  1  0.74193668  0.24067490  0.70363805  1
  Se  Se255  1  0.75522182  0.58206704  0.20039031  1
  Se  Se256  1  0.74405244  0.58516430  0.69799431  1
  Se  Se257  1  0.75889930  0.90986656  0.18451247  1
  Se  Se258  1  0.75645035  0.91377533  0.69012877  1
