# generated using pymatgen
data_In86Cu29Se144
_symmetry_space_group_name_H-M   'P 1'
_cell_length_a   17.57939960
_cell_length_b   17.58185135
_cell_length_c   23.43808205
_cell_angle_alpha   90.00193228
_cell_angle_beta   90.02224048
_cell_angle_gamma   90.01876334
_symmetry_Int_Tables_number   1
_chemical_formula_structural   In86Cu29Se144
_chemical_formula_sum   'In86 Cu29 Se144'
_cell_volume   7244.20373598
_cell_formula_units_Z   1
loop_
 _symmetry_equiv_pos_site_id
 _symmetry_equiv_pos_as_xyz
  1  'x, y, z'
loop_
 _atom_site_type_symbol
 _atom_site_label
 _atom_site_symmetry_multiplicity
 _atom_site_fract_x
 _atom_site_fract_y
 _atom_site_fract_z
 _atom_site_occupancy
  In  In0  1  -0.01569306  0.16315384  0.12602427  1
  In  In1  1  -0.00524781  0.16594935  0.60962150  1
  In  In2  1  -0.00252291  0.49171509  0.12651449  1
  In  In3  1  0.01354465  0.50852638  0.62803484  1
  In  In4  1  0.00138112  0.84924524  0.12837491  1
  In  In5  1  -0.00704485  0.81738209  0.61245315  1
  In  In6  1  0.34150301  0.15910594  0.12916958  1
  In  In7  1  0.32281082  0.17039574  0.63963261  1
  In  In8  1  0.33471672  0.48237233  0.12749429  1
  In  In9  1  0.33688361  0.49072167  0.63141227  1
  In  In10  1  0.34580285  0.83189513  0.12417134  1
  In  In11  1  0.33677895  0.83755686  0.62492092  1
  In  In12  1  0.67147113  0.17346374  0.12102541  1
  In  In13  1  0.67426932  0.15287182  0.62765098  1
  In  In14  1  0.65689372  0.51428387  0.13271806  1
  In  In15  1  0.66895737  0.51922408  0.62572367  1
  In  In16  1  0.66180987  0.82526195  0.12228551  1
  In  In17  1  0.66035337  0.83612775  0.62001610  1
  In  In18  1  0.16756880  0.00262589  0.37992745  1
  In  In19  1  0.16666036  -0.00494789  0.86395364  1
  In  In20  1  0.16585690  0.31325112  0.37831489  1
  In  In21  1  0.18345383  0.32964700  0.86638361  1
  In  In22  1  0.16746641  0.67155230  0.39004488  1
  In  In23  1  0.17054869  0.66520860  0.85634405  1
  In  In24  1  0.49046589  0.00491422  0.37778089  1
  In  In25  1  0.50160136  -0.00383622  0.87533941  1
  In  In26  1  0.50758342  0.33905576  0.36806183  1
  In  In27  1  0.49422105  0.33620631  0.88189990  1
  In  In28  1  0.50811192  0.65966982  0.38155097  1
  In  In29  1  0.50390591  0.66840015  0.86998533  1
  In  In30  1  0.84156745  -0.01368268  0.38550211  1
  In  In31  1  0.81623882  0.00885225  0.87867090  1
  In  In32  1  0.81783810  0.33832647  0.37756783  1
  In  In33  1  0.82414376  0.32098951  0.87630584  1
  In  In34  1  0.83005225  0.67826836  0.37788108  1
  In  In35  1  0.84261175  0.68115433  0.86559891  1
  In  In36  1  0.01463828  0.16164484  0.38710910  1
  In  In37  1  -0.01125413  0.15558218  0.87192681  1
  In  In38  1  -0.00549221  0.50251754  0.37816343  1
  In  In39  1  -0.00929016  0.50519678  0.87060163  1
  In  In40  1  -0.01407618  0.83780078  0.38937270  1
  In  In41  1  -0.00298177  0.82799018  0.87128666  1
  In  In42  1  0.33058146  0.15607218  0.37099321  1
  In  In43  1  0.34164082  0.17575477  0.86208812  1
  In  In44  1  0.34807700  0.50501286  0.37529340  1
  In  In45  1  0.34524802  0.51209655  0.85932671  1
  In  In46  1  0.32742180  0.84373479  0.38533623  1
  In  In47  1  0.34625903  0.84079840  0.86374088  1
  In  In48  1  0.65798783  0.17468246  0.37644425  1
  In  In49  1  0.67471053  0.14900608  0.88093644  1
  In  In50  1  0.65820076  0.48877986  0.36675457  1
  In  In51  1  0.65183424  0.49903777  0.87589019  1
  In  In52  1  0.67791719  0.82660751  0.38552996  1
  In  In53  1  0.66586982  0.83493938  0.87360942  1
  In  In54  1  0.16479502  -0.00079283  0.13377249  1
  In  In55  1  0.17820828  0.00896306  0.62066319  1
  In  In56  1  0.17421953  0.33986970  0.12918505  1
  In  In57  1  0.17780506  0.33334350  0.62281331  1
  In  In58  1  0.16895796  0.66746981  0.12570232  1
  In  In59  1  0.15723466  0.67669425  0.63350253  1
  In  In60  1  0.49363677  -0.00700100  0.12040919  1
  In  In61  1  0.51090050  -0.01047043  0.63179867  1
  In  In62  1  0.50115487  0.33234566  0.12313142  1
  In  In63  1  0.48225488  0.33045398  0.62375938  1
  In  In64  1  0.51042163  0.67721321  0.11453265  1
  In  In65  1  0.50079157  0.66922320  0.62470679  1
  In  In66  1  0.83476695  0.00583219  0.12527500  1
  In  In67  1  0.82449061  -0.00344346  0.61355311  1
  In  In68  1  0.83591148  0.32284075  0.12864751  1
  In  In69  1  0.83841752  0.32020656  0.61913149  1
  In  In70  1  0.81461424  0.66591263  0.12507637  1
  In  In71  1  0.82353651  0.67868033  0.63229516  1
  In  In72  1  -0.00642820  0.67233847  0.26257410  1
  In  In73  1  -0.00221080  0.32787145  0.25031890  1
  In  In74  1  0.16652157  0.16530249  -0.00954547  1
  In  In75  1  0.82516603  0.50174127  0.00506759  1
  In  In76  1  0.66463080  0.00251725  0.25485867  1
  In  In77  1  0.00594542  0.33602880  0.74309912  1
  In  In78  1  0.33847019  0.66946140  0.25073621  1
  In  In79  1  0.49918641  0.16098082  0.50252762  1
  In  In80  1  0.66215772  0.33521578  0.75396321  1
  In  In81  1  0.17040029  0.49832724  0.50820087  1
  In  In82  1  0.17109143  0.83436937  -0.01336253  1
  In  In83  1  0.83194291  0.50051337  0.50189924  1
  In  In84  1  0.17190601  0.50490929  -0.00766916  1
  In  In85  1  0.00127784  -0.00024452  0.73711653  1
  Cu  Cu86  1  0.17016762  0.16069719  0.25508457  1
  Cu  Cu87  1  0.66225193  -0.00613345  0.00196206  1
  Cu  Cu88  1  0.50101602  0.83403221  0.24796008  1
  Cu  Cu89  1  0.50368658  0.83039493  0.74836202  1
  Cu  Cu90  1  0.49847822  0.17293253  0.24888899  1
  Cu  Cu91  1  0.16993185  0.83232988  0.74288831  1
  Cu  Cu92  1  0.83319349  0.83391508  0.25781001  1
  Cu  Cu93  1  0.33954062  0.67323574  0.50533453  1
  Cu  Cu94  1  0.33530085  0.33242145  0.50111290  1
  Cu  Cu95  1  0.49991989  0.49706621  0.24828286  1
  Cu  Cu96  1  0.65757978  0.33605139  0.49634253  1
  Cu  Cu97  1  0.33818511  -0.00222323  -0.00243935  1
  Cu  Cu98  1  0.33349354  0.00290287  0.50335389  1
  Cu  Cu99  1  0.34191877  0.32932002  -0.00076702  1
  Cu  Cu100  1  -0.00523098  0.67772415  -0.00406370  1
  Cu  Cu101  1  0.66149844  0.66865393  0.50308343  1
  Cu  Cu102  1  0.34516721  0.66233506  -0.00800845  1
  Cu  Cu103  1  0.83850505  0.16031808  0.25290828  1
  Cu  Cu104  1  0.50037575  0.50172668  0.74945352  1
  Cu  Cu105  1  0.16840389  0.84672503  0.25902309  1
  Cu  Cu106  1  0.00541506  -0.00454647  0.50312552  1
  Cu  Cu107  1  -0.01383644  0.00411786  0.00188543  1
  Cu  Cu108  1  0.50203388  0.16181018  0.74958856  1
  Cu  Cu109  1  0.66189586  0.32782946  0.00116116  1
  Cu  Cu110  1  0.83126015  0.84186846  0.74475639  1
  Cu  Cu111  1  -0.00425683  0.32530157  0.00031218  1
  Cu  Cu112  1  0.66599787  0.66943639  -0.00421092  1
  Cu  Cu113  1  0.83454298  0.50932325  0.74750120  1
  Cu  Cu114  1  0.16883652  0.49968950  0.25175420  1
  Se  Se115  1  0.07864939  0.07844964  0.05764387  1
  Se  Se116  1  0.08941090  0.08314112  0.55085483  1
  Se  Se117  1  0.07979896  0.40850405  0.05331619  1
  Se  Se118  1  0.07294424  0.40618364  0.55884912  1
  Se  Se119  1  0.08223253  0.75020558  0.05657278  1
  Se  Se120  1  0.09054843  0.74411451  0.55037466  1
  Se  Se121  1  0.41655345  0.08342727  0.05253141  1
  Se  Se122  1  0.41044231  0.08020649  0.56871085  1
  Se  Se123  1  0.41971214  0.41787370  0.05247054  1
  Se  Se124  1  0.41578968  0.42047852  0.55164242  1
  Se  Se125  1  0.41715802  0.75232402  0.04857161  1
  Se  Se126  1  0.42409322  0.75812970  0.55565686  1
  Se  Se127  1  0.74588390  0.07884827  0.05596535  1
  Se  Se128  1  0.75990841  0.09918001  0.54936483  1
  Se  Se129  1  0.74072001  0.40818377  0.06458948  1
  Se  Se130  1  0.73822692  0.41086196  0.56206753  1
  Se  Se131  1  0.74987438  0.75133729  0.05018449  1
  Se  Se132  1  0.74835682  0.75063067  0.55386156  1
  Se  Se133  1  0.25278783  0.25420787  0.05648144  1
  Se  Se134  1  0.25826695  0.24624153  0.55597162  1
  Se  Se135  1  0.26261140  0.59127718  0.05757751  1
  Se  Se136  1  0.25898388  0.59127034  0.56483654  1
  Se  Se137  1  0.25232075  0.92134094  0.05706691  1
  Se  Se138  1  0.25054913  0.91530609  0.55353189  1
  Se  Se139  1  0.57745860  0.24399753  0.05346140  1
  Se  Se140  1  0.58715581  0.25438866  0.56343696  1
  Se  Se141  1  0.58576707  0.58233434  0.04986035  1
  Se  Se142  1  0.57864028  0.58164433  0.55275533  1
  Se  Se143  1  0.57921438  0.90975921  0.05508875  1
  Se  Se144  1  0.58566922  0.92587846  0.55113699  1
  Se  Se145  1  0.91046872  0.24462641  0.05225436  1
  Se  Se146  1  0.91174071  0.24914605  0.54228004  1
  Se  Se147  1  0.92572707  0.59179660  0.05965043  1
  Se  Se148  1  0.91573271  0.58903380  0.56617123  1
  Se  Se149  1  0.91161921  0.91493824  0.05651109  1
  Se  Se150  1  0.91578873  0.91338973  0.55119878  1
  Se  Se151  1  0.08535986  0.25310311  0.45606969  1
  Se  Se152  1  0.07561476  0.25787991  0.93262396  1
  Se  Se153  1  0.07247237  0.58689320  0.45007713  1
  Se  Se154  1  0.07635944  0.59683321  0.93840884  1
  Se  Se155  1  0.08796712  0.91340081  0.44692292  1
  Se  Se156  1  0.07125260  0.93038756  0.94000269  1
  Se  Se157  1  0.41539481  0.25353328  0.43826034  1
  Se  Se158  1  0.41693079  0.23988478  0.94492054  1
  Se  Se159  1  0.41724400  0.58570920  0.45095404  1
  Se  Se160  1  0.42473380  0.57749982  0.93872577  1
  Se  Se161  1  0.41931474  0.92068735  0.45158996  1
  Se  Se162  1  0.41808276  0.91062079  0.94486205  1
  Se  Se163  1  0.74278794  0.25151407  0.44750666  1
  Se  Se164  1  0.74712895  0.24477660  0.94965000  1
  Se  Se165  1  0.73857458  0.58529307  0.44025136  1
  Se  Se166  1  0.74813650  0.59051953  0.93533778  1
  Se  Se167  1  0.75061983  0.91527190  0.45318343  1
  Se  Se168  1  0.74800650  0.91460485  0.94682152  1
  Se  Se169  1  0.25159307  0.08732717  0.44875732  1
  Se  Se170  1  0.25745528  0.07316208  0.93478798  1
  Se  Se171  1  0.25629762  0.41344829  0.43887572  1
  Se  Se172  1  0.26435736  0.41235184  0.93871746  1
  Se  Se173  1  0.25251489  0.75423752  0.45418062  1
  Se  Se174  1  0.25994222  0.73866178  0.93236319  1
  Se  Se175  1  0.59295901  0.07328312  0.44440044  1
  Se  Se176  1  0.58043271  0.07884489  0.94821492  1
  Se  Se177  1  0.57625398  0.42147054  0.44504222  1
  Se  Se178  1  0.58194002  0.41576909  0.94980601  1
  Se  Se179  1  0.57963996  0.75301169  0.44873286  1
  Se  Se180  1  0.58147480  0.75137193  0.94218960  1
  Se  Se181  1  0.92254856  0.07850369  0.44815340  1
  Se  Se182  1  0.90636311  0.08812360  0.94736466  1
  Se  Se183  1  0.92180389  0.40644042  0.44419717  1
  Se  Se184  1  0.91722657  0.41093604  0.94261233  1
  Se  Se185  1  0.91957948  0.73683416  0.45153076  1
  Se  Se186  1  0.91012321  0.75995372  0.94562026  1
  Se  Se187  1  0.25283153  0.24830167  0.30402659  1
  Se  Se188  1  0.24310725  0.23859418  0.79503839  1
  Se  Se189  1  0.24251436  0.58453101  0.31256520  1
  Se  Se190  1  0.24526797  0.57276830  0.79400035  1
  Se  Se191  1  0.25747530  0.92573532  0.30934695  1
  Se  Se192  1  0.25162149  0.91477093  0.79795376  1
  Se  Se193  1  0.58695535  0.25287310  0.29932249  1
  Se  Se194  1  0.57920302  0.24107791  0.81490336  1
  Se  Se195  1  0.57894812  0.58334717  0.30320283  1
  Se  Se196  1  0.58715446  0.58386849  0.80031128  1
  Se  Se197  1  0.57802975  0.90966936  0.31407618  1
  Se  Se198  1  0.58406118  0.91676154  0.80348472  1
  Se  Se199  1  0.91398721  0.24215029  0.31644719  1
  Se  Se200  1  0.91055990  0.24716910  0.80228659  1
  Se  Se201  1  0.90080137  0.57409576  0.30955130  1
  Se  Se202  1  0.92119115  0.59152696  0.79873347  1
  Se  Se203  1  0.92050135  0.91488870  0.30786185  1
  Se  Se204  1  0.91217558  0.92012684  0.80682748  1
  Se  Se205  1  0.08298601  0.08290324  0.30854064  1
  Se  Se206  1  0.08701109  0.09251016  0.80173529  1
  Se  Se207  1  0.08793012  0.42027386  0.31203421  1
  Se  Se208  1  0.08845616  0.42329474  0.81101961  1
  Se  Se209  1  0.09177420  0.75916173  0.31599517  1
  Se  Se210  1  0.08263680  0.75640519  0.79935824  1
  Se  Se211  1  0.41997454  0.08330864  0.30050951  1
  Se  Se212  1  0.41916349  0.07723086  0.80354411  1
  Se  Se213  1  0.41468336  0.41706229  0.30224942  1
  Se  Se214  1  0.42294043  0.41089968  0.80220827  1
  Se  Se215  1  0.42186387  0.75833973  0.31444013  1
  Se  Se216  1  0.41778373  0.74486643  0.79874468  1
  Se  Se217  1  0.75750090  0.08593721  0.31683072  1
  Se  Se218  1  0.75210790  0.08752378  0.80019426  1
  Se  Se219  1  0.74747411  0.41211740  0.30053813  1
  Se  Se220  1  0.75951290  0.42732566  0.81050775  1
  Se  Se221  1  0.74500914  0.75007084  0.30432145  1
  Se  Se222  1  0.75048326  0.75712126  0.80097499  1
  Se  Se223  1  0.25303485  0.08130287  0.19678293  1
  Se  Se224  1  0.25148703  0.07282108  0.70282283  1
  Se  Se225  1  0.25323848  0.41329234  0.20414395  1
  Se  Se226  1  0.24182495  0.41924748  0.69676756  1
  Se  Se227  1  0.24119418  0.76304595  0.19516007  1
  Se  Se228  1  0.25816704  0.74914502  0.69426938  1
  Se  Se229  1  0.57726121  0.08779398  0.18933335  1
  Se  Se230  1  0.58839347  0.08053818  0.69912577  1
  Se  Se231  1  0.58339432  0.41451572  0.19367534  1
  Se  Se232  1  0.57823273  0.42130555  0.68658031  1
  Se  Se233  1  0.58194961  0.74743486  0.19626088  1
  Se  Se234  1  0.58767687  0.74927530  0.69336438  1
  Se  Se235  1  0.92021624  0.07559714  0.20069641  1
  Se  Se236  1  0.90811923  0.09034557  0.68375625  1
  Se  Se237  1  0.90515829  0.42449762  0.19734653  1
  Se  Se238  1  0.90674557  0.42478136  0.68654460  1
  Se  Se239  1  0.91177398  0.75621917  0.19150028  1
  Se  Se240  1  0.91812685  0.75568644  0.69677784  1
  Se  Se241  1  0.09122377  0.23831511  0.18903852  1
  Se  Se242  1  0.08637633  0.23986010  0.68338313  1
  Se  Se243  1  0.08586959  0.57959267  0.19465741  1
  Se  Se244  1  0.08697422  0.58422433  0.70257398  1
  Se  Se245  1  0.07965913  0.92207504  0.20408163  1
  Se  Se246  1  0.08873955  0.90685716  0.67950777  1
  Se  Se247  1  0.41420210  0.25446723  0.19411103  1
  Se  Se248  1  0.41776705  0.25035205  0.70214246  1
  Se  Se249  1  0.42262458  0.58055566  0.18613518  1
  Se  Se250  1  0.41875581  0.58345693  0.69362036  1
  Se  Se251  1  0.41559493  0.91735302  0.19740748  1
  Se  Se252  1  0.41834705  0.91630213  0.69860996  1
  Se  Se253  1  0.75436734  0.24172143  0.19862056  1
  Se  Se254  1  0.75477719  0.24779222  0.69587855  1
  Se  Se255  1  0.75182101  0.58267839  0.19963539  1
  Se  Se256  1  0.74457323  0.59269751  0.70226144  1
  Se  Se257  1  0.75208630  0.91043143  0.19382581  1
  Se  Se258  1  0.74730249  0.91958453  0.68875065  1
