# generated using pymatgen
data_In86Cu29Se144
_symmetry_space_group_name_H-M   'P 1'
_cell_length_a   17.58231715
_cell_length_b   17.57993778
_cell_length_c   23.44155197
_cell_angle_alpha   89.99777538
_cell_angle_beta   90.04394368
_cell_angle_gamma   89.97549915
_symmetry_Int_Tables_number   1
_chemical_formula_structural   In86Cu29Se144
_chemical_formula_sum   'In86 Cu29 Se144'
_cell_volume   7245.68812319
_cell_formula_units_Z   1
loop_
 _symmetry_equiv_pos_site_id
 _symmetry_equiv_pos_as_xyz
  1  'x, y, z'
loop_
 _atom_site_type_symbol
 _atom_site_label
 _atom_site_symmetry_multiplicity
 _atom_site_fract_x
 _atom_site_fract_y
 _atom_site_fract_z
 _atom_site_occupancy
  In  In0  1  0.00342818  0.15918061  0.12095160  1
  In  In1  1  0.00256207  0.16461235  0.62334302  1
  In  In2  1  0.01626148  0.49594510  0.12338742  1
  In  In3  1  -0.00317475  0.50497179  0.62511676  1
  In  In4  1  0.00650769  0.82756603  0.12348176  1
  In  In5  1  0.00888745  0.83135739  0.63312280  1
  In  In6  1  0.33895354  0.17080969  0.12147923  1
  In  In7  1  0.34103029  0.17533261  0.62113720  1
  In  In8  1  0.32434843  0.50882600  0.13334582  1
  In  In9  1  0.32834359  0.48261787  0.62243015  1
  In  In10  1  0.32553195  0.82524368  0.11702201  1
  In  In11  1  0.31832333  0.84743446  0.62605307  1
  In  In12  1  0.65938141  0.17243873  0.13365178  1
  In  In13  1  0.65698928  0.16269585  0.62090560  1
  In  In14  1  0.66625163  0.50253016  0.14234153  1
  In  In15  1  0.66648745  0.49893914  0.60898717  1
  In  In16  1  0.65605126  0.84344666  0.13675337  1
  In  In17  1  0.67436726  0.83557516  0.62572251  1
  In  In18  1  0.16396926  -0.00138056  0.38667299  1
  In  In19  1  0.16739552  0.00208415  0.87378161  1
  In  In20  1  0.16251001  0.32044385  0.37473985  1
  In  In21  1  0.17083822  0.33250275  0.87211491  1
  In  In22  1  0.17085113  0.67585069  0.36399346  1
  In  In23  1  0.16007723  0.67612187  0.88202603  1
  In  In24  1  0.50931473  0.00143750  0.37584547  1
  In  In25  1  0.50298358  0.00371729  0.88312671  1
  In  In26  1  0.50023804  0.33111427  0.37605638  1
  In  In27  1  0.48237758  0.32566453  0.87173454  1
  In  In28  1  0.48930124  0.65795288  0.36660947  1
  In  In29  1  0.51171363  0.67174248  0.88178051  1
  In  In30  1  0.83278325  0.01242763  0.38129842  1
  In  In31  1  0.83999580  0.00039885  0.86761601  1
  In  In32  1  0.82557416  0.33969832  0.38342345  1
  In  In33  1  0.84146087  0.31817973  0.87335847  1
  In  In34  1  0.82111088  0.64841169  0.35621480  1
  In  In35  1  0.84407695  0.66037546  0.87647918  1
  In  In36  1  -0.00095834  0.15547288  0.39561112  1
  In  In37  1  0.02994649  0.17849175  0.84455390  1
  In  In38  1  -0.01847554  0.50459848  0.37297870  1
  In  In39  1  0.01111554  0.51550032  0.86339052  1
  In  In40  1  0.01839877  0.82461088  0.37916581  1
  In  In41  1  0.02090432  0.84785677  0.85639942  1
  In  In42  1  0.32265166  0.17806312  0.37896325  1
  In  In43  1  0.32434961  0.17340332  0.87772822  1
  In  In44  1  0.34162269  0.50584654  0.36968539  1
  In  In45  1  0.33122070  0.47984058  0.87191091  1
  In  In46  1  0.32472217  0.82374633  0.37175823  1
  In  In47  1  0.33307718  0.84016543  0.88564723  1
  In  In48  1  0.66298332  0.16742936  0.37833068  1
  In  In49  1  0.66411395  0.15178293  0.87597344  1
  In  In50  1  0.67007900  0.48866932  0.37031320  1
  In  In51  1  0.66814146  0.50610918  0.87989789  1
  In  In52  1  0.66545936  0.83598403  0.36462368  1
  In  In53  1  0.65669689  0.84661739  0.88760168  1
  In  In54  1  0.16331176  0.00079851  0.11312380  1
  In  In55  1  0.15289567  -0.00207790  0.61863660  1
  In  In56  1  0.17303898  0.34168443  0.11827364  1
  In  In57  1  0.17705853  0.31448290  0.63943470  1
  In  In58  1  0.17211196  0.66887596  0.12607908  1
  In  In59  1  0.15183131  0.67017155  0.62364088  1
  In  In60  1  0.51312995  0.00574270  0.11473103  1
  In  In61  1  0.49464923  0.02542951  0.63567111  1
  In  In62  1  0.49960440  0.32810703  0.13289878  1
  In  In63  1  0.48993206  0.32507667  0.61628302  1
  In  In64  1  0.48931417  0.67421053  0.13384603  1
  In  In65  1  0.51160862  0.66911045  0.61563867  1
  In  In66  1  0.83114579  -0.00660351  0.12812972  1
  In  In67  1  0.81956794  0.00493390  0.63086699  1
  In  In68  1  0.82905455  0.32658843  0.13209100  1
  In  In69  1  0.84165310  0.34152571  0.61723416  1
  In  In70  1  0.83876810  0.65885156  0.14163537  1
  In  In71  1  0.84500473  0.66694545  0.61930042  1
  In  In72  1  0.32705037  0.00620510  0.75471342  1
  In  In73  1  -0.00376089  -0.00421997  0.25188364  1
  In  In74  1  0.49452316  0.50082775  0.00297291  1
  In  In75  1  0.49393013  0.83652624  0.49739027  1
  In  In76  1  0.67038426  0.33214102  0.75230650  1
  In  In77  1  0.33125280  0.66400210  0.74622268  1
  In  In78  1  0.84002354  0.49472372  0.00931955  1
  In  In79  1  0.16321402  0.49792934  0.50213548  1
  In  In80  1  0.83737274  0.83215749  0.49887593  1
  In  In81  1  0.33323685  -0.00578189  0.24761849  1
  In  In82  1  0.83863206  0.16172492  -0.00103958  1
  In  In83  1  0.67476693  0.67228489  0.75707867  1
  In  In84  1  -0.00596225  0.33606091  0.25506904  1
  In  In85  1  0.83857615  0.83231202  0.00386672  1
  Cu  Cu86  1  0.66691588  0.67515707  0.01152832  1
  Cu  Cu87  1  0.83154483  0.83474480  0.25088962  1
  Cu  Cu88  1  0.83532953  0.50169345  0.74450755  1
  Cu  Cu89  1  0.32751468  0.32778793  -0.00008826  1
  Cu  Cu90  1  0.65938034  0.00474279  0.50442933  1
  Cu  Cu91  1  0.50135706  0.84109753  0.75967644  1
  Cu  Cu92  1  0.00720721  0.33268981  -0.01086286  1
  Cu  Cu93  1  0.33780622  -0.00101537  -0.00027642  1
  Cu  Cu94  1  0.65500175  0.32762122  0.00594945  1
  Cu  Cu95  1  0.32830686  0.66875920  0.49183620  1
  Cu  Cu96  1  0.01302186  0.67122204  -0.00195255  1
  Cu  Cu97  1  0.83444080  0.83317134  0.74647574  1
  Cu  Cu98  1  0.33730257  0.33504223  0.49968853  1
  Cu  Cu99  1  0.49755981  0.49260226  0.74313431  1
  Cu  Cu100  1  0.66871963  0.32990716  0.49607682  1
  Cu  Cu101  1  0.66541111  0.65732866  0.48602935  1
  Cu  Cu102  1  0.50100623  0.49120123  0.25353938  1
  Cu  Cu103  1  0.82481021  0.17018492  0.26038188  1
  Cu  Cu104  1  0.32758575  0.00595958  0.50547012  1
  Cu  Cu105  1  0.16941039  0.50495877  0.24800399  1
  Cu  Cu106  1  0.33150857  0.66266874  0.00571337  1
  Cu  Cu107  1  0.00297566  0.32852114  0.50287009  1
  Cu  Cu108  1  0.00853692  0.00719853  -0.01174545  1
  Cu  Cu109  1  0.16715542  0.49531765  0.74668690  1
  Cu  Cu110  1  0.83821662  0.16627947  0.74645780  1
  Cu  Cu111  1  0.16596689  0.16811302  0.25215078  1
  Cu  Cu112  1  0.49728455  0.16782887  0.25050661  1
  Cu  Cu113  1  0.49988725  0.83337564  0.24846283  1
  Cu  Cu114  1  -0.00389877  0.66513479  0.49833577  1
  Se  Se115  1  0.08683780  0.09179418  0.04593063  1
  Se  Se116  1  0.08548887  0.09046889  0.54971243  1
  Se  Se117  1  0.08562121  0.41615689  0.04706900  1
  Se  Se118  1  0.08335507  0.40564595  0.56573030  1
  Se  Se119  1  0.09339951  0.75451865  0.05330379  1
  Se  Se120  1  0.07579438  0.75172700  0.55148901  1
  Se  Se121  1  0.41756727  0.08436060  0.05389095  1
  Se  Se122  1  0.41926003  0.08578433  0.55248098  1
  Se  Se123  1  0.40623154  0.41013482  0.06222731  1
  Se  Se124  1  0.42034039  0.42249541  0.54923842  1
  Se  Se125  1  0.42010229  0.74665813  0.05262310  1
  Se  Se126  1  0.40277845  0.74818339  0.55993265  1
  Se  Se127  1  0.74689850  0.08241761  0.06365019  1
  Se  Se128  1  0.74816331  0.08523981  0.55407749  1
  Se  Se129  1  0.73744313  0.40927524  0.06211824  1
  Se  Se130  1  0.75414036  0.41643281  0.54627044  1
  Se  Se131  1  0.75356073  0.74662879  0.07090759  1
  Se  Se132  1  0.73879321  0.73768500  0.55302152  1
  Se  Se133  1  0.24466585  0.24407917  0.05423976  1
  Se  Se134  1  0.25169436  0.25507865  0.55432358  1
  Se  Se135  1  0.24687416  0.57831344  0.05502617  1
  Se  Se136  1  0.25514435  0.59091451  0.56052764  1
  Se  Se137  1  0.25019443  0.91649379  0.04999397  1
  Se  Se138  1  0.24180616  0.91697627  0.54909823  1
  Se  Se139  1  0.57457931  0.24499501  0.05934937  1
  Se  Se140  1  0.58295752  0.25007024  0.55079153  1
  Se  Se141  1  0.58816954  0.58570955  0.06478730  1
  Se  Se142  1  0.57909946  0.58157224  0.54358597  1
  Se  Se143  1  0.59162398  0.91118628  0.05337438  1
  Se  Se144  1  0.58027007  0.92186895  0.56408113  1
  Se  Se145  1  0.92566266  0.26258090  0.05658924  1
  Se  Se146  1  0.91566370  0.24616497  0.55346832  1
  Se  Se147  1  0.92855658  0.59583889  0.05921782  1
  Se  Se148  1  0.91479103  0.57739241  0.54864655  1
  Se  Se149  1  0.93223060  0.93187529  0.05624131  1
  Se  Se150  1  0.91434221  0.91646058  0.56858090  1
  Se  Se151  1  0.08930448  0.24631781  0.45197722  1
  Se  Se152  1  0.08323764  0.24424511  0.93587243  1
  Se  Se153  1  0.08037605  0.58784383  0.43757469  1
  Se  Se154  1  0.08710741  0.57779234  0.94615330  1
  Se  Se155  1  0.06102691  0.93122050  0.44649355  1
  Se  Se156  1  0.08731152  0.91289468  0.94199834  1
  Se  Se157  1  0.41745898  0.24817558  0.44629553  1
  Se  Se158  1  0.41508458  0.24635960  0.94917819  1
  Se  Se159  1  0.41586599  0.58447080  0.44621803  1
  Se  Se160  1  0.40729577  0.58762406  0.93698130  1
  Se  Se161  1  0.40206395  0.92649431  0.43791415  1
  Se  Se162  1  0.42459052  0.91459120  0.95083125  1
  Se  Se163  1  0.75325535  0.24315836  0.44725074  1
  Se  Se164  1  0.74270807  0.25682733  0.94480497  1
  Se  Se165  1  0.75456217  0.57619303  0.43859211  1
  Se  Se166  1  0.74716639  0.59396314  0.95197042  1
  Se  Se167  1  0.73561752  0.91921752  0.44494400  1
  Se  Se168  1  0.75440445  0.93083778  0.94751766  1
  Se  Se169  1  0.24754081  0.08885226  0.44787660  1
  Se  Se170  1  0.25191449  0.07895837  0.94441315  1
  Se  Se171  1  0.25378713  0.41279871  0.43861605  1
  Se  Se172  1  0.24709317  0.41477364  0.94751884  1
  Se  Se173  1  0.24030649  0.75182403  0.44532862  1
  Se  Se174  1  0.25289868  0.74891896  0.94884152  1
  Se  Se175  1  0.57715894  0.08712476  0.44944720  1
  Se  Se176  1  0.58507468  0.08597433  0.95252607  1
  Se  Se177  1  0.58506029  0.41496226  0.44353671  1
  Se  Se178  1  0.58461911  0.40996761  0.94052706  1
  Se  Se179  1  0.58448837  0.74753118  0.43630787  1
  Se  Se180  1  0.58403873  0.75406253  0.95522995  1
  Se  Se181  1  0.91300134  0.07379728  0.45953825  1
  Se  Se182  1  0.93080527  0.08982807  0.92976581  1
  Se  Se183  1  0.92293190  0.41364722  0.44804090  1
  Se  Se184  1  0.92264585  0.41618852  0.93585330  1
  Se  Se185  1  0.91394413  0.73829873  0.43358988  1
  Se  Se186  1  0.92982955  0.75067449  0.93907039  1
  Se  Se187  1  0.25012249  0.25440894  0.30015902  1
  Se  Se188  1  0.24501426  0.24426989  0.80249099  1
  Se  Se189  1  0.25479412  0.58597398  0.30235829  1
  Se  Se190  1  0.24584134  0.57578082  0.81016682  1
  Se  Se191  1  0.23606227  0.91368006  0.30802675  1
  Se  Se192  1  0.24614572  0.90161157  0.80714437  1
  Se  Se193  1  0.58258127  0.24813888  0.30607559  1
  Se  Se194  1  0.57949118  0.24324833  0.80967452  1
  Se  Se195  1  0.58291816  0.57762404  0.30597630  1
  Se  Se196  1  0.57451666  0.57419901  0.80516228  1
  Se  Se197  1  0.58015308  0.92130034  0.29990897  1
  Se  Se198  1  0.58569872  0.92372455  0.81007600  1
  Se  Se199  1  0.91666657  0.23904413  0.31863914  1
  Se  Se200  1  0.92073708  0.25496663  0.79481534  1
  Se  Se201  1  0.93102233  0.59379858  0.29561003  1
  Se  Se202  1  0.91617585  0.58897070  0.79722406  1
  Se  Se203  1  0.90864856  0.90997870  0.31675898  1
  Se  Se204  1  0.91899893  0.91880015  0.79701829  1
  Se  Se205  1  0.08427877  0.09052212  0.31137287  1
  Se  Se206  1  0.08144020  0.05962223  0.79428559  1
  Se  Se207  1  0.09024501  0.42686415  0.31192320  1
  Se  Se208  1  0.08364800  0.41548191  0.80337707  1
  Se  Se209  1  0.07858285  0.74913818  0.29758138  1
  Se  Se210  1  0.07593948  0.73245073  0.80286185  1
  Se  Se211  1  0.41581611  0.08760891  0.31106120  1
  Se  Se212  1  0.42151343  0.09085652  0.81233904  1
  Se  Se213  1  0.41412232  0.40996317  0.30531820  1
  Se  Se214  1  0.41505084  0.41102450  0.79674763  1
  Se  Se215  1  0.41427206  0.75301384  0.30214104  1
  Se  Se216  1  0.42240548  0.75207269  0.81159809  1
  Se  Se217  1  0.74439516  0.07999578  0.30895873  1
  Se  Se218  1  0.75499114  0.08744286  0.80355055  1
  Se  Se219  1  0.76222009  0.41512413  0.30282674  1
  Se  Se220  1  0.76118072  0.42740292  0.81276939  1
  Se  Se221  1  0.74454915  0.74921993  0.29820604  1
  Se  Se222  1  0.75924265  0.76427778  0.81963620  1
  Se  Se223  1  0.24078869  0.08641842  0.18975537  1
  Se  Se224  1  0.24722908  0.08626705  0.68259630  1
  Se  Se225  1  0.24749519  0.41355958  0.19728071  1
  Se  Se226  1  0.25597720  0.41110082  0.70097749  1
  Se  Se227  1  0.26144670  0.74437397  0.19453485  1
  Se  Se228  1  0.23823436  0.75717092  0.69357175  1
  Se  Se229  1  0.57802273  0.08159879  0.19755313  1
  Se  Se230  1  0.59615101  0.08173683  0.70100276  1
  Se  Se231  1  0.58500069  0.40808156  0.20120720  1
  Se  Se232  1  0.58586767  0.41990217  0.68564377  1
  Se  Se233  1  0.58521214  0.74487279  0.20025476  1
  Se  Se234  1  0.57655569  0.75714981  0.69622052  1
  Se  Se235  1  0.90645702  0.09551793  0.19528813  1
  Se  Se236  1  0.91699811  0.08066501  0.69224645  1
  Se  Se237  1  0.91181077  0.42631835  0.18942608  1
  Se  Se238  1  0.91818704  0.41699620  0.69381084  1
  Se  Se239  1  0.91965127  0.75911111  0.19639265  1
  Se  Se240  1  0.91497127  0.74759521  0.69425624  1
  Se  Se241  1  0.08363220  0.24752365  0.19105848  1
  Se  Se242  1  0.07183096  0.25126820  0.69784819  1
  Se  Se243  1  0.08519289  0.58523287  0.19352718  1
  Se  Se244  1  0.08435817  0.58097122  0.69525063  1
  Se  Se245  1  0.09297887  0.91520763  0.19155176  1
  Se  Se246  1  0.08727367  0.92048146  0.69884855  1
  Se  Se247  1  0.40973157  0.24894741  0.19945755  1
  Se  Se248  1  0.42638674  0.24593927  0.69431800  1
  Se  Se249  1  0.41994897  0.57783388  0.19968294  1
  Se  Se250  1  0.42562785  0.57958133  0.68356683  1
  Se  Se251  1  0.42353477  0.91176080  0.18344680  1
  Se  Se252  1  0.42169465  0.91264211  0.69365622  1
  Se  Se253  1  0.74537708  0.25239600  0.20296814  1
  Se  Se254  1  0.75719940  0.24820510  0.68656026  1
  Se  Se255  1  0.75347092  0.58010786  0.20731018  1
  Se  Se256  1  0.75020126  0.58027090  0.68750338  1
  Se  Se257  1  0.74886345  0.92250102  0.20166467  1
  Se  Se258  1  0.74347319  0.91567187  0.70128471  1
