# generated using pymatgen
data_In86Cu29Se144
_symmetry_space_group_name_H-M   'P 1'
_cell_length_a   17.57920288
_cell_length_b   17.58337854
_cell_length_c   23.44277063
_cell_angle_alpha   90.03437804
_cell_angle_beta   89.99500859
_cell_angle_gamma   89.95934800
_symmetry_Int_Tables_number   1
_chemical_formula_structural   In86Cu29Se144
_chemical_formula_sum   'In86 Cu29 Se144'
_cell_volume   7246.19894342
_cell_formula_units_Z   1
loop_
 _symmetry_equiv_pos_site_id
 _symmetry_equiv_pos_as_xyz
  1  'x, y, z'
loop_
 _atom_site_type_symbol
 _atom_site_label
 _atom_site_symmetry_multiplicity
 _atom_site_fract_x
 _atom_site_fract_y
 _atom_site_fract_z
 _atom_site_occupancy
  In  In0  1  0.01535903  0.17937581  0.11845957  1
  In  In1  1  0.01253434  0.17485595  0.62243233  1
  In  In2  1  -0.00159659  0.50082988  0.12903579  1
  In  In3  1  0.00139575  0.48766913  0.62666488  1
  In  In4  1  -0.01684558  0.82594172  0.12691687  1
  In  In5  1  -0.00283046  0.83126076  0.61527219  1
  In  In6  1  0.31607311  0.17189390  0.13673807  1
  In  In7  1  0.30928527  0.16114503  0.62432132  1
  In  In8  1  0.32616940  0.50238559  0.11965568  1
  In  In9  1  0.32996625  0.50930830  0.62420656  1
  In  In10  1  0.32601164  0.83417604  0.13355192  1
  In  In11  1  0.34096646  0.84002987  0.61324937  1
  In  In12  1  0.67988482  0.16123403  0.11967358  1
  In  In13  1  0.67848870  0.15733323  0.63384243  1
  In  In14  1  0.68058370  0.51324861  0.11367471  1
  In  In15  1  0.65889143  0.49687581  0.63192762  1
  In  In16  1  0.67208861  0.82170723  0.12833204  1
  In  In17  1  0.68139043  0.85365720  0.61083456  1
  In  In18  1  0.16585584  -0.00456014  0.37867948  1
  In  In19  1  0.18430979  0.00904150  0.87259029  1
  In  In20  1  0.16549850  0.33307607  0.37319808  1
  In  In21  1  0.16225241  0.33359573  0.88119269  1
  In  In22  1  0.16523610  0.66402035  0.37150093  1
  In  In23  1  0.15406853  0.66312044  0.88527786  1
  In  In24  1  0.48296990  -0.00036726  0.37561726  1
  In  In25  1  0.50140502  -0.00429095  0.86694521  1
  In  In26  1  0.49642585  0.34585687  0.37480543  1
  In  In27  1  0.50884859  0.33111128  0.87834188  1
  In  In28  1  0.50609549  0.67383164  0.36630304  1
  In  In29  1  0.49177906  0.66435852  0.88399069  1
  In  In30  1  0.84045278  -0.00035789  0.38095841  1
  In  In31  1  0.83487003  0.00367253  0.87563397  1
  In  In32  1  0.83999752  0.31956161  0.37653117  1
  In  In33  1  0.83615754  0.32796019  0.87616047  1
  In  In34  1  0.84728479  0.68951404  0.35213012  1
  In  In35  1  0.83904612  0.66979510  0.89070976  1
  In  In36  1  0.00066822  0.16897460  0.37627079  1
  In  In37  1  -0.00252851  0.17271955  0.87936450  1
  In  In38  1  0.00756423  0.51198474  0.36463642  1
  In  In39  1  0.01249627  0.49029660  0.88829054  1
  In  In40  1  0.00408525  0.83142276  0.37717077  1
  In  In41  1  -0.00792642  0.82930843  0.87797398  1
  In  In42  1  0.31060921  0.15291107  0.35595267  1
  In  In43  1  0.32791069  0.15193335  0.87659992  1
  In  In44  1  0.32278486  0.48728407  0.36290467  1
  In  In45  1  0.32662148  0.50666317  0.89658547  1
  In  In46  1  0.32962634  0.83185126  0.37405406  1
  In  In47  1  0.32909051  0.84097057  0.87520145  1
  In  In48  1  0.68284456  0.17348827  0.37950693  1
  In  In49  1  0.67366021  0.17215539  0.86664530  1
  In  In50  1  0.65720076  0.50910624  0.37277033  1
  In  In51  1  0.68083094  0.48770920  0.88865754  1
  In  In52  1  0.67442590  0.82616239  0.38161978  1
  In  In53  1  0.67564682  0.84507508  0.86879148  1
  In  In54  1  0.17136844  0.01005059  0.12522705  1
  In  In55  1  0.17596110  0.00895724  0.62003321  1
  In  In56  1  0.15930772  0.33311081  0.12908836  1
  In  In57  1  0.15121395  0.31832921  0.61235449  1
  In  In58  1  0.17442711  0.65368211  0.13028635  1
  In  In59  1  0.16570513  0.66742948  0.61134793  1
  In  In60  1  0.49184665  -0.00737150  0.12622759  1
  In  In61  1  0.50756444  -0.00372437  0.62849198  1
  In  In62  1  0.48193301  0.33738374  0.12756413  1
  In  In63  1  0.50398425  0.34233977  0.63066951  1
  In  In64  1  0.50095221  0.66417824  0.12719489  1
  In  In65  1  0.48809517  0.66873052  0.62195800  1
  In  In66  1  0.83449147  -0.00267174  0.11393163  1
  In  In67  1  0.82559254  -0.00777183  0.62274155  1
  In  In68  1  0.84950144  0.34527347  0.11612091  1
  In  In69  1  0.85121917  0.32234632  0.63793019  1
  In  In70  1  0.83652662  0.66530486  0.12996561  1
  In  In71  1  0.82487906  0.67439236  0.62251635  1
  In  In72  1  0.66290870  -0.00385750  0.24424242  1
  In  In73  1  0.49604052  0.16707071  0.49907779  1
  In  In74  1  0.16256891  0.82805079  0.00552373  1
  In  In75  1  0.33192005  0.66924180  0.75634556  1
  In  In76  1  0.00159540  0.00248935  0.75324718  1
  In  In77  1  -0.00136524  0.66419784  0.75295328  1
  In  In78  1  0.50218299  0.83404940  0.00220586  1
  In  In79  1  0.00454611  -0.00223325  0.25101242  1
  In  In80  1  0.33543011  0.33130776  0.75151686  1
  In  In81  1  0.83343833  0.50528871  0.50057391  1
  In  In82  1  0.49704711  0.16932933  0.00248602  1
  In  In83  1  0.49658648  0.50215606  0.50145806  1
  In  In84  1  0.66438423  0.66760630  0.75178985  1
  In  In85  1  0.66563174  0.33771941  0.24978583  1
  Cu  Cu86  1  0.49958729  0.16435190  0.75095769  1
  Cu  Cu87  1  0.32555152  -0.00188360  0.49617745  1
  Cu  Cu88  1  0.49401622  0.17129921  0.25041462  1
  Cu  Cu89  1  0.83555091  0.49182123  0.75970949  1
  Cu  Cu90  1  0.66616370  0.33178590  -0.00469375  1
  Cu  Cu91  1  0.16407586  0.82888830  0.25483635  1
  Cu  Cu92  1  0.67453215  0.00129738  -0.00661837  1
  Cu  Cu93  1  0.66894261  0.66714998  0.00604437  1
  Cu  Cu94  1  0.16442203  0.49138397  0.75425550  1
  Cu  Cu95  1  0.17366186  0.83927446  0.74642653  1
  Cu  Cu96  1  0.66833322  0.67640764  0.49308877  1
  Cu  Cu97  1  0.00382290  0.33629865  0.49953811  1
  Cu  Cu98  1  0.32430312  0.33381397  0.00773760  1
  Cu  Cu99  1  0.32466314  0.33145495  0.49072281  1
  Cu  Cu100  1  -0.00388942  0.00548839  0.50058688  1
  Cu  Cu101  1  0.66397855  -0.00012336  0.50328030  1
  Cu  Cu102  1  -0.00232567  0.33134761  0.00253767  1
  Cu  Cu103  1  0.84291194  0.16733980  0.24690578  1
  Cu  Cu104  1  0.16579055  0.49768129  0.24767140  1
  Cu  Cu105  1  0.00263169  -0.00163192  -0.00131823  1
  Cu  Cu106  1  -0.00045433  0.66919541  0.48999336  1
  Cu  Cu107  1  0.50539533  0.84013420  0.74125249  1
  Cu  Cu108  1  0.83365528  0.16425528  0.75174624  1
  Cu  Cu109  1  0.67823041  0.32897876  0.50808108  1
  Cu  Cu110  1  0.32962000  0.66470370  0.49081267  1
  Cu  Cu111  1  0.49713635  0.50592820  0.24466353  1
  Cu  Cu112  1  0.82986919  0.49847473  0.24274353  1
  Cu  Cu113  1  0.49317114  0.83338197  0.25041436  1
  Cu  Cu114  1  0.50687158  0.49311426  0.76062941  1
  Se  Se115  1  0.08497039  0.08076068  0.05296249  1
  Se  Se116  1  0.08477801  0.08469400  0.55302988  1
  Se  Se117  1  0.07836446  0.41527065  0.05826333  1
  Se  Se118  1  0.08624704  0.42362935  0.55032247  1
  Se  Se119  1  0.07640300  0.73913583  0.06579382  1
  Se  Se120  1  0.08242937  0.75231433  0.54647545  1
  Se  Se121  1  0.40781336  0.08398210  0.06402187  1
  Se  Se122  1  0.40689958  0.07726968  0.55921629  1
  Se  Se123  1  0.41447478  0.41842231  0.05154292  1
  Se  Se124  1  0.40492087  0.40517327  0.55704309  1
  Se  Se125  1  0.40851878  0.74945912  0.06079970  1
  Se  Se126  1  0.41452783  0.74530895  0.54664600  1
  Se  Se127  1  0.75765614  0.08642315  0.04533107  1
  Se  Se128  1  0.74919865  0.08369805  0.55423349  1
  Se  Se129  1  0.74925122  0.41211033  0.05160383  1
  Se  Se130  1  0.75246251  0.41414817  0.56766648  1
  Se  Se131  1  0.75587435  0.74953315  0.05616004  1
  Se  Se132  1  0.75465235  0.75537496  0.54759903  1
  Se  Se133  1  0.24318464  0.24812282  0.05918468  1
  Se  Se134  1  0.24663679  0.24587466  0.54689803  1
  Se  Se135  1  0.24391447  0.58301026  0.04943276  1
  Se  Se136  1  0.25149789  0.58028181  0.54815178  1
  Se  Se137  1  0.25714796  0.92218123  0.05632384  1
  Se  Se138  1  0.24345982  0.91399205  0.55081279  1
  Se  Se139  1  0.58867594  0.25851851  0.06362203  1
  Se  Se140  1  0.58782090  0.25340793  0.56271894  1
  Se  Se141  1  0.57898511  0.58510787  0.05275465  1
  Se  Se142  1  0.59459745  0.59348386  0.55712466  1
  Se  Se143  1  0.59662100  0.92656712  0.05951450  1
  Se  Se144  1  0.57463822  0.91612803  0.54949322  1
  Se  Se145  1  0.91395534  0.24255654  0.05232675  1
  Se  Se146  1  0.92100146  0.25390814  0.55547310  1
  Se  Se147  1  0.89397379  0.56080253  0.06443149  1
  Se  Se148  1  0.92711732  0.59385547  0.56126942  1
  Se  Se149  1  0.92003268  0.91212549  0.04935885  1
  Se  Se150  1  0.91321000  0.91838063  0.55166979  1
  Se  Se151  1  0.08453584  0.25119918  0.44483650  1
  Se  Se152  1  0.08340060  0.24772713  0.95068160  1
  Se  Se153  1  0.08363870  0.58141727  0.44372414  1
  Se  Se154  1  0.08278493  0.58151874  0.95700273  1
  Se  Se155  1  0.07785607  0.91946121  0.44706778  1
  Se  Se156  1  0.08461708  0.92244942  0.93595626  1
  Se  Se157  1  0.40974438  0.25261214  0.43414538  1
  Se  Se158  1  0.40439116  0.25785202  0.94173327  1
  Se  Se159  1  0.41225715  0.58314262  0.43262085  1
  Se  Se160  1  0.41733458  0.58737452  0.95674551  1
  Se  Se161  1  0.41171421  0.91377374  0.44690350  1
  Se  Se162  1  0.41262520  0.92808770  0.94474757  1
  Se  Se163  1  0.76128099  0.24782632  0.45417126  1
  Se  Se164  1  0.74860927  0.24568306  0.94429502  1
  Se  Se165  1  0.74862516  0.59317260  0.43588094  1
  Se  Se166  1  0.75315178  0.58318421  0.95306522  1
  Se  Se167  1  0.74903719  0.92125078  0.44546308  1
  Se  Se168  1  0.75775513  0.91304260  0.94487795  1
  Se  Se169  1  0.24811691  0.08707156  0.44300452  1
  Se  Se170  1  0.24688221  0.08608408  0.95308136  1
  Se  Se171  1  0.24496349  0.42236301  0.44321868  1
  Se  Se172  1  0.24004610  0.41615273  0.95356870  1
  Se  Se173  1  0.24392584  0.75003994  0.44203947  1
  Se  Se174  1  0.25901109  0.74425075  0.94206212  1
  Se  Se175  1  0.58961975  0.07947877  0.43733248  1
  Se  Se176  1  0.58683272  0.08050750  0.93917805  1
  Se  Se177  1  0.59678811  0.40880378  0.44819697  1
  Se  Se178  1  0.57784575  0.41853638  0.95061495  1
  Se  Se179  1  0.57484090  0.75333573  0.44473060  1
  Se  Se180  1  0.59620425  0.74860076  0.93952470  1
  Se  Se181  1  0.91539404  0.09084094  0.44675296  1
  Se  Se182  1  0.91888731  0.08203232  0.94508648  1
  Se  Se183  1  0.92317999  0.41660738  0.43925733  1
  Se  Se184  1  0.91369643  0.41268872  0.94727356  1
  Se  Se185  1  0.91043457  0.75054127  0.44101752  1
  Se  Se186  1  0.93979944  0.73769345  0.95246617  1
  Se  Se187  1  0.26450365  0.27173612  0.30420790  1
  Se  Se188  1  0.24511922  0.24475048  0.81093359  1
  Se  Se189  1  0.24870070  0.58388622  0.30041509  1
  Se  Se190  1  0.24130198  0.57553958  0.81299016  1
  Se  Se191  1  0.24564975  0.91600667  0.30598157  1
  Se  Se192  1  0.25663321  0.92080276  0.80017339  1
  Se  Se193  1  0.57911259  0.24280203  0.31220220  1
  Se  Se194  1  0.58001163  0.25088426  0.80291247  1
  Se  Se195  1  0.58368084  0.58567003  0.29731005  1
  Se  Se196  1  0.58285217  0.57839753  0.81845770  1
  Se  Se197  1  0.57536906  0.91312934  0.31075752  1
  Se  Se198  1  0.58878515  0.91870445  0.79842521  1
  Se  Se199  1  0.92305005  0.25054710  0.30175773  1
  Se  Se200  1  0.91780352  0.24761513  0.80410107  1
  Se  Se201  1  0.91389862  0.58160209  0.29658165  1
  Se  Se202  1  0.91377588  0.57570994  0.81717975  1
  Se  Se203  1  0.90839766  0.91016617  0.30673862  1
  Se  Se204  1  0.90960662  0.90661510  0.80470859  1
  Se  Se205  1  0.09304027  0.09103219  0.30694820  1
  Se  Se206  1  0.09101033  0.09365863  0.80927250  1
  Se  Se207  1  0.08213633  0.41531709  0.30244262  1
  Se  Se208  1  0.08009704  0.41242991  0.80837820  1
  Se  Se209  1  0.07725587  0.74659455  0.30444512  1
  Se  Se210  1  0.09485409  0.75890889  0.80747336  1
  Se  Se211  1  0.41500431  0.08017387  0.29910607  1
  Se  Se212  1  0.41588219  0.08255455  0.80399337  1
  Se  Se213  1  0.42044920  0.41617911  0.29731408  1
  Se  Se214  1  0.41396116  0.42505465  0.81805029  1
  Se  Se215  1  0.41030446  0.74839893  0.30293516  1
  Se  Se216  1  0.43069156  0.76200042  0.80779710  1
  Se  Se217  1  0.75759814  0.08774634  0.30384541  1
  Se  Se218  1  0.75087064  0.07835553  0.80268501  1
  Se  Se219  1  0.75765312  0.42285992  0.31361633  1
  Se  Se220  1  0.74715145  0.41061122  0.80860951  1
  Se  Se221  1  0.73072587  0.74498278  0.30079226  1
  Se  Se222  1  0.76294353  0.74828391  0.80973020  1
  Se  Se223  1  0.25129525  0.07356292  0.20325856  1
  Se  Se224  1  0.24495603  0.08059660  0.70100739  1
  Se  Se225  1  0.25004575  0.41801846  0.19179380  1
  Se  Se226  1  0.24642980  0.41992644  0.68932658  1
  Se  Se227  1  0.24733605  0.74630720  0.19963773  1
  Se  Se228  1  0.24743814  0.75197494  0.68683607  1
  Se  Se229  1  0.57538523  0.09595160  0.18799099  1
  Se  Se230  1  0.58462360  0.08158738  0.69783575  1
  Se  Se231  1  0.58107890  0.42554208  0.18511271  1
  Se  Se232  1  0.58832027  0.41171280  0.70527276  1
  Se  Se233  1  0.57799301  0.75348809  0.19554234  1
  Se  Se234  1  0.58066655  0.75319927  0.68380335  1
  Se  Se235  1  0.91626862  0.08392923  0.18546521  1
  Se  Se236  1  0.91335264  0.08780077  0.68748660  1
  Se  Se237  1  0.91837926  0.41149915  0.19939344  1
  Se  Se238  1  0.92413325  0.41684620  0.70393270  1
  Se  Se239  1  0.91273900  0.74827135  0.20277148  1
  Se  Se240  1  0.91126298  0.75587951  0.69233362  1
  Se  Se241  1  0.08338940  0.24668473  0.19979359  1
  Se  Se242  1  0.08249002  0.25820356  0.69672194  1
  Se  Se243  1  0.08054392  0.58375469  0.19879927  1
  Se  Se244  1  0.09435960  0.57977244  0.69157890  1
  Se  Se245  1  0.08946203  0.90611505  0.18727541  1
  Se  Se246  1  0.08573173  0.91113118  0.68746036  1
  Se  Se247  1  0.40948289  0.25375959  0.19914447  1
  Se  Se248  1  0.42033466  0.23991018  0.68602765  1
  Se  Se249  1  0.40989204  0.58413145  0.19115490  1
  Se  Se250  1  0.42724485  0.57360910  0.69956101  1
  Se  Se251  1  0.41094046  0.91950513  0.19961927  1
  Se  Se252  1  0.41278258  0.91687666  0.69117049  1
  Se  Se253  1  0.75871229  0.24911806  0.19034899  1
  Se  Se254  1  0.75011764  0.25237194  0.70018500  1
  Se  Se255  1  0.74328339  0.58486787  0.19727897  1
  Se  Se256  1  0.76147739  0.57377678  0.69556198  1
  Se  Se257  1  0.76247642  0.91123081  0.19169765  1
  Se  Se258  1  0.74626515  0.91541260  0.69613328  1
