# generated using pymatgen
data_In86Cu29Se144
_symmetry_space_group_name_H-M   'P 1'
_cell_length_a   17.58313121
_cell_length_b   17.57581926
_cell_length_c   23.44040481
_cell_angle_alpha   90.00575336
_cell_angle_beta   89.99242247
_cell_angle_gamma   89.99886365
_symmetry_Int_Tables_number   1
_chemical_formula_structural   In86Cu29Se144
_chemical_formula_sum   'In86 Cu29 Se144'
_cell_volume   7243.97422602
_cell_formula_units_Z   1
loop_
 _symmetry_equiv_pos_site_id
 _symmetry_equiv_pos_as_xyz
  1  'x, y, z'
loop_
 _atom_site_type_symbol
 _atom_site_label
 _atom_site_symmetry_multiplicity
 _atom_site_fract_x
 _atom_site_fract_y
 _atom_site_fract_z
 _atom_site_occupancy
  In  In0  1  -0.00833015  0.16576484  0.13049181  1
  In  In1  1  -0.00227976  0.16163184  0.61558786  1
  In  In2  1  -0.00732595  0.52086814  0.13589298  1
  In  In3  1  -0.00032825  0.50939499  0.60788733  1
  In  In4  1  -0.02805502  0.79629972  0.09975422  1
  In  In5  1  0.00596977  0.82109491  0.60719416  1
  In  In6  1  0.34341138  0.15634358  0.13506060  1
  In  In7  1  0.33647253  0.16568040  0.62850647  1
  In  In8  1  0.32821611  0.50012750  0.13652193  1
  In  In9  1  0.32989137  0.50879250  0.62706342  1
  In  In10  1  0.33216204  0.83652674  0.12766442  1
  In  In11  1  0.33505637  0.83415712  0.62343290  1
  In  In12  1  0.65746555  0.17805744  0.12065307  1
  In  In13  1  0.64322195  0.13281317  0.59209893  1
  In  In14  1  0.68363721  0.51313624  0.11822194  1
  In  In15  1  0.67786737  0.51127933  0.62104573  1
  In  In16  1  0.65411275  0.82198874  0.11670600  1
  In  In17  1  0.64848007  0.82085520  0.61540695  1
  In  In18  1  0.17791182  -0.01444674  0.38233990  1
  In  In19  1  0.17635506  -0.01990721  0.87345916  1
  In  In20  1  0.17346679  0.33109865  0.38199172  1
  In  In21  1  0.17159397  0.32263683  0.87298487  1
  In  In22  1  0.17212543  0.66636814  0.37531596  1
  In  In23  1  0.18010908  0.66889688  0.87464770  1
  In  In24  1  0.49703308  0.00871381  0.38635490  1
  In  In25  1  0.49378230  0.00763628  0.87946321  1
  In  In26  1  0.49037489  0.32618324  0.37765457  1
  In  In27  1  0.48613751  0.32851272  0.87058039  1
  In  In28  1  0.50937254  0.67998347  0.36852170  1
  In  In29  1  0.51628429  0.68330262  0.85198643  1
  In  In30  1  0.83104234  -0.01620822  0.39012476  1
  In  In31  1  0.81739806  -0.00916313  0.87094743  1
  In  In32  1  0.82879135  0.34287466  0.37930538  1
  In  In33  1  0.84229444  0.34059106  0.87249518  1
  In  In34  1  0.83101828  0.66892974  0.37485109  1
  In  In35  1  0.81625707  0.68128026  0.89957254  1
  In  In36  1  0.00197819  0.17018276  0.38461075  1
  In  In37  1  -0.00382903  0.17791305  0.86964592  1
  In  In38  1  -0.01746030  0.53260415  0.39569609  1
  In  In39  1  -0.01038011  0.50452865  0.88382965  1
  In  In40  1  0.00994442  0.81341755  0.39094095  1
  In  In41  1  0.00275338  0.82163302  0.88627865  1
  In  In42  1  0.33426213  0.16148668  0.38039877  1
  In  In43  1  0.34747619  0.17046242  0.85898100  1
  In  In44  1  0.33068786  0.48938749  0.37137988  1
  In  In45  1  0.33527080  0.50705481  0.86621436  1
  In  In46  1  0.33433513  0.83524769  0.37239494  1
  In  In47  1  0.33781563  0.83318000  0.87280112  1
  In  In48  1  0.66815103  0.16209242  0.39280674  1
  In  In49  1  0.65757449  0.15234948  0.87105084  1
  In  In50  1  0.67099035  0.51668853  0.36832940  1
  In  In51  1  0.66323967  0.52259945  0.87807212  1
  In  In52  1  0.67985056  0.82641028  0.38853410  1
  In  In53  1  0.67114185  0.82644805  0.88493671  1
  In  In54  1  0.17945046  -0.00991183  0.13298329  1
  In  In55  1  0.17728932  0.00812944  0.61538099  1
  In  In56  1  0.17459421  0.34690868  0.12972415  1
  In  In57  1  0.17579816  0.33985230  0.61828759  1
  In  In58  1  0.16249309  0.67456230  0.13399663  1
  In  In59  1  0.17471772  0.67879590  0.60141597  1
  In  In60  1  0.49212970  -0.01065650  0.11837713  1
  In  In61  1  0.48909471  -0.01107638  0.62405179  1
  In  In62  1  0.49982664  0.32188304  0.12443218  1
  In  In63  1  0.49362873  0.31711628  0.62584609  1
  In  In64  1  0.49525498  0.67149582  0.13106938  1
  In  In65  1  0.48830501  0.69016408  0.64026799  1
  In  In66  1  0.84650037  -0.01289702  0.13195776  1
  In  In67  1  0.81310227  -0.01559170  0.60356462  1
  In  In68  1  0.82616491  0.34175486  0.12889780  1
  In  In69  1  0.83589159  0.34186305  0.61843968  1
  In  In70  1  0.82906743  0.66456842  0.13207515  1
  In  In71  1  0.83101386  0.66564301  0.61747245  1
  In  In72  1  0.00684535  0.66134733  0.74695249  1
  In  In73  1  0.16282733  0.50828679  0.00043557  1
  In  In74  1  0.65200928  -0.01084236  0.73554220  1
  In  In75  1  0.81788442  0.15488418  -0.00755577  1
  In  In76  1  0.49835298  0.50491486  0.00368002  1
  In  In77  1  0.16982087  0.16055753  0.00009413  1
  In  In78  1  0.66070363  -0.00333737  0.25697284  1
  In  In79  1  0.00710651  0.34104890  0.74298070  1
  In  In80  1  0.01616625  0.34089831  0.25157788  1
  In  In81  1  0.01242147  -0.01517723  0.26099869  1
  In  In82  1  0.65379686  0.34422068  0.25491786  1
  In  In83  1  0.00859327  0.00078176  0.74665829  1
  In  In84  1  0.50535968  0.50155446  0.49443513  1
  In  In85  1  0.66486660  0.33298916  0.74337398  1
  Cu  Cu86  1  0.49873977  0.49814161  0.74734624  1
  Cu  Cu87  1  0.17047563  0.49797733  0.25936772  1
  Cu  Cu88  1  0.00411380  -0.00313347  -0.00102522  1
  Cu  Cu89  1  0.49399097  0.16072831  0.25362026  1
  Cu  Cu90  1  0.33744047  0.32523997  0.50107867  1
  Cu  Cu91  1  0.83208860  0.82180203  0.25237370  1
  Cu  Cu92  1  0.16471402  0.83077620  0.25182305  1
  Cu  Cu93  1  0.33676411  0.67510178  -0.00013762  1
  Cu  Cu94  1  0.00154456  -0.00061540  0.49729301  1
  Cu  Cu95  1  0.17603660  0.83537225  0.74178143  1
  Cu  Cu96  1  0.16804609  0.49757257  0.74427816  1
  Cu  Cu97  1  0.82905705  0.17079614  0.26030896  1
  Cu  Cu98  1  0.67145868  0.33806603  0.50325277  1
  Cu  Cu99  1  0.49877065  0.50204308  0.25129895  1
  Cu  Cu100  1  0.82428425  0.16606888  0.72976698  1
  Cu  Cu101  1  -0.01299231  0.34177140  0.00650251  1
  Cu  Cu102  1  0.83635000  0.82578137  0.75587351  1
  Cu  Cu103  1  0.82745554  0.51506889  0.75007786  1
  Cu  Cu104  1  0.66336470  -0.00416665  -0.00121792  1
  Cu  Cu105  1  0.00732979  0.33575995  0.49693883  1
  Cu  Cu106  1  0.66424074  0.66627195  0.49826485  1
  Cu  Cu107  1  0.32822416  -0.00585981  0.50106933  1
  Cu  Cu108  1  0.33902684  0.67110003  0.49794837  1
  Cu  Cu109  1  0.33253180  0.32692355  -0.00390763  1
  Cu  Cu110  1  0.49664632  0.83874834  0.24903491  1
  Cu  Cu111  1  0.33577290  -0.00215450  0.00284026  1
  Cu  Cu112  1  0.17977674  0.16687765  0.25882314  1
  Cu  Cu113  1  0.17867981  0.16360809  0.74518156  1
  Cu  Cu114  1  0.65653221  0.33285191  -0.00177173  1
  Se  Se115  1  0.07642490  0.07658335  0.06413803  1
  Se  Se116  1  0.08607088  0.08392384  0.54913820  1
  Se  Se117  1  0.07404603  0.41645441  0.06393101  1
  Se  Se118  1  0.08882603  0.41936028  0.55112886  1
  Se  Se119  1  0.09822053  0.75350528  0.05514327  1
  Se  Se120  1  0.06332848  0.72310909  0.53788163  1
  Se  Se121  1  0.41595526  0.08567501  0.05469864  1
  Se  Se122  1  0.40986848  0.07681246  0.55700430  1
  Se  Se123  1  0.40507056  0.41019668  0.05999133  1
  Se  Se124  1  0.41606396  0.41419256  0.55771037  1
  Se  Se125  1  0.41741839  0.75363412  0.05914747  1
  Se  Se126  1  0.42124958  0.75215061  0.55352920  1
  Se  Se127  1  0.74144516  0.07102218  0.06828891  1
  Se  Se128  1  0.77961243  0.11235054  0.55724446  1
  Se  Se129  1  0.74305762  0.40813537  0.05309011  1
  Se  Se130  1  0.75362513  0.42689980  0.55052113  1
  Se  Se131  1  0.76806890  0.76579744  0.06379203  1
  Se  Se132  1  0.74752123  0.75269862  0.55149915  1
  Se  Se133  1  0.25484365  0.25308066  0.06325131  1
  Se  Se134  1  0.25275808  0.24483039  0.55616964  1
  Se  Se135  1  0.26010883  0.58952307  0.06033497  1
  Se  Se136  1  0.25863654  0.58009985  0.54678260  1
  Se  Se137  1  0.24979743  0.91601714  0.05366991  1
  Se  Se138  1  0.24520397  0.90674720  0.55241829  1
  Se  Se139  1  0.57273331  0.24610349  0.04581271  1
  Se  Se140  1  0.58174350  0.25573645  0.55009211  1
  Se  Se141  1  0.58997859  0.59825089  0.05701615  1
  Se  Se142  1  0.57896648  0.59485534  0.56178198  1
  Se  Se143  1  0.57795040  0.91206203  0.04978398  1
  Se  Se144  1  0.60611268  0.94325050  0.56365975  1
  Se  Se145  1  0.90958885  0.24619097  0.05685776  1
  Se  Se146  1  0.92243172  0.25806831  0.55364629  1
  Se  Se147  1  0.91301399  0.58448354  0.05973516  1
  Se  Se148  1  0.90882380  0.58609554  0.54547846  1
  Se  Se149  1  0.91493311  0.91817983  0.05061394  1
  Se  Se150  1  0.91938244  0.91302016  0.54895564  1
  Se  Se151  1  0.09152398  0.24723323  0.45074833  1
  Se  Se152  1  0.07164332  0.26106071  0.94789843  1
  Se  Se153  1  0.09954891  0.58169194  0.44950551  1
  Se  Se154  1  0.07522223  0.60047135  0.94211245  1
  Se  Se155  1  0.08670856  0.91206768  0.45000284  1
  Se  Se156  1  0.08741496  0.91421787  0.94597033  1
  Se  Se157  1  0.42155684  0.24107117  0.45081519  1
  Se  Se158  1  0.41380351  0.24284701  0.94310118  1
  Se  Se159  1  0.41552681  0.59022042  0.43426183  1
  Se  Se160  1  0.41130120  0.59032455  0.93989444  1
  Se  Se161  1  0.41429976  0.91506151  0.44639756  1
  Se  Se162  1  0.41703007  0.91552378  0.94535889  1
  Se  Se163  1  0.75514832  0.25484105  0.44894713  1
  Se  Se164  1  0.73850725  0.25660464  0.93236134  1
  Se  Se165  1  0.74893038  0.58339525  0.44654405  1
  Se  Se166  1  0.76156877  0.56392017  0.95173935  1
  Se  Se167  1  0.72502306  0.93499882  0.45577714  1
  Se  Se168  1  0.75393941  0.91477347  0.95149318  1
  Se  Se169  1  0.24701384  0.08204127  0.44879521  1
  Se  Se170  1  0.25908510  0.07743436  0.93674580  1
  Se  Se171  1  0.25827875  0.41483132  0.45005905  1
  Se  Se172  1  0.25345514  0.41296469  0.94115579  1
  Se  Se173  1  0.25362968  0.75308336  0.44373358  1
  Se  Se174  1  0.25111937  0.75575926  0.94574719  1
  Se  Se175  1  0.57944268  0.08634191  0.45792758  1
  Se  Se176  1  0.58184251  0.08441142  0.95009501  1
  Se  Se177  1  0.59522865  0.41092459  0.43330577  1
  Se  Se178  1  0.58156137  0.41402326  0.93489531  1
  Se  Se179  1  0.57839987  0.75243258  0.44996320  1
  Se  Se180  1  0.58045383  0.73695831  0.94110576  1
  Se  Se181  1  0.91599342  0.08146223  0.44529877  1
  Se  Se182  1  0.92395008  0.07492789  0.93433517  1
  Se  Se183  1  0.91888909  0.41763331  0.44708310  1
  Se  Se184  1  0.90540979  0.42218981  0.95158194  1
  Se  Se185  1  0.88600237  0.77542756  0.44079833  1
  Se  Se186  1  0.91936214  0.74958456  0.95751356  1
  Se  Se187  1  0.25838438  0.25343354  0.31114983  1
  Se  Se188  1  0.25418388  0.25469888  0.79851344  1
  Se  Se189  1  0.25690862  0.58409930  0.30633941  1
  Se  Se190  1  0.24633149  0.58480077  0.79883145  1
  Se  Se191  1  0.24944793  0.91672962  0.30106393  1
  Se  Se192  1  0.25889540  0.91581321  0.79704808  1
  Se  Se193  1  0.58229460  0.23587564  0.31168981  1
  Se  Se194  1  0.57648794  0.24193065  0.80441511  1
  Se  Se195  1  0.58280520  0.58863829  0.29923429  1
  Se  Se196  1  0.58975952  0.58074440  0.79326047  1
  Se  Se197  1  0.57537091  0.90785270  0.31873893  1
  Se  Se198  1  0.58452972  0.91422182  0.81739378  1
  Se  Se199  1  0.91761829  0.25210478  0.31016693  1
  Se  Se200  1  0.90340968  0.24558386  0.79328952  1
  Se  Se201  1  0.92064272  0.59114661  0.30787900  1
  Se  Se202  1  0.90939221  0.58918198  0.81282736  1
  Se  Se203  1  0.90918616  0.90407300  0.31412470  1
  Se  Se204  1  0.91816283  0.90996239  0.81023082  1
  Se  Se205  1  0.09287393  0.08908383  0.31497940  1
  Se  Se206  1  0.09491651  0.09304323  0.81106452  1
  Se  Se207  1  0.08599247  0.42886829  0.32358229  1
  Se  Se208  1  0.08929079  0.42778784  0.81395117  1
  Se  Se209  1  0.08288761  0.74858280  0.30787490  1
  Se  Se210  1  0.09266577  0.76005689  0.80464718  1
  Se  Se211  1  0.41524067  0.07735319  0.30903279  1
  Se  Se212  1  0.41509980  0.06969152  0.79876254  1
  Se  Se213  1  0.42266365  0.41268672  0.30391719  1
  Se  Se214  1  0.41466916  0.41712923  0.80072069  1
  Se  Se215  1  0.41501133  0.75176924  0.30180237  1
  Se  Se216  1  0.39537741  0.73125209  0.80470123  1
  Se  Se217  1  0.75452797  0.08515909  0.31745125  1
  Se  Se218  1  0.75158916  0.08497907  0.79659655  1
  Se  Se219  1  0.75946206  0.42843353  0.30211562  1
  Se  Se220  1  0.75303933  0.42413255  0.80647496  1
  Se  Se221  1  0.74051399  0.74803247  0.30633270  1
  Se  Se222  1  0.75421726  0.74710006  0.81239618  1
  Se  Se223  1  0.25353151  0.07921656  0.20157713  1
  Se  Se224  1  0.25591598  0.07300593  0.69502683  1
  Se  Se225  1  0.25421359  0.41228595  0.20743327  1
  Se  Se226  1  0.25413152  0.41472494  0.69403137  1
  Se  Se227  1  0.25427178  0.75160397  0.19917085  1
  Se  Se228  1  0.24583931  0.74414049  0.68514508  1
  Se  Se229  1  0.57773894  0.08802363  0.19037160  1
  Se  Se230  1  0.57125867  0.09530413  0.68658042  1
  Se  Se231  1  0.57569443  0.42880209  0.18176719  1
  Se  Se232  1  0.57757402  0.42516448  0.68193018  1
  Se  Se233  1  0.58240540  0.75440674  0.19839466  1
  Se  Se234  1  0.58717990  0.76031315  0.70306827  1
  Se  Se235  1  0.91285539  0.08440080  0.20570008  1
  Se  Se236  1  0.91020071  0.07633410  0.68343846  1
  Se  Se237  1  0.91111532  0.42176036  0.19812627  1
  Se  Se238  1  0.91274577  0.43581071  0.69119949  1
  Se  Se239  1  0.92249598  0.74773686  0.19702512  1
  Se  Se240  1  0.91770424  0.75553897  0.68948572  1
  Se  Se241  1  0.09824460  0.23839015  0.19153339  1
  Se  Se242  1  0.09047427  0.24066239  0.68823396  1
  Se  Se243  1  0.09132174  0.58207893  0.20296830  1
  Se  Se244  1  0.09436180  0.57848594  0.68121584  1
  Se  Se245  1  0.08149007  0.90091449  0.18551689  1
  Se  Se246  1  0.08790471  0.90756101  0.68146255  1
  Se  Se247  1  0.41758153  0.25188545  0.20032344  1
  Se  Se248  1  0.41043806  0.25215042  0.70024224  1
  Se  Se249  1  0.41400011  0.58578314  0.19886945  1
  Se  Se250  1  0.41627782  0.58517279  0.69660895  1
  Se  Se251  1  0.41409615  0.92304669  0.19741719  1
  Se  Se252  1  0.43011268  0.89650730  0.69524752  1
  Se  Se253  1  0.74920555  0.24573335  0.19776661  1
  Se  Se254  1  0.74454281  0.24786375  0.67448667  1
  Se  Se255  1  0.74810480  0.58072419  0.20073117  1
  Se  Se256  1  0.74748747  0.59755062  0.69479944  1
  Se  Se257  1  0.75288809  0.90869070  0.19669287  1
  Se  Se258  1  0.76037757  0.90463959  0.69072395  1
