# generated using pymatgen
data_In86Cu29Se144
_symmetry_space_group_name_H-M   'P 1'
_cell_length_a   17.57878620
_cell_length_b   17.57813153
_cell_length_c   23.44220968
_cell_angle_alpha   89.98011173
_cell_angle_beta   90.01980480
_cell_angle_gamma   89.99680125
_symmetry_Int_Tables_number   1
_chemical_formula_structural   In86Cu29Se144
_chemical_formula_sum   'In86 Cu29 Se144'
_cell_volume   7243.69385898
_cell_formula_units_Z   1
loop_
 _symmetry_equiv_pos_site_id
 _symmetry_equiv_pos_as_xyz
  1  'x, y, z'
loop_
 _atom_site_type_symbol
 _atom_site_label
 _atom_site_symmetry_multiplicity
 _atom_site_fract_x
 _atom_site_fract_y
 _atom_site_fract_z
 _atom_site_occupancy
  In  In0  1  -0.00993666  0.17997076  0.13102947  1
  In  In1  1  -0.01105753  0.15499287  0.61313960  1
  In  In2  1  -0.01356692  0.51320090  0.12941091  1
  In  In3  1  0.01639886  0.50393013  0.63350615  1
  In  In4  1  -0.02491226  0.79936799  0.09444918  1
  In  In5  1  -0.00992005  0.84727287  0.63736065  1
  In  In6  1  0.34520407  0.16806863  0.12618003  1
  In  In7  1  0.34398746  0.18776856  0.61103229  1
  In  In8  1  0.34554258  0.48654834  0.13254632  1
  In  In9  1  0.33284230  0.46859269  0.62269781  1
  In  In10  1  0.32733375  0.82781228  0.11850222  1
  In  In11  1  0.33870843  0.83007513  0.62835076  1
  In  In12  1  0.67791211  0.18185122  0.12212705  1
  In  In13  1  0.66600598  0.15730730  0.62721977  1
  In  In14  1  0.66804041  0.50009283  0.12679135  1
  In  In15  1  0.65838238  0.50988825  0.61924233  1
  In  In16  1  0.65380897  0.82063763  0.12087095  1
  In  In17  1  0.68510570  0.83339400  0.62445075  1
  In  In18  1  0.17498810  0.00444322  0.37888700  1
  In  In19  1  0.15461592  -0.00234360  0.86921728  1
  In  In20  1  0.16640973  0.33127976  0.37145225  1
  In  In21  1  0.16820019  0.32193985  0.86992680  1
  In  In22  1  0.16255108  0.65901817  0.36436183  1
  In  In23  1  0.16309917  0.67780885  0.88263136  1
  In  In24  1  0.51089860  0.00674136  0.37621411  1
  In  In25  1  0.50948147  0.00010030  0.87815739  1
  In  In26  1  0.50089651  0.33053974  0.37568976  1
  In  In27  1  0.49438246  0.34080740  0.88031602  1
  In  In28  1  0.48533019  0.65684440  0.35428018  1
  In  In29  1  0.50364475  0.66266673  0.88778435  1
  In  In30  1  0.82535056  -0.00330763  0.38270766  1
  In  In31  1  0.82882836  0.00352545  0.87659929  1
  In  In32  1  0.81964985  0.31458519  0.35682415  1
  In  In33  1  0.83209444  0.33400063  0.88496103  1
  In  In34  1  0.83899722  0.67129638  0.36621709  1
  In  In35  1  0.84318545  0.66619391  0.89176553  1
  In  In36  1  -0.01144030  0.17341079  0.38214885  1
  In  In37  1  -0.00436466  0.15748694  0.87034020  1
  In  In38  1  0.00056961  0.49916383  0.36678109  1
  In  In39  1  -0.00976231  0.50232689  0.88187854  1
  In  In40  1  -0.00782090  0.81802842  0.37079810  1
  In  In41  1  -0.00477825  0.83698085  0.88197611  1
  In  In42  1  0.32817061  0.17995676  0.38908850  1
  In  In43  1  0.33584908  0.18283503  0.86861944  1
  In  In44  1  0.33811911  0.49983310  0.36808665  1
  In  In45  1  0.34254467  0.50238400  0.87844477  1
  In  In46  1  0.33734977  0.81805214  0.36880104  1
  In  In47  1  0.34279230  0.82649055  0.88498166  1
  In  In48  1  0.65996023  0.16881577  0.38098436  1
  In  In49  1  0.67433623  0.15965822  0.87987344  1
  In  In50  1  0.65621106  0.48836156  0.36516571  1
  In  In51  1  0.66577519  0.50138401  0.88492142  1
  In  In52  1  0.67258896  0.83755681  0.36701178  1
  In  In53  1  0.66198911  0.84020308  0.88514157  1
  In  In54  1  0.17331504  -0.00988208  0.11904728  1
  In  In55  1  0.15065674  0.00202692  0.62778285  1
  In  In56  1  0.16456834  0.33605480  0.13495447  1
  In  In57  1  0.18293276  0.33505385  0.62382371  1
  In  In58  1  0.15925164  0.67353535  0.12968635  1
  In  In59  1  0.15474070  0.64361701  0.62785593  1
  In  In60  1  0.50233252  0.00423003  0.11523407  1
  In  In61  1  0.50773602  0.03030581  0.63388712  1
  In  In62  1  0.50315314  0.33240496  0.12584652  1
  In  In63  1  0.48991297  0.31876852  0.60879453  1
  In  In64  1  0.50515140  0.66656960  0.13007119  1
  In  In65  1  0.50621115  0.66073014  0.61938963  1
  In  In66  1  0.83809449  0.00515146  0.11947978  1
  In  In67  1  0.83760742  0.00045724  0.63008814  1
  In  In68  1  0.82643249  0.33407848  0.12758496  1
  In  In69  1  0.84311012  0.32354253  0.62299178  1
  In  In70  1  0.83083957  0.66245726  0.12353886  1
  In  In71  1  0.83030628  0.68010358  0.62785472  1
  In  In72  1  0.16594637  0.16017068  -0.00780396  1
  In  In73  1  0.15909389  0.83768704  0.50495425  1
  In  In74  1  0.33036012  0.00492648  0.75272831  1
  In  In75  1  0.00325341  -0.00124872  0.23951688  1
  In  In76  1  0.66083204  0.32621695  0.74370569  1
  In  In77  1  0.50875004  0.83898562  0.49127774  1
  In  In78  1  0.83255069  0.49796244  0.49613481  1
  In  In79  1  0.16972105  0.49640614  0.49427647  1
  In  In80  1  0.16541710  0.50429716  0.00150379  1
  In  In81  1  0.66415344  -0.00022201  0.25047064  1
  In  In82  1  0.33448101  0.00034196  0.24812211  1
  In  In83  1  0.66768156  0.67143394  0.76056246  1
  In  In84  1  0.32541899  0.66478272  0.75501162  1
  In  In85  1  0.00192646  0.33323454  0.75380763  1
  Cu  Cu86  1  -0.01087066  0.33561310  0.00564498  1
  Cu  Cu87  1  0.34048401  -0.00184144  -0.00367013  1
  Cu  Cu88  1  0.33615210  0.00663913  0.50176308  1
  Cu  Cu89  1  0.17043000  0.17320117  0.74190044  1
  Cu  Cu90  1  0.15771492  0.82871765  0.75453750  1
  Cu  Cu91  1  0.33469432  0.66180687  0.49130819  1
  Cu  Cu92  1  0.33643616  0.32985063  0.00376002  1
  Cu  Cu93  1  0.66981042  0.00243655  0.00108270  1
  Cu  Cu94  1  0.84059998  0.83969215  0.75569743  1
  Cu  Cu95  1  0.17372854  0.50041617  0.24714463  1
  Cu  Cu96  1  0.50064385  0.17584392  0.25174869  1
  Cu  Cu97  1  0.66882296  0.33022069  0.49297187  1
  Cu  Cu98  1  0.67211907  -0.00237341  0.50601776  1
  Cu  Cu99  1  0.83612090  0.50132019  0.24587864  1
  Cu  Cu100  1  -0.01088243  0.67322911  0.50222787  1
  Cu  Cu101  1  0.00064909  0.00371186  -0.00501162  1
  Cu  Cu102  1  0.16626075  0.17134717  0.25601558  1
  Cu  Cu103  1  0.66390505  0.66580427  0.49355131  1
  Cu  Cu104  1  0.50872802  0.83982130  0.75498682  1
  Cu  Cu105  1  0.83537541  0.83132443  0.24213680  1
  Cu  Cu106  1  0.83206452  0.50241861  0.75895821  1
  Cu  Cu107  1  0.48764542  0.49342840  0.74926636  1
  Cu  Cu108  1  0.66182028  0.33424098  0.00342622  1
  Cu  Cu109  1  -0.00747570  -0.00356837  0.50428383  1
  Cu  Cu110  1  0.16281296  0.82598112  0.24298438  1
  Cu  Cu111  1  0.66882776  0.66554844  0.00736652  1
  Cu  Cu112  1  -0.00024064  0.32734258  0.49375281  1
  Cu  Cu113  1  0.34094165  0.66099160  0.00762507  1
  Cu  Cu114  1  0.50644358  0.49673879  0.24760805  1
  Se  Se115  1  0.07605314  0.08265554  0.06190590  1
  Se  Se116  1  0.08460998  0.07970024  0.54816798  1
  Se  Se117  1  0.07702740  0.41171088  0.06158244  1
  Se  Se118  1  0.07445647  0.41101884  0.55588952  1
  Se  Se119  1  0.10296640  0.75916941  0.05121139  1
  Se  Se120  1  0.07357765  0.74485521  0.56557644  1
  Se  Se121  1  0.41511866  0.08776720  0.05012935  1
  Se  Se122  1  0.42274405  0.08563861  0.55449926  1
  Se  Se123  1  0.42050277  0.41468126  0.05414191  1
  Se  Se124  1  0.43247922  0.42964481  0.55023652  1
  Se  Se125  1  0.42335186  0.74866401  0.05768278  1
  Se  Se126  1  0.41270691  0.74641664  0.55096338  1
  Se  Se127  1  0.75057721  0.08774959  0.05502344  1
  Se  Se128  1  0.75531385  0.08139683  0.55863535  1
  Se  Se129  1  0.74837863  0.41695837  0.05537720  1
  Se  Se130  1  0.74385845  0.40863885  0.56017322  1
  Se  Se131  1  0.75234856  0.75358768  0.05539468  1
  Se  Se132  1  0.74764113  0.74419986  0.54953016  1
  Se  Se133  1  0.24821489  0.25200849  0.05901224  1
  Se  Se134  1  0.24683842  0.25508400  0.54630794  1
  Se  Se135  1  0.25862492  0.58222166  0.06710743  1
  Se  Se136  1  0.25871434  0.58639776  0.55823966  1
  Se  Se137  1  0.25366530  0.91550114  0.04609888  1
  Se  Se138  1  0.25929582  0.92358893  0.56227873  1
  Se  Se139  1  0.57971825  0.24664378  0.05431775  1
  Se  Se140  1  0.59510826  0.24592604  0.55466988  1
  Se  Se141  1  0.58278453  0.58188712  0.05798372  1
  Se  Se142  1  0.57870529  0.58218896  0.54334284  1
  Se  Se143  1  0.58604481  0.91682610  0.05222277  1
  Se  Se144  1  0.58542598  0.92150591  0.56620180  1
  Se  Se145  1  0.90769238  0.24818768  0.05576615  1
  Se  Se146  1  0.91297375  0.24622095  0.54565207  1
  Se  Se147  1  0.91809220  0.58892361  0.05191820  1
  Se  Se148  1  0.91959983  0.58391102  0.56342403  1
  Se  Se149  1  0.91729806  0.92196197  0.04977701  1
  Se  Se150  1  0.91184372  0.91073152  0.55700655  1
  Se  Se151  1  0.08879170  0.24757431  0.44319423  1
  Se  Se152  1  0.06995301  0.25822709  0.94247742  1
  Se  Se153  1  0.07196180  0.59291048  0.44365784  1
  Se  Se154  1  0.07090553  0.59579151  0.94955788  1
  Se  Se155  1  0.07048614  0.92041912  0.43687295  1
  Se  Se156  1  0.08800724  0.91937014  0.94728944  1
  Se  Se157  1  0.43679555  0.23724466  0.44759358  1
  Se  Se158  1  0.41663875  0.24762792  0.94704873  1
  Se  Se159  1  0.42014118  0.58393906  0.43750647  1
  Se  Se160  1  0.42095663  0.57591098  0.95328618  1
  Se  Se161  1  0.40495940  0.92361081  0.43633102  1
  Se  Se162  1  0.42727982  0.91443571  0.94644295  1
  Se  Se163  1  0.75621023  0.24824977  0.44339839  1
  Se  Se164  1  0.74636092  0.25104669  0.94981715  1
  Se  Se165  1  0.74492647  0.58545851  0.43308047  1
  Se  Se166  1  0.75036352  0.58245268  0.95164214  1
  Se  Se167  1  0.74423510  0.90887099  0.44845851  1
  Se  Se168  1  0.75399197  0.91832864  0.94933976  1
  Se  Se169  1  0.24705931  0.08655748  0.45149497  1
  Se  Se170  1  0.26053983  0.07451424  0.93179291  1
  Se  Se171  1  0.26384950  0.40746598  0.44066690  1
  Se  Se172  1  0.25195849  0.40591058  0.94331495  1
  Se  Se173  1  0.24532668  0.74365369  0.44187398  1
  Se  Se174  1  0.25926716  0.74269256  0.95098435  1
  Se  Se175  1  0.58692652  0.07989597  0.45229280  1
  Se  Se176  1  0.58383048  0.08604337  0.94977952  1
  Se  Se177  1  0.58498693  0.41634490  0.44474462  1
  Se  Se178  1  0.57922041  0.41945374  0.94992728  1
  Se  Se179  1  0.58466475  0.74157009  0.42928325  1
  Se  Se180  1  0.58560595  0.74887853  0.95181771  1
  Se  Se181  1  0.91261974  0.07990779  0.44682953  1
  Se  Se182  1  0.91484237  0.08812372  0.94575787  1
  Se  Se183  1  0.91959985  0.40906019  0.43465151  1
  Se  Se184  1  0.90928977  0.42243277  0.95248099  1
  Se  Se185  1  0.90671017  0.75237213  0.44630342  1
  Se  Se186  1  0.91522981  0.76068286  0.95632474  1
  Se  Se187  1  0.25691688  0.24864835  0.30662292  1
  Se  Se188  1  0.25345560  0.25675574  0.79427888  1
  Se  Se189  1  0.25606150  0.58526821  0.30038135  1
  Se  Se190  1  0.23861440  0.57677624  0.81703632  1
  Se  Se191  1  0.23907217  0.90697372  0.30588785  1
  Se  Se192  1  0.24969577  0.90232444  0.81082557  1
  Se  Se193  1  0.58965799  0.25207207  0.30581695  1
  Se  Se194  1  0.57902600  0.24814284  0.81565767  1
  Se  Se195  1  0.59004030  0.58520686  0.29715208  1
  Se  Se196  1  0.57114674  0.57274791  0.80844904  1
  Se  Se197  1  0.56714157  0.90789101  0.30315452  1
  Se  Se198  1  0.59243236  0.92014853  0.80714443  1
  Se  Se199  1  0.93324256  0.25783215  0.30235237  1
  Se  Se200  1  0.90436234  0.24693258  0.80832537  1
  Se  Se201  1  0.92027546  0.58514351  0.29965190  1
  Se  Se202  1  0.91153016  0.58710608  0.81186267  1
  Se  Se203  1  0.90954182  0.91421836  0.30542758  1
  Se  Se204  1  0.92113942  0.92397155  0.81041359  1
  Se  Se205  1  0.08694551  0.08433874  0.31007378  1
  Se  Se206  1  0.09003752  0.09261263  0.79974656  1
  Se  Se207  1  0.08954412  0.41866643  0.30270614  1
  Se  Se208  1  0.08752060  0.42555755  0.81438454  1
  Se  Se209  1  0.07903524  0.74638954  0.29983293  1
  Se  Se210  1  0.07615827  0.75037044  0.81167191  1
  Se  Se211  1  0.42082530  0.09158225  0.31047232  1
  Se  Se212  1  0.42569328  0.09069109  0.80811096  1
  Se  Se213  1  0.42313047  0.41455883  0.30336125  1
  Se  Se214  1  0.40747622  0.41217470  0.80507935  1
  Se  Se215  1  0.41589161  0.75559107  0.29107311  1
  Se  Se216  1  0.42991255  0.75077595  0.80847487  1
  Se  Se217  1  0.75403171  0.08776936  0.31057460  1
  Se  Se218  1  0.74542448  0.08047586  0.80448046  1
  Se  Se219  1  0.75128190  0.41842431  0.29817127  1
  Se  Se220  1  0.74812266  0.41848676  0.81013394  1
  Se  Se221  1  0.75155434  0.75186625  0.29877253  1
  Se  Se222  1  0.76063739  0.75904728  0.81717921  1
  Se  Se223  1  0.23974269  0.09134048  0.19012177  1
  Se  Se224  1  0.25006173  0.09039974  0.68277897  1
  Se  Se225  1  0.25646885  0.41030818  0.20095680  1
  Se  Se226  1  0.22484297  0.44206985  0.69252005  1
  Se  Se227  1  0.25555998  0.74725863  0.19503413  1
  Se  Se228  1  0.23714055  0.75444141  0.68971363  1
  Se  Se229  1  0.57649723  0.09281081  0.19038680  1
  Se  Se230  1  0.59911120  0.08243058  0.70887977  1
  Se  Se231  1  0.58863436  0.41182764  0.19501567  1
  Se  Se232  1  0.57487486  0.42468363  0.68762050  1
  Se  Se233  1  0.58653799  0.74850175  0.20056536  1
  Se  Se234  1  0.57957132  0.75467555  0.69106244  1
  Se  Se235  1  0.90238782  0.09418133  0.19855964  1
  Se  Se236  1  0.93103635  0.07784656  0.69448064  1
  Se  Se237  1  0.91823799  0.41457775  0.19391140  1
  Se  Se238  1  0.90811166  0.42523768  0.69341692  1
  Se  Se239  1  0.92008477  0.74837050  0.18960974  1
  Se  Se240  1  0.91570083  0.74964331  0.70081057  1
  Se  Se241  1  0.08132916  0.24998308  0.20026672  1
  Se  Se242  1  0.08349925  0.24881864  0.68310153  1
  Se  Se243  1  0.08523908  0.58084788  0.19574708  1
  Se  Se244  1  0.07078247  0.59416922  0.70908310  1
  Se  Se245  1  0.08400686  0.90244362  0.18051677  1
  Se  Se246  1  0.08190009  0.92156718  0.70451565  1
  Se  Se247  1  0.41443404  0.25543158  0.19761225  1
  Se  Se248  1  0.42057152  0.25243826  0.69115139  1
  Se  Se249  1  0.42004050  0.58074871  0.19723791  1
  Se  Se250  1  0.41466565  0.58049928  0.68802879  1
  Se  Se251  1  0.42095002  0.91548951  0.18452841  1
  Se  Se252  1  0.42722868  0.91523624  0.69254733  1
  Se  Se253  1  0.74678282  0.25497637  0.20085179  1
  Se  Se254  1  0.76378648  0.24050158  0.69412638  1
  Se  Se255  1  0.74920599  0.58528089  0.19628674  1
  Se  Se256  1  0.75143541  0.57865333  0.69498875  1
  Se  Se257  1  0.75377637  0.91396285  0.18616686  1
  Se  Se258  1  0.75339949  0.91568173  0.69920377  1
