# generated using pymatgen
data_In86Cu29Se144
_symmetry_space_group_name_H-M   'P 1'
_cell_length_a   17.58588167
_cell_length_b   17.58911249
_cell_length_c   23.44576718
_cell_angle_alpha   89.99465572
_cell_angle_beta   90.04127675
_cell_angle_gamma   89.99493737
_symmetry_Int_Tables_number   1
_chemical_formula_structural   In86Cu29Se144
_chemical_formula_sum   'In86 Cu29 Se144'
_cell_volume   7252.24395162
_cell_formula_units_Z   1
loop_
 _symmetry_equiv_pos_site_id
 _symmetry_equiv_pos_as_xyz
  1  'x, y, z'
loop_
 _atom_site_type_symbol
 _atom_site_label
 _atom_site_symmetry_multiplicity
 _atom_site_fract_x
 _atom_site_fract_y
 _atom_site_fract_z
 _atom_site_occupancy
  In  In0  1  0.01598974  0.15906565  0.12209518  1
  In  In1  1  0.01528762  0.17195102  0.62541617  1
  In  In2  1  0.00046479  0.48724900  0.12279338  1
  In  In3  1  -0.00093541  0.50483185  0.63397652  1
  In  In4  1  0.00065455  0.82830093  0.12342732  1
  In  In5  1  -0.00047050  0.82684432  0.61775537  1
  In  In6  1  0.32506816  0.17504209  0.12879558  1
  In  In7  1  0.34086400  0.16402951  0.61462039  1
  In  In8  1  0.33441362  0.49920439  0.12166018  1
  In  In9  1  0.35680853  0.48552358  0.64290063  1
  In  In10  1  0.31941785  0.84640982  0.14511939  1
  In  In11  1  0.32797555  0.83856030  0.61751841  1
  In  In12  1  0.68107399  0.17117859  0.12892503  1
  In  In13  1  0.65228992  0.18237870  0.62977080  1
  In  In14  1  0.64139792  0.50537710  0.12421767  1
  In  In15  1  0.64787364  0.48983050  0.61255116  1
  In  In16  1  0.67120238  0.83335580  0.12714827  1
  In  In17  1  0.67436870  0.83531230  0.61907454  1
  In  In18  1  0.21424708  -0.02505517  0.41533935  1
  In  In19  1  0.17633342  -0.01319794  0.88601986  1
  In  In20  1  0.16923367  0.31301684  0.38112635  1
  In  In21  1  0.17140385  0.33517605  0.87093440  1
  In  In22  1  0.18212901  0.67204424  0.36887706  1
  In  In23  1  0.16846852  0.66866518  0.87216509  1
  In  In24  1  0.45022838  0.02555972  0.42197781  1
  In  In25  1  0.49797317  0.00002823  0.86071602  1
  In  In26  1  0.49647441  0.33238691  0.37422143  1
  In  In27  1  0.50504935  0.34529535  0.86191858  1
  In  In28  1  0.49018775  0.67948953  0.39500125  1
  In  In29  1  0.48700762  0.66848786  0.86940573  1
  In  In30  1  0.81995893  -0.00228736  0.38094477  1
  In  In31  1  0.83438000  0.01026699  0.86629641  1
  In  In32  1  0.83194801  0.35354556  0.38168244  1
  In  In33  1  0.83124354  0.32917389  0.86328938  1
  In  In34  1  0.82178854  0.66883621  0.39550499  1
  In  In35  1  0.83602518  0.65400119  0.87110148  1
  In  In36  1  0.02713886  0.17022349  0.38070126  1
  In  In37  1  0.00693916  0.17219668  0.87086901  1
  In  In38  1  -0.00760634  0.48919172  0.38268384  1
  In  In39  1  0.00717229  0.51180861  0.86221046  1
  In  In40  1  0.01027202  0.82841225  0.37964805  1
  In  In41  1  0.02228385  0.83757442  0.87336692  1
  In  In42  1  0.32744397  0.16969939  0.37445574  1
  In  In43  1  0.32736412  0.16084396  0.86907176  1
  In  In44  1  0.34010698  0.50766706  0.37027450  1
  In  In45  1  0.33218121  0.50050337  0.87231010  1
  In  In46  1  0.33772477  0.82807811  0.38043958  1
  In  In47  1  0.32232870  0.82824370  0.86529627  1
  In  In48  1  0.64689610  0.16585498  0.37645365  1
  In  In49  1  0.66581666  0.16713091  0.86306255  1
  In  In50  1  0.66730690  0.50051296  0.38579907  1
  In  In51  1  0.66750914  0.49303891  0.87654879  1
  In  In52  1  0.65561869  0.82717517  0.39736193  1
  In  In53  1  0.65237943  0.83737350  0.86513255  1
  In  In54  1  0.17109302  0.00579624  0.11483346  1
  In  In55  1  0.18450898  0.01015958  0.60783623  1
  In  In56  1  0.17491740  0.34007926  0.11265773  1
  In  In57  1  0.17870076  0.32969254  0.63233836  1
  In  In58  1  0.18260068  0.67866367  0.11367552  1
  In  In59  1  0.16595684  0.66971164  0.63060966  1
  In  In60  1  0.49571941  -0.01840946  0.12950703  1
  In  In61  1  0.49204713  0.00559615  0.61707468  1
  In  In62  1  0.48781840  0.33988518  0.13350892  1
  In  In63  1  0.50267946  0.33574258  0.62261437  1
  In  In64  1  0.49430051  0.65100667  0.11991476  1
  In  In65  1  0.48774049  0.65594754  0.61999559  1
  In  In66  1  0.83048806  -0.00782131  0.12940485  1
  In  In67  1  0.83421286  -0.01638213  0.62411131  1
  In  In68  1  0.82976417  0.32927450  0.12908091  1
  In  In69  1  0.82504924  0.34195505  0.63022926  1
  In  In70  1  0.83127107  0.67739527  0.12579629  1
  In  In71  1  0.83850270  0.67128097  0.61685287  1
  In  In72  1  0.83606594  0.83181385  0.00499169  1
  In  In73  1  0.49686147  0.16994267  -0.00081719  1
  In  In74  1  0.00312616  0.00516947  0.24630224  1
  In  In75  1  0.00949729  0.66029844  0.26106193  1
  In  In76  1  0.63865597  0.00536127  0.26688628  1
  In  In77  1  0.16757385  0.50381554  0.50510034  1
  In  In78  1  0.65561814  0.66753770  0.25342425  1
  In  In79  1  0.00692846  -0.00319507  0.74315772  1
  In  In80  1  0.66379598  0.66130709  0.74340366  1
  In  In81  1  0.83410985  0.16336883  0.50525267  1
  In  In82  1  0.83635483  0.49585857  -0.00681084  1
  In  In83  1  0.84357398  0.17004684  -0.00921084  1
  In  In84  1  0.00090712  0.33256935  0.25727373  1
  In  In85  1  0.49360408  0.82062153  -0.00279790  1
  Cu  Cu86  1  0.17192398  0.49425119  0.24488857  1
  Cu  Cu87  1  0.00161479  0.00002920  0.50381980  1
  Cu  Cu88  1  0.83612535  0.82803617  0.74191515  1
  Cu  Cu89  1  0.16947425  0.50388785  0.75031438  1
  Cu  Cu90  1  0.65883084  0.32918181  0.49924954  1
  Cu  Cu91  1  0.49756358  0.49687363  0.25282860  1
  Cu  Cu92  1  0.65914481  0.33834308  -0.00020331  1
  Cu  Cu93  1  0.00460995  0.66578543  0.50294276  1
  Cu  Cu94  1  0.01070697  0.33223262  -0.00650881  1
  Cu  Cu95  1  0.32943938  0.66366154  0.50419080  1
  Cu  Cu96  1  0.33521522  0.33889277  -0.00371525  1
  Cu  Cu97  1  0.49419935  0.16936517  0.74434861  1
  Cu  Cu98  1  0.33681541  -0.00471621  0.00083551  1
  Cu  Cu99  1  0.33068884  0.66469697  -0.00485249  1
  Cu  Cu100  1  0.82895452  0.83492617  0.25901394  1
  Cu  Cu101  1  0.00543254  0.66422882  -0.00385005  1
  Cu  Cu102  1  0.33621650  0.33530209  0.50371883  1
  Cu  Cu103  1  0.49223080  0.16329240  0.25630713  1
  Cu  Cu104  1  0.82650025  0.16488382  0.74364248  1
  Cu  Cu105  1  0.17277206  0.83674329  0.74523226  1
  Cu  Cu106  1  0.49138493  0.82747965  0.26163172  1
  Cu  Cu107  1  0.67075066  -0.00144414  -0.00667465  1
  Cu  Cu108  1  0.66399546  -0.00194546  0.50407300  1
  Cu  Cu109  1  0.83201277  0.49884585  0.74635016  1
  Cu  Cu110  1  0.49773272  0.84334862  0.74000729  1
  Cu  Cu111  1  0.83098033  0.18093115  0.25273121  1
  Cu  Cu112  1  0.81980971  0.50425431  0.25910662  1
  Cu  Cu113  1  0.17297010  0.16585679  0.74467785  1
  Cu  Cu114  1  0.17484820  0.16315451  0.24960400  1
  Se  Se115  1  0.08498659  0.08406304  0.04625934  1
  Se  Se116  1  0.08401455  0.08928187  0.55084329  1
  Se  Se117  1  0.08514931  0.42182718  0.04783054  1
  Se  Se118  1  0.08346325  0.41380650  0.56727940  1
  Se  Se119  1  0.08189079  0.75068164  0.05216958  1
  Se  Se120  1  0.09165828  0.74737003  0.55332806  1
  Se  Se121  1  0.41588263  0.07424783  0.06204861  1
  Se  Se122  1  0.40652834  0.07251595  0.53882287  1
  Se  Se123  1  0.42064050  0.41575893  0.05344516  1
  Se  Se124  1  0.41863233  0.42183949  0.55432668  1
  Se  Se125  1  0.40098363  0.74603314  0.06408969  1
  Se  Se126  1  0.41404955  0.75006284  0.55393267  1
  Se  Se127  1  0.74996357  0.07757548  0.05387470  1
  Se  Se128  1  0.74171776  0.07866457  0.56650771  1
  Se  Se129  1  0.74458002  0.41414587  0.06031233  1
  Se  Se130  1  0.74433962  0.41016311  0.55240013  1
  Se  Se131  1  0.73393895  0.73909560  0.05350726  1
  Se  Se132  1  0.76397380  0.76253556  0.55129941  1
  Se  Se133  1  0.25540255  0.24930462  0.04837849  1
  Se  Se134  1  0.24998926  0.25259011  0.55400022  1
  Se  Se135  1  0.24919465  0.57853383  0.05020434  1
  Se  Se136  1  0.26107472  0.58084553  0.56999553  1
  Se  Se137  1  0.25739622  0.91074149  0.05674744  1
  Se  Se138  1  0.25330585  0.91773833  0.53913039  1
  Se  Se139  1  0.58891334  0.25408800  0.06288134  1
  Se  Se140  1  0.57324641  0.24539371  0.54926575  1
  Se  Se141  1  0.58063409  0.58668896  0.04668138  1
  Se  Se142  1  0.59272617  0.60100341  0.55247044  1
  Se  Se143  1  0.59066896  0.91827215  0.05271735  1
  Se  Se144  1  0.58044879  0.91512293  0.55638541  1
  Se  Se145  1  0.92670148  0.26072685  0.05783612  1
  Se  Se146  1  0.91862265  0.25560716  0.56465629  1
  Se  Se147  1  0.92059285  0.59104939  0.05875469  1
  Se  Se148  1  0.92442301  0.58029792  0.55568311  1
  Se  Se149  1  0.92615243  0.93014511  0.05776493  1
  Se  Se150  1  0.91721122  0.91334289  0.55039856  1
  Se  Se151  1  0.05991667  0.27829078  0.44972082  1
  Se  Se152  1  0.09163708  0.24706372  0.94155343  1
  Se  Se153  1  0.08182287  0.59128848  0.43539890  1
  Se  Se154  1  0.08462997  0.58204242  0.94001735  1
  Se  Se155  1  0.08405964  0.91673964  0.44912470  1
  Se  Se156  1  0.08364384  0.91479351  0.95231235  1
  Se  Se157  1  0.41321626  0.25093787  0.44434632  1
  Se  Se158  1  0.41302474  0.25720648  0.93499698  1
  Se  Se159  1  0.41224852  0.57764404  0.45149345  1
  Se  Se160  1  0.41596315  0.58426981  0.94311273  1
  Se  Se161  1  0.44560730  0.88249024  0.44597444  1
  Se  Se162  1  0.41571811  0.92031463  0.93649465  1
  Se  Se163  1  0.74389100  0.24992710  0.43970991  1
  Se  Se164  1  0.73935245  0.25742268  0.94075050  1
  Se  Se165  1  0.77113670  0.55704098  0.45306254  1
  Se  Se166  1  0.74182959  0.59192068  0.94482215  1
  Se  Se167  1  0.74990102  0.91437503  0.45385082  1
  Se  Se168  1  0.74951223  0.91782698  0.93453295  1
  Se  Se169  1  0.21685554  0.11812397  0.43891608  1
  Se  Se170  1  0.25718932  0.08162936  0.94706597  1
  Se  Se171  1  0.25414649  0.41397038  0.44064722  1
  Se  Se172  1  0.24878694  0.41907281  0.94333907  1
  Se  Se173  1  0.24824412  0.74731667  0.44941011  1
  Se  Se174  1  0.25022751  0.75220606  0.94327807  1
  Se  Se175  1  0.58201350  0.08402188  0.45298520  1
  Se  Se176  1  0.58752652  0.07821914  0.93754143  1
  Se  Se177  1  0.57678482  0.41491192  0.44637372  1
  Se  Se178  1  0.57757385  0.41704223  0.94385586  1
  Se  Se179  1  0.60842170  0.71274277  0.45721462  1
  Se  Se180  1  0.59059317  0.74089222  0.93676740  1
  Se  Se181  1  0.92382813  0.07852372  0.43858735  1
  Se  Se182  1  0.93130555  0.07188637  0.93861082  1
  Se  Se183  1  0.91800125  0.41369170  0.45754100  1
  Se  Se184  1  0.92527357  0.40701020  0.93239670  1
  Se  Se185  1  0.92283491  0.75094981  0.44777561  1
  Se  Se186  1  0.92137524  0.74389761  0.93777091  1
  Se  Se187  1  0.25134595  0.25501307  0.30052584  1
  Se  Se188  1  0.25219835  0.25048995  0.80092045  1
  Se  Se189  1  0.25102205  0.58088482  0.29937650  1
  Se  Se190  1  0.25276324  0.58877609  0.80312176  1
  Se  Se191  1  0.25530786  0.91972349  0.31862094  1
  Se  Se192  1  0.24890522  0.92533935  0.80105735  1
  Se  Se193  1  0.57946325  0.25008483  0.30196062  1
  Se  Se194  1  0.58124341  0.25013724  0.79824515  1
  Se  Se195  1  0.57139719  0.57916542  0.31652801  1
  Se  Se196  1  0.57772523  0.57661079  0.80868113  1
  Se  Se197  1  0.56893595  0.90352685  0.32562307  1
  Se  Se198  1  0.58587461  0.92342638  0.79205400  1
  Se  Se199  1  0.91190846  0.24518886  0.32012624  1
  Se  Se200  1  0.91355202  0.23930575  0.80125268  1
  Se  Se201  1  0.90500601  0.58074443  0.31601926  1
  Se  Se202  1  0.91584099  0.58710292  0.79442161  1
  Se  Se203  1  0.91284274  0.91680047  0.31270526  1
  Se  Se204  1  0.91529849  0.90746317  0.80586170  1
  Se  Se205  1  0.09795304  0.08165645  0.30957733  1
  Se  Se206  1  0.09549949  0.08228083  0.80626591  1
  Se  Se207  1  0.09402710  0.42402822  0.31281727  1
  Se  Se208  1  0.08526751  0.41655898  0.80135804  1
  Se  Se209  1  0.09954433  0.76595668  0.30167427  1
  Se  Se210  1  0.08900343  0.75368628  0.79930291  1
  Se  Se211  1  0.42137518  0.07902808  0.31859907  1
  Se  Se212  1  0.41265064  0.08435223  0.79784333  1
  Se  Se213  1  0.41219206  0.41315509  0.30356628  1
  Se  Se214  1  0.40451770  0.41220817  0.80142529  1
  Se  Se215  1  0.41400050  0.73583446  0.31051951  1
  Se  Se216  1  0.42056432  0.76075745  0.79937741  1
  Se  Se217  1  0.75259419  0.09219438  0.30761625  1
  Se  Se218  1  0.74512645  0.07899786  0.79617444  1
  Se  Se219  1  0.73985579  0.41701253  0.30925981  1
  Se  Se220  1  0.74773315  0.41891466  0.80205705  1
  Se  Se221  1  0.74861299  0.75411454  0.31622369  1
  Se  Se222  1  0.75483231  0.75324364  0.80634813  1
  Se  Se223  1  0.25159485  0.07760039  0.19197954  1
  Se  Se224  1  0.25450066  0.08540921  0.68711172  1
  Se  Se225  1  0.25255585  0.41164979  0.18998678  1
  Se  Se226  1  0.25351664  0.41622402  0.70252092  1
  Se  Se227  1  0.24980714  0.73949473  0.19901548  1
  Se  Se228  1  0.25629819  0.75338887  0.69301694  1
  Se  Se229  1  0.57378570  0.09195140  0.18678426  1
  Se  Se230  1  0.57593649  0.08433766  0.69022651  1
  Se  Se231  1  0.58265605  0.41582314  0.19911656  1
  Se  Se232  1  0.58086177  0.42014887  0.69331852  1
  Se  Se233  1  0.56907883  0.75989160  0.19050144  1
  Se  Se234  1  0.57775698  0.75684801  0.68582082  1
  Se  Se235  1  0.90577625  0.09903843  0.18975772  1
  Se  Se236  1  0.91211262  0.08776417  0.68587153  1
  Se  Se237  1  0.90491880  0.42625066  0.19948078  1
  Se  Se238  1  0.91857205  0.41308676  0.69896660  1
  Se  Se239  1  0.91185947  0.75564390  0.20123995  1
  Se  Se240  1  0.92228617  0.74664506  0.69163347  1
  Se  Se241  1  0.09181025  0.24824438  0.19257823  1
  Se  Se242  1  0.08576138  0.25308928  0.70065065  1
  Se  Se243  1  0.08529401  0.57381689  0.18931153  1
  Se  Se244  1  0.08394225  0.58817714  0.70042543  1
  Se  Se245  1  0.08939079  0.91287930  0.18707943  1
  Se  Se246  1  0.09750566  0.91478899  0.67907723  1
  Se  Se247  1  0.41385829  0.24669384  0.19895869  1
  Se  Se248  1  0.41404283  0.25069378  0.68706050  1
  Se  Se249  1  0.41623899  0.57913174  0.19537909  1
  Se  Se250  1  0.42224881  0.58912413  0.70385272  1
  Se  Se251  1  0.41614060  0.92064026  0.20939554  1
  Se  Se252  1  0.41026081  0.92283995  0.68739551  1
  Se  Se253  1  0.74359608  0.26105978  0.20288422  1
  Se  Se254  1  0.74382366  0.25533621  0.69762439  1
  Se  Se255  1  0.75061786  0.58146215  0.19032970  1
  Se  Se256  1  0.75410840  0.57587041  0.68150207  1
  Se  Se257  1  0.74451098  0.91826315  0.20518441  1
  Se  Se258  1  0.74877735  0.91418563  0.69741258  1
