# generated using pymatgen
data_In86Cu29Se144
_symmetry_space_group_name_H-M   'P 1'
_cell_length_a   17.58161063
_cell_length_b   17.58326500
_cell_length_c   23.43796595
_cell_angle_alpha   89.99974901
_cell_angle_beta   90.03851509
_cell_angle_gamma   89.98860204
_symmetry_Int_Tables_number   1
_chemical_formula_structural   In86Cu29Se144
_chemical_formula_sum   'In86 Cu29 Se144'
_cell_volume   7245.66067411
_cell_formula_units_Z   1
loop_
 _symmetry_equiv_pos_site_id
 _symmetry_equiv_pos_as_xyz
  1  'x, y, z'
loop_
 _atom_site_type_symbol
 _atom_site_label
 _atom_site_symmetry_multiplicity
 _atom_site_fract_x
 _atom_site_fract_y
 _atom_site_fract_z
 _atom_site_occupancy
  In  In0  1  0.01084495  0.17902304  0.12458594  1
  In  In1  1  0.00335189  0.16766407  0.61742678  1
  In  In2  1  -0.00761956  0.51382382  0.14048884  1
  In  In3  1  -0.00472029  0.49277720  0.61613149  1
  In  In4  1  -0.00752465  0.82519854  0.13348910  1
  In  In5  1  0.00258267  0.81729960  0.61779901  1
  In  In6  1  0.32233650  0.16493744  0.12301377  1
  In  In7  1  0.31507588  0.16941082  0.63923258  1
  In  In8  1  0.34591810  0.50485062  0.12005727  1
  In  In9  1  0.32769593  0.50973234  0.62696611  1
  In  In10  1  0.37771851  0.80666970  0.15721933  1
  In  In11  1  0.33567052  0.83080508  0.62333942  1
  In  In12  1  0.68015230  0.15866405  0.12915810  1
  In  In13  1  0.67512911  0.15358242  0.61509974  1
  In  In14  1  0.66304572  0.50253673  0.12943551  1
  In  In15  1  0.67946791  0.50199548  0.61963963  1
  In  In16  1  0.66003635  0.82666756  0.13093874  1
  In  In17  1  0.63758345  0.82927354  0.60859255  1
  In  In18  1  0.17681324  -0.01101728  0.38625708  1
  In  In19  1  0.18117395  0.00182181  0.87441769  1
  In  In20  1  0.15248801  0.34833643  0.38436348  1
  In  In21  1  0.16552681  0.32392254  0.87390844  1
  In  In22  1  0.17155045  0.66572935  0.36742122  1
  In  In23  1  0.17709439  0.65635314  0.87535416  1
  In  In24  1  0.49471006  -0.01565944  0.35900620  1
  In  In25  1  0.48353231  -0.00213963  0.87729435  1
  In  In26  1  0.50319823  0.32291982  0.36770231  1
  In  In27  1  0.49970598  0.34536709  0.87369756  1
  In  In28  1  0.51326604  0.68913735  0.36075788  1
  In  In29  1  0.49314805  0.66858570  0.87964515  1
  In  In30  1  0.83079129  0.01304295  0.37555866  1
  In  In31  1  0.83681243  0.00740507  0.88074362  1
  In  In32  1  0.83854206  0.33772451  0.36971360  1
  In  In33  1  0.82783197  0.34113887  0.88480004  1
  In  In34  1  0.81873384  0.65109676  0.37390548  1
  In  In35  1  0.81330600  0.67284203  0.88137812  1
  In  In36  1  -0.00638432  0.17988101  0.37991171  1
  In  In37  1  -0.00231659  0.17390204  0.88365105  1
  In  In38  1  0.00450663  0.49695040  0.36709624  1
  In  In39  1  -0.00307448  0.48995815  0.88087383  1
  In  In40  1  0.01501370  0.83287022  0.37796587  1
  In  In41  1  -0.00137492  0.83630591  0.87668026  1
  In  In42  1  0.33547456  0.15386693  0.37547704  1
  In  In43  1  0.31884408  0.15915966  0.86486319  1
  In  In44  1  0.31247609  0.51047672  0.37480188  1
  In  In45  1  0.34593882  0.51186314  0.86260630  1
  In  In46  1  0.33675296  0.83340992  0.37195498  1
  In  In47  1  0.34290536  0.83578970  0.87550943  1
  In  In48  1  0.67451635  0.17441934  0.36313310  1
  In  In49  1  0.67066526  0.17745709  0.87982644  1
  In  In50  1  0.67850637  0.51203657  0.37162294  1
  In  In51  1  0.63172758  0.53696317  0.91178635  1
  In  In52  1  0.65253486  0.82754826  0.36715108  1
  In  In53  1  0.65456906  0.81318806  0.87671624  1
  In  In54  1  0.17389628  0.01100720  0.12542538  1
  In  In55  1  0.18046709  0.00599194  0.61788103  1
  In  In56  1  0.17119858  0.32148364  0.12625242  1
  In  In57  1  0.16619088  0.33251239  0.62005776  1
  In  In58  1  0.17301542  0.65783154  0.13866689  1
  In  In59  1  0.18053851  0.67612247  0.61051719  1
  In  In60  1  0.51514036  -0.02078352  0.14159730  1
  In  In61  1  0.49250621  -0.02237064  0.61728036  1
  In  In62  1  0.50136741  0.35131385  0.12339393  1
  In  In63  1  0.49535826  0.32062545  0.62476651  1
  In  In64  1  0.50475736  0.66285626  0.12481735  1
  In  In65  1  0.49103695  0.67070964  0.62634976  1
  In  In66  1  0.82171234  -0.00089555  0.12827092  1
  In  In67  1  0.81564937  0.01059158  0.61585871  1
  In  In68  1  0.83450221  0.33612351  0.12894358  1
  In  In69  1  0.83605187  0.33298283  0.61668431  1
  In  In70  1  0.83052242  0.66293331  0.13216309  1
  In  In71  1  0.83137574  0.65430925  0.62345914  1
  In  In72  1  0.49767110  0.16567522  -0.00033716  1
  In  In73  1  0.33346941  0.33470750  0.24916096  1
  In  In74  1  0.00673496  -0.00198161  0.74941389  1
  In  In75  1  0.00335323  0.33454260  0.74176009  1
  In  In76  1  0.50605171  0.15633246  0.49659670  1
  In  In77  1  0.17211413  0.83711222  -0.00002318  1
  In  In78  1  0.00656739  0.65982324  0.74825978  1
  In  In79  1  0.82431260  0.83191525  0.01342309  1
  In  In80  1  0.66351950  0.34112713  0.75324309  1
  In  In81  1  0.16847397  0.49738932  0.00805165  1
  In  In82  1  0.66028120  -0.00170319  0.74015545  1
  In  In83  1  0.49979709  0.50641575  0.49511070  1
  In  In84  1  0.00140321  0.00077538  0.25854480  1
  In  In85  1  0.83435811  0.83484425  0.49393116  1
  Cu  Cu86  1  -0.00467801  0.66527793  0.01107463  1
  Cu  Cu87  1  0.32757885  0.33160570  0.50313240  1
  Cu  Cu88  1  -0.00006055  0.01492039  0.00397919  1
  Cu  Cu89  1  0.82157880  0.50764518  0.75718014  1
  Cu  Cu90  1  0.00140228  0.33260330  0.49575113  1
  Cu  Cu91  1  -0.00541813  0.33441843  0.00631093  1
  Cu  Cu92  1  0.33520735  -0.00137394  0.00279814  1
  Cu  Cu93  1  0.50557403  0.16473657  0.24661593  1
  Cu  Cu94  1  0.66491764  -0.00551925  0.00678738  1
  Cu  Cu95  1  0.48772833  0.16211335  0.74788737  1
  Cu  Cu96  1  0.17530360  0.50109292  0.74196455  1
  Cu  Cu97  1  0.81976486  0.83033131  0.74983693  1
  Cu  Cu98  1  0.00521703  0.65669664  0.49408135  1
  Cu  Cu99  1  0.17536181  0.82979328  0.74539237  1
  Cu  Cu100  1  0.33751626  0.67523516  0.49453518  1
  Cu  Cu101  1  0.82959217  0.49795645  0.25117726  1
  Cu  Cu102  1  0.83400163  0.17007557  0.74876304  1
  Cu  Cu103  1  0.83682358  0.17035975  0.25066803  1
  Cu  Cu104  1  0.17128220  0.83721233  0.25617039  1
  Cu  Cu105  1  0.50286404  0.50488479  0.75364351  1
  Cu  Cu106  1  0.16489704  0.17068877  0.25447537  1
  Cu  Cu107  1  0.00260629  0.00079522  0.49757748  1
  Cu  Cu108  1  0.32856946  0.33357245  -0.00395836  1
  Cu  Cu109  1  0.33680228  -0.00436225  0.49862103  1
  Cu  Cu110  1  0.67514198  0.33198065  0.00701047  1
  Cu  Cu111  1  0.67834790  0.33565065  0.49112347  1
  Cu  Cu112  1  0.49981294  0.50387233  0.24922470  1
  Cu  Cu113  1  0.83148696  0.82288423  0.25339850  1
  Cu  Cu114  1  0.49696814  0.82766851  0.74853635  1
  Se  Se115  1  0.08943319  0.09087267  0.05668875  1
  Se  Se116  1  0.08683922  0.08179820  0.55293133  1
  Se  Se117  1  0.07450443  0.41340789  0.06794111  1
  Se  Se118  1  0.08491494  0.41555564  0.55086217  1
  Se  Se119  1  0.08185602  0.74627015  0.06322895  1
  Se  Se120  1  0.08534483  0.74706662  0.54393945  1
  Se  Se121  1  0.41834590  0.07530945  0.06508318  1
  Se  Se122  1  0.40932301  0.08164439  0.56200220  1
  Se  Se123  1  0.41400977  0.41489220  0.04798636  1
  Se  Se124  1  0.41406804  0.41155838  0.55778431  1
  Se  Se125  1  0.42356899  0.75649502  0.06140667  1
  Se  Se126  1  0.42157594  0.75471915  0.55092622  1
  Se  Se127  1  0.75242500  0.08033223  0.05131183  1
  Se  Se128  1  0.75768644  0.09367391  0.53717791  1
  Se  Se129  1  0.75052301  0.41987460  0.06160468  1
  Se  Se130  1  0.75628474  0.41880001  0.54886807  1
  Se  Se131  1  0.73445050  0.73215827  0.05940717  1
  Se  Se132  1  0.74763173  0.74780542  0.55819749  1
  Se  Se133  1  0.24856587  0.24826879  0.04914210  1
  Se  Se134  1  0.25012283  0.24309838  0.55595312  1
  Se  Se135  1  0.25823781  0.59743244  0.05608930  1
  Se  Se136  1  0.25825708  0.58370090  0.54583801  1
  Se  Se137  1  0.25921675  0.91837167  0.06524654  1
  Se  Se138  1  0.25243441  0.91124009  0.55219299  1
  Se  Se139  1  0.58829159  0.25150501  0.06308760  1
  Se  Se140  1  0.59550093  0.25798206  0.55268029  1
  Se  Se141  1  0.57115286  0.56575149  0.05660023  1
  Se  Se142  1  0.58778541  0.59097496  0.55884091  1
  Se  Se143  1  0.58299666  0.91069961  0.05775504  1
  Se  Se144  1  0.60727218  0.95108053  0.55280648  1
  Se  Se145  1  0.91351993  0.24817731  0.05920685  1
  Se  Se146  1  0.91808173  0.24878537  0.55065672  1
  Se  Se147  1  0.91303363  0.58112760  0.06147063  1
  Se  Se148  1  0.91694722  0.58297919  0.55088754  1
  Se  Se149  1  0.92691334  0.92551336  0.06198997  1
  Se  Se150  1  0.92177334  0.92380272  0.56110398  1
  Se  Se151  1  0.08900226  0.24611574  0.44926451  1
  Se  Se152  1  0.08159622  0.25740648  0.95034283  1
  Se  Se153  1  0.08915297  0.58000013  0.43671086  1
  Se  Se154  1  0.07573233  0.59075434  0.94573110  1
  Se  Se155  1  0.08734007  0.91195252  0.45358579  1
  Se  Se156  1  0.07494455  0.93087820  0.94297382  1
  Se  Se157  1  0.41208704  0.25507093  0.44363830  1
  Se  Se158  1  0.40975511  0.25272516  0.93578453  1
  Se  Se159  1  0.41431734  0.59465179  0.43151579  1
  Se  Se160  1  0.41989989  0.57095259  0.94444512  1
  Se  Se161  1  0.42048384  0.91763299  0.44165971  1
  Se  Se162  1  0.41868084  0.91269733  0.95254365  1
  Se  Se163  1  0.75644168  0.24884732  0.43725128  1
  Se  Se164  1  0.75539328  0.24707492  0.95231789  1
  Se  Se165  1  0.74720099  0.58057308  0.45391185  1
  Se  Se166  1  0.76401949  0.57250949  0.95021888  1
  Se  Se167  1  0.74253900  0.91952755  0.43386345  1
  Se  Se168  1  0.74371072  0.91702258  0.93982080  1
  Se  Se169  1  0.25300190  0.08409517  0.45071363  1
  Se  Se170  1  0.25424714  0.08392544  0.94839547  1
  Se  Se171  1  0.25054917  0.41939787  0.44901216  1
  Se  Se172  1  0.25217842  0.41820377  0.93592493  1
  Se  Se173  1  0.24904833  0.75188469  0.43905105  1
  Se  Se174  1  0.25970057  0.74134454  0.94360467  1
  Se  Se175  1  0.58526094  0.07918893  0.42348008  1
  Se  Se176  1  0.59088733  0.07383168  0.93969774  1
  Se  Se177  1  0.58678909  0.40963921  0.43659868  1
  Se  Se178  1  0.58677612  0.40547173  0.94985254  1
  Se  Se179  1  0.58038108  0.75270943  0.44569570  1
  Se  Se180  1  0.57452532  0.74851538  0.95212366  1
  Se  Se181  1  0.91991387  0.08412381  0.44518900  1
  Se  Se182  1  0.91163355  0.09195536  0.95042605  1
  Se  Se183  1  0.92157575  0.41772047  0.44050764  1
  Se  Se184  1  0.91344416  0.42031851  0.95415349  1
  Se  Se185  1  0.92283901  0.73989423  0.43645485  1
  Se  Se186  1  0.92108708  0.74919197  0.94776398  1
  Se  Se187  1  0.24751069  0.24937985  0.31554705  1
  Se  Se188  1  0.24917578  0.25631815  0.80094850  1
  Se  Se189  1  0.24706305  0.58284700  0.29413345  1
  Se  Se190  1  0.25277138  0.58826776  0.79645181  1
  Se  Se191  1  0.25319610  0.92398233  0.30609351  1
  Se  Se192  1  0.25118354  0.91069006  0.80645627  1
  Se  Se193  1  0.58752485  0.25377039  0.29438049  1
  Se  Se194  1  0.57322989  0.23940454  0.80640575  1
  Se  Se195  1  0.58541619  0.58401977  0.30360655  1
  Se  Se196  1  0.58321927  0.58377158  0.81306233  1
  Se  Se197  1  0.58267643  0.90945452  0.29081486  1
  Se  Se198  1  0.57623887  0.91247135  0.80836278  1
  Se  Se199  1  0.92264084  0.25347798  0.30061377  1
  Se  Se200  1  0.90952896  0.25267649  0.80845095  1
  Se  Se201  1  0.91249795  0.58203585  0.30510620  1
  Se  Se202  1  0.91236695  0.58166891  0.81385339  1
  Se  Se203  1  0.90906238  0.90663981  0.31352487  1
  Se  Se204  1  0.90332213  0.90977874  0.80625117  1
  Se  Se205  1  0.09178882  0.08827996  0.31868291  1
  Se  Se206  1  0.08567743  0.09132959  0.81334520  1
  Se  Se207  1  0.08636627  0.41075848  0.29988252  1
  Se  Se208  1  0.08994025  0.42848252  0.80388745  1
  Se  Se209  1  0.08298317  0.75223842  0.30175440  1
  Se  Se210  1  0.09243007  0.75670334  0.80995753  1
  Se  Se211  1  0.41850602  0.08647509  0.30036817  1
  Se  Se212  1  0.41031788  0.07615740  0.80253825  1
  Se  Se213  1  0.41966050  0.42631219  0.31261209  1
  Se  Se214  1  0.41786779  0.41427281  0.79775264  1
  Se  Se215  1  0.41067844  0.75160505  0.29729671  1
  Se  Se216  1  0.41418626  0.74662259  0.80436990  1
  Se  Se217  1  0.75273613  0.08141042  0.29696226  1
  Se  Se218  1  0.75101509  0.08846372  0.80569519  1
  Se  Se219  1  0.74557887  0.41478894  0.30417737  1
  Se  Se220  1  0.74403488  0.42912698  0.81872647  1
  Se  Se221  1  0.74536964  0.74322658  0.30621335  1
  Se  Se222  1  0.73993375  0.74468693  0.80207223  1
  Se  Se223  1  0.24928832  0.08926133  0.20156195  1
  Se  Se224  1  0.24751971  0.06977778  0.70224248  1
  Se  Se225  1  0.24890352  0.42398959  0.18564818  1
  Se  Se226  1  0.25198261  0.41230300  0.68916624  1
  Se  Se227  1  0.25000852  0.75472457  0.19882189  1
  Se  Se228  1  0.25419108  0.74340388  0.69185139  1
  Se  Se229  1  0.59252209  0.08065452  0.19732847  1
  Se  Se230  1  0.57041988  0.09177227  0.68315332  1
  Se  Se231  1  0.58301148  0.41591268  0.20077132  1
  Se  Se232  1  0.57530586  0.42556945  0.68552648  1
  Se  Se233  1  0.57152019  0.75350475  0.19922228  1
  Se  Se234  1  0.58303312  0.75102177  0.69264189  1
  Se  Se235  1  0.91695822  0.08677513  0.19089170  1
  Se  Se236  1  0.90929887  0.08555166  0.68987222  1
  Se  Se237  1  0.91659943  0.41539246  0.20080445  1
  Se  Se238  1  0.90130616  0.42819889  0.69471929  1
  Se  Se239  1  0.91791054  0.74043673  0.20290023  1
  Se  Se240  1  0.90944872  0.75273050  0.69419519  1
  Se  Se241  1  0.08444165  0.25542960  0.20185167  1
  Se  Se242  1  0.09244429  0.23570716  0.69309738  1
  Se  Se243  1  0.08686427  0.58301751  0.20617767  1
  Se  Se244  1  0.09174176  0.57690493  0.68074259  1
  Se  Se245  1  0.08904794  0.91427223  0.19294725  1
  Se  Se246  1  0.08847786  0.90363540  0.68660490  1
  Se  Se247  1  0.42400797  0.24533835  0.18606873  1
  Se  Se248  1  0.40996151  0.25302631  0.69807147  1
  Se  Se249  1  0.41559633  0.58486121  0.19633827  1
  Se  Se250  1  0.41716483  0.58333632  0.69653052  1
  Se  Se251  1  0.39181536  0.94403093  0.19397160  1
  Se  Se252  1  0.41421755  0.91406418  0.69680915  1
  Se  Se253  1  0.75056569  0.25146934  0.19726333  1
  Se  Se254  1  0.75048987  0.24763604  0.68934386  1
  Se  Se255  1  0.74474625  0.58380752  0.20083993  1
  Se  Se256  1  0.74332114  0.58709431  0.69741947  1
  Se  Se257  1  0.75360152  0.90629578  0.19555704  1
  Se  Se258  1  0.74970628  0.90626238  0.68196383  1
