# generated using pymatgen
data_In86Cu29Se144
_symmetry_space_group_name_H-M   'P 1'
_cell_length_a   17.57513226
_cell_length_b   17.57167655
_cell_length_c   23.43734889
_cell_angle_alpha   89.99075421
_cell_angle_beta   89.99049729
_cell_angle_gamma   90.00570421
_symmetry_Int_Tables_number   1
_chemical_formula_structural   In86Cu29Se144
_chemical_formula_sum   'In86 Cu29 Se144'
_cell_volume   7238.02824646
_cell_formula_units_Z   1
loop_
 _symmetry_equiv_pos_site_id
 _symmetry_equiv_pos_as_xyz
  1  'x, y, z'
loop_
 _atom_site_type_symbol
 _atom_site_label
 _atom_site_symmetry_multiplicity
 _atom_site_fract_x
 _atom_site_fract_y
 _atom_site_fract_z
 _atom_site_occupancy
  In  In0  1  -0.01351315  0.17734261  0.13315848  1
  In  In1  1  0.00310087  0.17411118  0.61412401  1
  In  In2  1  -0.00134576  0.50119894  0.12262282  1
  In  In3  1  0.00970384  0.49865769  0.62476392  1
  In  In4  1  -0.01156638  0.83484542  0.13670293  1
  In  In5  1  -0.01498586  0.82352142  0.63298348  1
  In  In6  1  0.33290719  0.16883443  0.12642466  1
  In  In7  1  0.33264183  0.16692696  0.62912488  1
  In  In8  1  0.34001808  0.51471318  0.12439276  1
  In  In9  1  0.32706669  0.49908535  0.62195970  1
  In  In10  1  0.32468438  0.82054327  0.12103077  1
  In  In11  1  0.34957110  0.81963825  0.63037021  1
  In  In12  1  0.68117950  0.16828210  0.12607140  1
  In  In13  1  0.66717927  0.16676289  0.62482848  1
  In  In14  1  0.67234230  0.48519579  0.12992040  1
  In  In15  1  0.64943489  0.50894552  0.62567859  1
  In  In16  1  0.66922435  0.83491338  0.11505298  1
  In  In17  1  0.66350920  0.83997839  0.62874848  1
  In  In18  1  0.16062602  0.00761391  0.38058855  1
  In  In19  1  0.17191636  -0.00401191  0.86727135  1
  In  In20  1  0.16006770  0.33826059  0.37967279  1
  In  In21  1  0.17638642  0.34390636  0.86865223  1
  In  In22  1  0.16337220  0.66185096  0.37259415  1
  In  In23  1  0.15310353  0.65417724  0.86699325  1
  In  In24  1  0.50104212  0.00413749  0.38653530  1
  In  In25  1  0.50111892  -0.00842442  0.86297459  1
  In  In26  1  0.50448850  0.33333166  0.38595975  1
  In  In27  1  0.49982313  0.33409054  0.86093180  1
  In  In28  1  0.48842564  0.67894203  0.39266163  1
  In  In29  1  0.50482844  0.68002700  0.87217910  1
  In  In30  1  0.84853088  -0.00188429  0.37304482  1
  In  In31  1  0.82772404  0.00649590  0.88036235  1
  In  In32  1  0.82289969  0.33125201  0.36917001  1
  In  In33  1  0.83025940  0.34079310  0.87927834  1
  In  In34  1  0.83757576  0.65910927  0.37004671  1
  In  In35  1  0.84491115  0.65842016  0.88733857  1
  In  In36  1  -0.00368203  0.16746357  0.37587946  1
  In  In37  1  -0.00567587  0.15621808  0.87700461  1
  In  In38  1  0.01136705  0.50454693  0.36730907  1
  In  In39  1  -0.01164141  0.52266769  0.89625212  1
  In  In40  1  -0.00665190  0.82915101  0.35913847  1
  In  In41  1  -0.00540724  0.81720366  0.87724372  1
  In  In42  1  0.33010738  0.17044395  0.39058871  1
  In  In43  1  0.33303159  0.17235389  0.85043909  1
  In  In44  1  0.32380073  0.51346660  0.39155966  1
  In  In45  1  0.32580511  0.49454704  0.86605759  1
  In  In46  1  0.34350707  0.82948741  0.38012121  1
  In  In47  1  0.34247365  0.83950793  0.86431045  1
  In  In48  1  0.66002628  0.17570232  0.38435604  1
  In  In49  1  0.67950393  0.17751047  0.86393549  1
  In  In50  1  0.66946059  0.49572790  0.37866791  1
  In  In51  1  0.68205332  0.49551398  0.86615146  1
  In  In52  1  0.65589286  0.82548946  0.37694192  1
  In  In53  1  0.66168416  0.83706093  0.88042798  1
  In  In54  1  0.16025226  -0.01676901  0.12382702  1
  In  In55  1  0.17057553  0.02001322  0.62690710  1
  In  In56  1  0.15148481  0.33283986  0.12855343  1
  In  In57  1  0.16938870  0.33999339  0.62017940  1
  In  In58  1  0.17338406  0.65923353  0.12908841  1
  In  In59  1  0.17870967  0.65469327  0.62919662  1
  In  In60  1  0.51068392  -0.00079674  0.12481691  1
  In  In61  1  0.50134118  0.00025528  0.62589380  1
  In  In62  1  0.50470286  0.34703266  0.12941103  1
  In  In63  1  0.50108824  0.33221648  0.62560210  1
  In  In64  1  0.48726495  0.66866293  0.12511618  1
  In  In65  1  0.47736923  0.64679237  0.60029832  1
  In  In66  1  0.83318529  0.00275387  0.12158978  1
  In  In67  1  0.81121954  -0.00247338  0.63273042  1
  In  In68  1  0.83519103  0.33613811  0.12362593  1
  In  In69  1  0.84091474  0.32364254  0.62724929  1
  In  In70  1  0.85372543  0.67971953  0.10630825  1
  In  In71  1  0.83328950  0.67959292  0.63666062  1
  In  In72  1  0.66459545  0.66997346  0.75033644  1
  In  In73  1  0.83105160  0.50159022  0.49817997  1
  In  In74  1  0.16975020  0.83269905  0.50205961  1
  In  In75  1  0.16069642  0.16567613  -0.00719587  1
  In  In76  1  0.82787688  0.83848075  0.50279013  1
  In  In77  1  0.67197536  0.00190239  0.24575679  1
  In  In78  1  0.00225234  0.33922598  0.74619100  1
  In  In79  1  0.00528229  -0.00243989  0.75328030  1
  In  In80  1  0.67578620  0.66431010  0.25091930  1
  In  In81  1  0.32869499  0.33939007  0.26724897  1
  In  In82  1  0.32986756  -0.00615976  0.25933910  1
  In  In83  1  0.50208546  0.16716607  -0.01503681  1
  In  In84  1  0.16236675  0.82703510  -0.00586961  1
  In  In85  1  0.50667725  0.50557458  -0.00246141  1
  Cu  Cu86  1  0.66925629  0.32588535  -0.00145166  1
  Cu  Cu87  1  -0.00291478  0.33438752  0.00580089  1
  Cu  Cu88  1  0.17240916  0.83367518  0.74842135  1
  Cu  Cu89  1  0.83451022  0.17143985  0.25015829  1
  Cu  Cu90  1  0.00347893  0.66350679  0.49806595  1
  Cu  Cu91  1  0.50296508  0.82868070  0.74481397  1
  Cu  Cu92  1  0.15494731  0.15479356  0.25206155  1
  Cu  Cu93  1  0.66810858  -0.00405498  -0.00107102  1
  Cu  Cu94  1  0.50540664  0.50544435  0.25331437  1
  Cu  Cu95  1  0.84308164  0.49801009  0.24660793  1
  Cu  Cu96  1  0.49484251  0.82769656  0.25286764  1
  Cu  Cu97  1  0.66659282  0.00727015  0.50516857  1
  Cu  Cu98  1  -0.00077681  0.00355364  0.49988980  1
  Cu  Cu99  1  0.00012406  0.33249564  0.49732709  1
  Cu  Cu100  1  0.33737915  0.33021587  0.50631221  1
  Cu  Cu101  1  0.32378830  0.33959984  -0.00772117  1
  Cu  Cu102  1  0.66717622  0.66561024  -0.00512525  1
  Cu  Cu103  1  0.83382317  0.16119627  0.74720556  1
  Cu  Cu104  1  0.66922655  0.33232472  0.50292578  1
  Cu  Cu105  1  0.16353630  0.50559747  0.74794539  1
  Cu  Cu106  1  0.50089116  0.18027783  0.26072381  1
  Cu  Cu107  1  0.50601694  0.16146708  0.74104705  1
  Cu  Cu108  1  -0.00664466  0.00039297  0.00384858  1
  Cu  Cu109  1  0.49293307  0.50043048  0.74016273  1
  Cu  Cu110  1  0.34387827  -0.00044202  -0.01128851  1
  Cu  Cu111  1  0.33250157  0.67065947  -0.00169354  1
  Cu  Cu112  1  0.33465338  0.00184522  0.50738591  1
  Cu  Cu113  1  0.16366567  0.82341769  0.24721535  1
  Cu  Cu114  1  0.16888210  0.49714086  0.25153036  1
  Se  Se115  1  0.07742366  0.07995628  0.06201766  1
  Se  Se116  1  0.08631493  0.08561273  0.55002058  1
  Se  Se117  1  0.08562908  0.41697923  0.05391472  1
  Se  Se118  1  0.08175645  0.41779197  0.55037072  1
  Se  Se119  1  0.08218906  0.75059214  0.06768476  1
  Se  Se120  1  0.07605993  0.74586147  0.56217227  1
  Se  Se121  1  0.41374197  0.08085049  0.05547734  1
  Se  Se122  1  0.41827935  0.08621246  0.55900399  1
  Se  Se123  1  0.41079139  0.41149757  0.05402686  1
  Se  Se124  1  0.41825948  0.41654003  0.55779675  1
  Se  Se125  1  0.41744111  0.75362039  0.05042686  1
  Se  Se126  1  0.41659047  0.75836245  0.54478419  1
  Se  Se127  1  0.74761225  0.08291775  0.05223089  1
  Se  Se128  1  0.75587175  0.08635583  0.55547658  1
  Se  Se129  1  0.74787923  0.41321441  0.05222075  1
  Se  Se130  1  0.74720689  0.41367984  0.56408582  1
  Se  Se131  1  0.75038360  0.75111174  0.04736352  1
  Se  Se132  1  0.74330108  0.74284041  0.56004072  1
  Se  Se133  1  0.25296057  0.25516691  0.05566235  1
  Se  Se134  1  0.25001232  0.24789518  0.55700519  1
  Se  Se135  1  0.25338274  0.58476823  0.05226258  1
  Se  Se136  1  0.24476595  0.57916011  0.55086079  1
  Se  Se137  1  0.25895636  0.92373748  0.04980776  1
  Se  Se138  1  0.25497995  0.92016738  0.56675892  1
  Se  Se139  1  0.58192427  0.25304842  0.05850465  1
  Se  Se140  1  0.58428137  0.24914746  0.55586257  1
  Se  Se141  1  0.59313391  0.59017638  0.06483902  1
  Se  Se142  1  0.58769164  0.58374231  0.54476211  1
  Se  Se143  1  0.57927644  0.91653182  0.05047368  1
  Se  Se144  1  0.58562065  0.91872067  0.55526233  1
  Se  Se145  1  0.91269022  0.24685300  0.05344515  1
  Se  Se146  1  0.91279043  0.25076052  0.54747531  1
  Se  Se147  1  0.90369107  0.56408147  0.05162381  1
  Se  Se148  1  0.91786812  0.59262248  0.56107699  1
  Se  Se149  1  0.91690238  0.91308967  0.05847687  1
  Se  Se150  1  0.92105919  0.92595881  0.56372511  1
  Se  Se151  1  0.08349187  0.24634586  0.44532685  1
  Se  Se152  1  0.07404582  0.26216588  0.93621220  1
  Se  Se153  1  0.08529573  0.57971642  0.44554405  1
  Se  Se154  1  0.08996070  0.59424496  0.95454098  1
  Se  Se155  1  0.06902257  0.91281525  0.44109784  1
  Se  Se156  1  0.07570300  0.92828494  0.93920821  1
  Se  Se157  1  0.42261451  0.24759319  0.45321926  1
  Se  Se158  1  0.40369037  0.25849630  0.93360366  1
  Se  Se159  1  0.43075938  0.57077704  0.45279102  1
  Se  Se160  1  0.41254527  0.58934091  0.93682615  1
  Se  Se161  1  0.41402321  0.91986980  0.44948333  1
  Se  Se162  1  0.42523400  0.91310018  0.93919182  1
  Se  Se163  1  0.75482285  0.25248333  0.44829180  1
  Se  Se164  1  0.75428033  0.24507475  0.94497822  1
  Se  Se165  1  0.74217844  0.59919995  0.44346331  1
  Se  Se166  1  0.74567341  0.57602618  0.94509329  1
  Se  Se167  1  0.74036938  0.92831327  0.43795608  1
  Se  Se168  1  0.75389817  0.91310682  0.94735560  1
  Se  Se169  1  0.24751939  0.07892464  0.45182700  1
  Se  Se170  1  0.26221627  0.08332538  0.93432326  1
  Se  Se171  1  0.25280000  0.40799578  0.44809642  1
  Se  Se172  1  0.24334652  0.42857361  0.94483568  1
  Se  Se173  1  0.25609531  0.73919474  0.44400447  1
  Se  Se174  1  0.25680652  0.74675594  0.93182177  1
  Se  Se175  1  0.58065226  0.09039086  0.45295290  1
  Se  Se176  1  0.59514196  0.07570101  0.93208724  1
  Se  Se177  1  0.58815562  0.41960499  0.45167263  1
  Se  Se178  1  0.58748948  0.40628974  0.93863911  1
  Se  Se179  1  0.57863997  0.76163480  0.45469523  1
  Se  Se180  1  0.57977957  0.75187013  0.94996753  1
  Se  Se181  1  0.91327551  0.08513745  0.44742499  1
  Se  Se182  1  0.91204503  0.08660082  0.95153671  1
  Se  Se183  1  0.92193718  0.41503899  0.43602321  1
  Se  Se184  1  0.91397647  0.41670522  0.95070024  1
  Se  Se185  1  0.92140280  0.74705714  0.44213883  1
  Se  Se186  1  0.92057795  0.74819654  0.95528403  1
  Se  Se187  1  0.23938822  0.23375526  0.31127091  1
  Se  Se188  1  0.24444000  0.26078906  0.79536970  1
  Se  Se189  1  0.25215931  0.57834281  0.30707444  1
  Se  Se190  1  0.25119810  0.58788431  0.80006875  1
  Se  Se191  1  0.23686347  0.90239036  0.31533294  1
  Se  Se192  1  0.25601325  0.92087147  0.79684817  1
  Se  Se193  1  0.58791640  0.26044478  0.31038705  1
  Se  Se194  1  0.58425747  0.24758793  0.79765822  1
  Se  Se195  1  0.58047283  0.58804317  0.31546845  1
  Se  Se196  1  0.57313827  0.57289145  0.80829138  1
  Se  Se197  1  0.57291117  0.91711954  0.30662467  1
  Se  Se198  1  0.58984815  0.90862891  0.79845502  1
  Se  Se199  1  0.91698565  0.25328873  0.30587442  1
  Se  Se200  1  0.91446982  0.24268965  0.80639323  1
  Se  Se201  1  0.92266767  0.58429630  0.30048142  1
  Se  Se202  1  0.91340747  0.57620509  0.81138108  1
  Se  Se203  1  0.91272570  0.91734196  0.29642162  1
  Se  Se204  1  0.91305940  0.91377073  0.81373948  1
  Se  Se205  1  0.07312303  0.07428878  0.30727444  1
  Se  Se206  1  0.09486478  0.09764960  0.80566115  1
  Se  Se207  1  0.08506282  0.41008693  0.30063109  1
  Se  Se208  1  0.07984928  0.43255815  0.81182017  1
  Se  Se209  1  0.08057612  0.73942263  0.30069418  1
  Se  Se210  1  0.08592682  0.75575740  0.80341264  1
  Se  Se211  1  0.41970750  0.09326651  0.31288715  1
  Se  Se212  1  0.42194359  0.08022087  0.79624396  1
  Se  Se213  1  0.42493878  0.42990285  0.31778645  1
  Se  Se214  1  0.41197972  0.41657601  0.79703370  1
  Se  Se215  1  0.41600935  0.74393262  0.30774705  1
  Se  Se216  1  0.41794928  0.74585873  0.79783886  1
  Se  Se217  1  0.75253847  0.09270736  0.31176787  1
  Se  Se218  1  0.75111767  0.07742922  0.80093191  1
  Se  Se219  1  0.75133041  0.42614664  0.30226790  1
  Se  Se220  1  0.74472669  0.39772581  0.80042905  1
  Se  Se221  1  0.75862105  0.76296307  0.30978951  1
  Se  Se222  1  0.75259477  0.74590163  0.81987399  1
  Se  Se223  1  0.24257607  0.08311510  0.19157826  1
  Se  Se224  1  0.25440024  0.08445457  0.70149812  1
  Se  Se225  1  0.25156366  0.41935010  0.18963499  1
  Se  Se226  1  0.24493360  0.41956636  0.69513183  1
  Se  Se227  1  0.25538564  0.74449955  0.19875916  1
  Se  Se228  1  0.25333302  0.74760379  0.69533373  1
  Se  Se229  1  0.57436122  0.09951345  0.19530012  1
  Se  Se230  1  0.59306237  0.07581798  0.69420944  1
  Se  Se231  1  0.58612556  0.41614489  0.20466202  1
  Se  Se232  1  0.58328016  0.41646690  0.69599795  1
  Se  Se233  1  0.58038820  0.75551922  0.19092929  1
  Se  Se234  1  0.57095200  0.74159229  0.68127032  1
  Se  Se235  1  0.91093216  0.08163529  0.19623697  1
  Se  Se236  1  0.91861066  0.08602478  0.68678557  1
  Se  Se237  1  0.92336717  0.41153687  0.19345743  1
  Se  Se238  1  0.90737069  0.42930360  0.69117494  1
  Se  Se239  1  0.91355001  0.73612512  0.19652747  1
  Se  Se240  1  0.92083366  0.74328044  0.71006415  1
  Se  Se241  1  0.08100720  0.24747408  0.20078264  1
  Se  Se242  1  0.08954669  0.24465810  0.68958727  1
  Se  Se243  1  0.08610366  0.57730675  0.19419512  1
  Se  Se244  1  0.07859725  0.58880499  0.69587706  1
  Se  Se245  1  0.08242544  0.91468394  0.20066867  1
  Se  Se246  1  0.09112979  0.91036179  0.68604218  1
  Se  Se247  1  0.41754349  0.25285843  0.19694476  1
  Se  Se248  1  0.41953027  0.25008819  0.69607358  1
  Se  Se249  1  0.41850447  0.58574921  0.20119349  1
  Se  Se250  1  0.41239767  0.58669678  0.68858250  1
  Se  Se251  1  0.41904634  0.91157938  0.19030712  1
  Se  Se252  1  0.41880128  0.91695309  0.69588381  1
  Se  Se253  1  0.75088803  0.25566670  0.19679925  1
  Se  Se254  1  0.75236085  0.24779545  0.69522176  1
  Se  Se255  1  0.76254648  0.57934430  0.18617163  1
  Se  Se256  1  0.75306670  0.57490340  0.69304598  1
  Se  Se257  1  0.75661279  0.90470629  0.19081417  1
  Se  Se258  1  0.76818758  0.88837366  0.69716949  1
