# generated using pymatgen
data_In86Cu29Se144
_symmetry_space_group_name_H-M   'P 1'
_cell_length_a   17.57112051
_cell_length_b   17.56862606
_cell_length_c   23.42203125
_cell_angle_alpha   89.95589946
_cell_angle_beta   90.03922853
_cell_angle_gamma   90.01091041
_symmetry_Int_Tables_number   1
_chemical_formula_structural   In86Cu29Se144
_chemical_formula_sum   'In86 Cu29 Se144'
_cell_volume   7230.38751874
_cell_formula_units_Z   1
loop_
 _symmetry_equiv_pos_site_id
 _symmetry_equiv_pos_as_xyz
  1  'x, y, z'
loop_
 _atom_site_type_symbol
 _atom_site_label
 _atom_site_symmetry_multiplicity
 _atom_site_fract_x
 _atom_site_fract_y
 _atom_site_fract_z
 _atom_site_occupancy
  In  In0  1  -0.00257116  0.16580258  0.13130140  1
  In  In1  1  0.00040598  0.18323356  0.62565290  1
  In  In2  1  0.00399876  0.48612816  0.14068898  1
  In  In3  1  -0.01181017  0.50158358  0.61787961  1
  In  In4  1  -0.00631294  0.85025464  0.13352366  1
  In  In5  1  0.00433467  0.81971909  0.61834028  1
  In  In6  1  0.33924180  0.17368211  0.12487946  1
  In  In7  1  0.33776447  0.15571030  0.62292443  1
  In  In8  1  0.33357268  0.49644573  0.12098369  1
  In  In9  1  0.34197396  0.49960875  0.63002160  1
  In  In10  1  0.34660395  0.83491315  0.12062208  1
  In  In11  1  0.32864749  0.82221913  0.61034743  1
  In  In12  1  0.66891921  0.17385348  0.12578408  1
  In  In13  1  0.66727681  0.16571842  0.62374392  1
  In  In14  1  0.65849230  0.48784660  0.12863450  1
  In  In15  1  0.66827425  0.47923313  0.62644118  1
  In  In16  1  0.66062473  0.83426955  0.11640946  1
  In  In17  1  0.66811442  0.85648826  0.62594779  1
  In  In18  1  0.16379067  -0.00086023  0.36767656  1
  In  In19  1  0.18899748  0.00427482  0.88551823  1
  In  In20  1  0.16428259  0.32902400  0.36660902  1
  In  In21  1  0.15682307  0.34162588  0.88618079  1
  In  In22  1  0.16386415  0.67931853  0.37743913  1
  In  In23  1  0.17002373  0.64629749  0.87415689  1
  In  In24  1  0.49068917  0.00968608  0.37248085  1
  In  In25  1  0.50045066  -0.00330300  0.88291161  1
  In  In26  1  0.49626509  0.31650641  0.34953479  1
  In  In27  1  0.50909362  0.32310491  0.88507903  1
  In  In28  1  0.50476829  0.66820036  0.38000695  1
  In  In29  1  0.48889540  0.67517711  0.87867023  1
  In  In30  1  0.84788029  0.00167956  0.37219576  1
  In  In31  1  0.81873498  0.01637007  0.88533598  1
  In  In32  1  0.82745685  0.33103417  0.36973208  1
  In  In33  1  0.82441752  0.32487855  0.87013011  1
  In  In34  1  0.83170321  0.64806454  0.37289283  1
  In  In35  1  0.84640014  0.66813727  0.87862185  1
  In  In36  1  -0.01286636  0.16056666  0.36216425  1
  In  In37  1  -0.01108137  0.17855667  0.88633907  1
  In  In38  1  -0.02678015  0.47787889  0.35252949  1
  In  In39  1  0.01915807  0.48824857  0.88164681  1
  In  In40  1  0.01292645  0.84137361  0.36701721  1
  In  In41  1  -0.00365774  0.82124391  0.88142727  1
  In  In42  1  0.34642386  0.16916565  0.35816473  1
  In  In43  1  0.33647306  0.15690011  0.90066691  1
  In  In44  1  0.34689237  0.48740214  0.36729427  1
  In  In45  1  0.32327038  0.51042654  0.88074475  1
  In  In46  1  0.32211844  0.83821043  0.38312925  1
  In  In47  1  0.34805042  0.83568411  0.87412661  1
  In  In48  1  0.66104604  0.17488337  0.36913776  1
  In  In49  1  0.66564414  0.16774011  0.87606202  1
  In  In50  1  0.67224043  0.49326662  0.37436032  1
  In  In51  1  0.67058758  0.47896318  0.87635429  1
  In  In52  1  0.65996883  0.82401058  0.37900901  1
  In  In53  1  0.65230087  0.84951124  0.88198289  1
  In  In54  1  0.16328558  0.01131704  0.12769066  1
  In  In55  1  0.18229234  -0.00579925  0.62580514  1
  In  In56  1  0.16735880  0.33611878  0.12423262  1
  In  In57  1  0.16306939  0.32103421  0.62858033  1
  In  In58  1  0.16629964  0.65020614  0.12195176  1
  In  In59  1  0.16566979  0.67174817  0.61843370  1
  In  In60  1  0.48743630  0.00218160  0.12175397  1
  In  In61  1  0.50433128  0.00875923  0.61814538  1
  In  In62  1  0.49993269  0.33139673  0.12821682  1
  In  In63  1  0.51412827  0.33375730  0.62546954  1
  In  In64  1  0.49929235  0.66141930  0.11602327  1
  In  In65  1  0.48674611  0.66917262  0.62709031  1
  In  In66  1  0.84445750  0.01590971  0.12015690  1
  In  In67  1  0.81765786  0.00013550  0.62532582  1
  In  In68  1  0.84963278  0.31178154  0.15402847  1
  In  In69  1  0.83148139  0.32937192  0.62003051  1
  In  In70  1  0.83017776  0.67951370  0.12565814  1
  In  In71  1  0.84779843  0.66105372  0.61947096  1
  In  In72  1  0.16586872  0.16037797  0.49802739  1
  In  In73  1  0.83227928  0.83420232  0.50053351  1
  In  In74  1  0.16459191  0.83504819  0.00010011  1
  In  In75  1  -0.00301247  0.00355675  0.75797131  1
  In  In76  1  0.34382013  0.00087108  0.75418948  1
  In  In77  1  0.32805469  0.33531917  0.76015508  1
  In  In78  1  0.66829081  0.00506686  0.24145262  1
  In  In79  1  0.16295336  0.50796544  0.49772265  1
  In  In80  1  0.50682548  0.49892385  0.49427141  1
  In  In81  1  0.66654090  0.66487688  0.75161245  1
  In  In82  1  0.33367729  0.66377895  0.24471028  1
  In  In83  1  0.00233289  0.65853795  0.74676987  1
  In  In84  1  0.82749472  0.49613697  0.00785640  1
  In  In85  1  0.66595863  0.65915109  0.25695342  1
  Cu  Cu86  1  0.33613963  0.66518521  0.00103985  1
  Cu  Cu87  1  0.16515305  0.50174505  0.24910513  1
  Cu  Cu88  1  0.66218614  0.66670734  -0.00068453  1
  Cu  Cu89  1  0.50658855  0.17388679  0.75078875  1
  Cu  Cu90  1  0.66197368  0.00306232  0.00420797  1
  Cu  Cu91  1  -0.00403280  0.33271834  0.01171531  1
  Cu  Cu92  1  0.66302789  0.01061321  0.49722985  1
  Cu  Cu93  1  0.66915283  0.32827863  0.00529954  1
  Cu  Cu94  1  -0.00590340  0.00299505  0.00587797  1
  Cu  Cu95  1  0.16974416  0.17082091  0.24380517  1
  Cu  Cu96  1  0.83895225  0.48840491  0.74658256  1
  Cu  Cu97  1  0.17110729  0.83713244  0.24934301  1
  Cu  Cu98  1  0.16906904  0.82767774  0.74213193  1
  Cu  Cu99  1  0.49929938  0.49855426  0.75272407  1
  Cu  Cu100  1  0.34009381  -0.00168346  0.49642058  1
  Cu  Cu101  1  0.34185974  0.32726960  0.48806863  1
  Cu  Cu102  1  0.33794102  0.33783097  0.00548702  1
  Cu  Cu103  1  0.49834579  0.83445474  0.24792048  1
  Cu  Cu104  1  -0.00313472  0.66682790  0.00353751  1
  Cu  Cu105  1  0.83047955  0.17165348  0.75142602  1
  Cu  Cu106  1  0.66905045  0.32375532  0.49835270  1
  Cu  Cu107  1  0.00009620  0.66258156  0.49080880  1
  Cu  Cu108  1  0.49943609  0.83886624  0.75259807  1
  Cu  Cu109  1  0.82450415  0.83967912  0.75485443  1
  Cu  Cu110  1  0.16118909  0.17326158  0.76095624  1
  Cu  Cu111  1  0.84110105  0.83714805  0.24818101  1
  Cu  Cu112  1  -0.01005518  0.33347675  0.49434361  1
  Cu  Cu113  1  0.66459864  0.66493358  0.50024025  1
  Cu  Cu114  1  0.00477902  0.00107765  0.49264352  1
  Se  Se115  1  0.07794059  0.08722952  0.05669293  1
  Se  Se116  1  0.07820063  0.07412238  0.56507644  1
  Se  Se117  1  0.07932754  0.42212477  0.05829594  1
  Se  Se118  1  0.07935535  0.40470588  0.55471643  1
  Se  Se119  1  0.07656467  0.74858792  0.06406353  1
  Se  Se120  1  0.08348952  0.74626120  0.54384301  1
  Se  Se121  1  0.41330273  0.08883536  0.05188402  1
  Se  Se122  1  0.41927624  0.08802370  0.54751202  1
  Se  Se123  1  0.42585033  0.42047054  0.05552453  1
  Se  Se124  1  0.41332935  0.40752201  0.55542842  1
  Se  Se125  1  0.42146351  0.75105621  0.04893737  1
  Se  Se126  1  0.42808934  0.75188423  0.54904058  1
  Se  Se127  1  0.74654803  0.08665516  0.05625240  1
  Se  Se128  1  0.75184837  0.08663011  0.55135243  1
  Se  Se129  1  0.75388116  0.39716837  0.06996158  1
  Se  Se130  1  0.74950661  0.41379146  0.54924799  1
  Se  Se131  1  0.74654280  0.75010966  0.05105572  1
  Se  Se132  1  0.74252905  0.74510610  0.56432815  1
  Se  Se133  1  0.25085315  0.25458347  0.05575857  1
  Se  Se134  1  0.26025080  0.25527252  0.55461850  1
  Se  Se135  1  0.25153120  0.57949681  0.04997202  1
  Se  Se136  1  0.26303699  0.58602080  0.55739202  1
  Se  Se137  1  0.25231763  0.92259934  0.06058607  1
  Se  Se138  1  0.25023445  0.91805273  0.54768005  1
  Se  Se139  1  0.57987763  0.24803086  0.05607895  1
  Se  Se140  1  0.58107438  0.24610088  0.55304514  1
  Se  Se141  1  0.58989406  0.57728428  0.05523894  1
  Se  Se142  1  0.59004284  0.58446565  0.56570844  1
  Se  Se143  1  0.57444590  0.91942844  0.05367961  1
  Se  Se144  1  0.58442666  0.92129644  0.54959408  1
  Se  Se145  1  0.91052660  0.25123753  0.06404071  1
  Se  Se146  1  0.91391001  0.24525916  0.54989797  1
  Se  Se147  1  0.92132089  0.58414986  0.06566259  1
  Se  Se148  1  0.91393050  0.57998198  0.54193999  1
  Se  Se149  1  0.91168106  0.91468462  0.05463063  1
  Se  Se150  1  0.92480430  0.92554094  0.56012167  1
  Se  Se151  1  0.07607942  0.25158365  0.43934077  1
  Se  Se152  1  0.07997397  0.25271988  0.95413906  1
  Se  Se153  1  0.07075319  0.57786904  0.42753149  1
  Se  Se154  1  0.08198175  0.58526737  0.95087049  1
  Se  Se155  1  0.08974981  0.91742158  0.44369070  1
  Se  Se156  1  0.07333233  0.92747173  0.93989201  1
  Se  Se157  1  0.42423461  0.24814079  0.43287766  1
  Se  Se158  1  0.42210381  0.25061657  0.95644870  1
  Se  Se159  1  0.40614830  0.58559916  0.44133207  1
  Se  Se160  1  0.41986859  0.58105153  0.94718795  1
  Se  Se161  1  0.42270534  0.91542810  0.44178852  1
  Se  Se162  1  0.39479391  0.93519674  0.94486386  1
  Se  Se163  1  0.75190626  0.24427018  0.44125085  1
  Se  Se164  1  0.75126110  0.24813966  0.94671084  1
  Se  Se165  1  0.74506561  0.58050531  0.44737764  1
  Se  Se166  1  0.74436707  0.58719953  0.93918853  1
  Se  Se167  1  0.74339421  0.92605644  0.43850180  1
  Se  Se168  1  0.74663934  0.91911754  0.94988960  1
  Se  Se169  1  0.26078587  0.08118838  0.43537494  1
  Se  Se170  1  0.23550343  0.09222169  0.96429612  1
  Se  Se171  1  0.25341479  0.41065393  0.43958017  1
  Se  Se172  1  0.25213553  0.41785282  0.94949175  1
  Se  Se173  1  0.25304416  0.74266123  0.44920607  1
  Se  Se174  1  0.25402925  0.74420709  0.93834750  1
  Se  Se175  1  0.58138487  0.08866723  0.43784078  1
  Se  Se176  1  0.58272537  0.08635399  0.94615171  1
  Se  Se177  1  0.58412859  0.39872975  0.43558540  1
  Se  Se178  1  0.58738209  0.41444053  0.95285303  1
  Se  Se179  1  0.57920773  0.75096036  0.45356904  1
  Se  Se180  1  0.57963987  0.75210859  0.94528751  1
  Se  Se181  1  0.91985041  0.08674332  0.44544303  1
  Se  Se182  1  0.91121710  0.08862705  0.95248653  1
  Se  Se183  1  0.90889425  0.41790373  0.44113913  1
  Se  Se184  1  0.91790090  0.40900118  0.94364549  1
  Se  Se185  1  0.91899022  0.75001185  0.43472851  1
  Se  Se186  1  0.91126003  0.75206865  0.95566215  1
  Se  Se187  1  0.25222346  0.25254114  0.29920870  1
  Se  Se188  1  0.24934063  0.24035996  0.82394520  1
  Se  Se189  1  0.24603988  0.57827288  0.31178424  1
  Se  Se190  1  0.25178562  0.57964627  0.79954812  1
  Se  Se191  1  0.25552899  0.91739588  0.30380907  1
  Se  Se192  1  0.24309014  0.90929723  0.80582917  1
  Se  Se193  1  0.60948139  0.26617528  0.28839539  1
  Se  Se194  1  0.58806734  0.25633242  0.80559052  1
  Se  Se195  1  0.56835318  0.56948283  0.31017514  1
  Se  Se196  1  0.58041026  0.57671541  0.81503206  1
  Se  Se197  1  0.58427662  0.91064458  0.30638636  1
  Se  Se198  1  0.57911680  0.92588434  0.80424382  1
  Se  Se199  1  0.92396973  0.26310727  0.30105129  1
  Se  Se200  1  0.91891932  0.25007117  0.80430404  1
  Se  Se201  1  0.92485054  0.59723549  0.29867261  1
  Se  Se202  1  0.91451671  0.56868595  0.81047954  1
  Se  Se203  1  0.92456812  0.92115156  0.30011621  1
  Se  Se204  1  0.90815720  0.91247580  0.81776681  1
  Se  Se205  1  0.08735738  0.08832821  0.30090120  1
  Se  Se206  1  0.08954915  0.08607353  0.82102885  1
  Se  Se207  1  0.08328960  0.41197573  0.29769106  1
  Se  Se208  1  0.08898716  0.41389374  0.80417733  1
  Se  Se209  1  0.08767998  0.75036419  0.29895759  1
  Se  Se210  1  0.08975368  0.75320676  0.80735136  1
  Se  Se211  1  0.42032496  0.07782540  0.29157149  1
  Se  Se212  1  0.42225881  0.10014377  0.81369970  1
  Se  Se213  1  0.40772233  0.40456179  0.29034972  1
  Se  Se214  1  0.42413488  0.41988886  0.81820241  1
  Se  Se215  1  0.42007464  0.75312480  0.30934905  1
  Se  Se216  1  0.41580962  0.75043672  0.79940174  1
  Se  Se217  1  0.75739545  0.08658541  0.30767102  1
  Se  Se218  1  0.74792399  0.08610377  0.80373946  1
  Se  Se219  1  0.76129294  0.43059995  0.30208611  1
  Se  Se220  1  0.74923695  0.41125431  0.79828473  1
  Se  Se221  1  0.75948781  0.75910766  0.30932887  1
  Se  Se222  1  0.75190908  0.75444016  0.81605721  1
  Se  Se223  1  0.25524958  0.08696653  0.19368814  1
  Se  Se224  1  0.24231707  0.09378625  0.70031001  1
  Se  Se225  1  0.24904395  0.42255972  0.19337001  1
  Se  Se226  1  0.24331587  0.41872917  0.69090652  1
  Se  Se227  1  0.24417950  0.75571993  0.18457253  1
  Se  Se228  1  0.25256240  0.74785824  0.68846405  1
  Se  Se229  1  0.56994636  0.09245920  0.18992027  1
  Se  Se230  1  0.58052298  0.08559420  0.69393322  1
  Se  Se231  1  0.59157135  0.40079400  0.20176680  1
  Se  Se232  1  0.58359791  0.41367732  0.70259394  1
  Se  Se233  1  0.57878236  0.75062517  0.19198941  1
  Se  Se234  1  0.58193633  0.76039838  0.69101205  1
  Se  Se235  1  0.91586051  0.08227057  0.20054162  1
  Se  Se236  1  0.91119876  0.08948468  0.69109272  1
  Se  Se237  1  0.90096218  0.42986579  0.20655366  1
  Se  Se238  1  0.92053638  0.41077691  0.68824670  1
  Se  Se239  1  0.92091680  0.75003989  0.19575985  1
  Se  Se240  1  0.90695383  0.76010668  0.69568166  1
  Se  Se241  1  0.08351120  0.25489387  0.19403999  1
  Se  Se242  1  0.07977097  0.25210418  0.70395402  1
  Se  Se243  1  0.08199502  0.58776226  0.19890128  1
  Se  Se244  1  0.09076459  0.57202677  0.68429547  1
  Se  Se245  1  0.08700977  0.92401539  0.19852063  1
  Se  Se246  1  0.08369592  0.91151530  0.69061361  1
  Se  Se247  1  0.40334979  0.26658936  0.19784702  1
  Se  Se248  1  0.41727592  0.24773429  0.69241339  1
  Se  Se249  1  0.42917604  0.57433693  0.19168179  1
  Se  Se250  1  0.41763205  0.58360842  0.70141795  1
  Se  Se251  1  0.41401671  0.91731804  0.19697837  1
  Se  Se252  1  0.41976258  0.91177224  0.68450574  1
  Se  Se253  1  0.73827709  0.24623852  0.20769404  1
  Se  Se254  1  0.74842906  0.25122667  0.69222633  1
  Se  Se255  1  0.75250866  0.58006539  0.18856168  1
  Se  Se256  1  0.76085363  0.57766114  0.69026010  1
  Se  Se257  1  0.75653763  0.90880101  0.18571453  1
  Se  Se258  1  0.74443320  0.92696789  0.70450098  1
