# generated using pymatgen
data_In86Cu29Se144
_symmetry_space_group_name_H-M   'P 1'
_cell_length_a   17.68062703
_cell_length_b   17.67238605
_cell_length_c   23.54806084
_cell_angle_alpha   89.99442174
_cell_angle_beta   90.05002000
_cell_angle_gamma   90.04382602
_symmetry_Int_Tables_number   1
_chemical_formula_structural   In86Cu29Se144
_chemical_formula_sum   'In86 Cu29 Se144'
_cell_volume   7357.79540697
_cell_formula_units_Z   1
loop_
 _symmetry_equiv_pos_site_id
 _symmetry_equiv_pos_as_xyz
  1  'x, y, z'
loop_
 _atom_site_type_symbol
 _atom_site_label
 _atom_site_symmetry_multiplicity
 _atom_site_fract_x
 _atom_site_fract_y
 _atom_site_fract_z
 _atom_site_occupancy
  In  In0  1  0.00819842  0.16134250  0.12777477  1
  In  In1  1  0.01387476  0.15827666  0.63196749  1
  In  In2  1  0.01129372  0.49690045  0.13815518  1
  In  In3  1  -0.00823756  0.50839977  0.63217004  1
  In  In4  1  0.00222122  0.83229637  0.12157130  1
  In  In5  1  -0.00135159  0.83740896  0.62690130  1
  In  In6  1  0.33469313  0.15514242  0.10712659  1
  In  In7  1  0.31625583  0.16421026  0.62887974  1
  In  In8  1  0.33520309  0.51159341  0.11706944  1
  In  In9  1  0.33674492  0.49411027  0.61650560  1
  In  In10  1  0.33107767  0.81634759  0.10904102  1
  In  In11  1  0.33841551  0.83642432  0.63672381  1
  In  In12  1  0.65943069  0.17175711  0.13398857  1
  In  In13  1  0.66810110  0.15685484  0.62489274  1
  In  In14  1  0.66424116  0.50270810  0.13767105  1
  In  In15  1  0.66798009  0.50276665  0.61319090  1
  In  In16  1  0.67395147  0.83016254  0.12535947  1
  In  In17  1  0.66608687  0.82043700  0.62170062  1
  In  In18  1  0.16790667  0.01402825  0.37817430  1
  In  In19  1  0.16631090  0.00024411  0.87721399  1
  In  In20  1  0.15583008  0.33851059  0.37462009  1
  In  In21  1  0.15988547  0.34599147  0.88269480  1
  In  In22  1  0.16844944  0.66006278  0.36247699  1
  In  In23  1  0.15037811  0.68660425  0.89518855  1
  In  In24  1  0.50092629  -0.01161597  0.36745030  1
  In  In25  1  0.46879584  0.01395794  0.91002044  1
  In  In26  1  0.51241519  0.33645189  0.36671906  1
  In  In27  1  0.48304222  0.34574750  0.88551487  1
  In  In28  1  0.48839503  0.65391254  0.35867120  1
  In  In29  1  0.45237544  0.70982530  0.92838987  1
  In  In30  1  0.83319256  -0.01112586  0.36954100  1
  In  In31  1  0.83819117  -0.01588556  0.87148665  1
  In  In32  1  0.84184504  0.34216184  0.36951448  1
  In  In33  1  0.83680308  0.32993049  0.87005078  1
  In  In34  1  0.83655310  0.67010355  0.37656882  1
  In  In35  1  0.84317415  0.67279020  0.87147454  1
  In  In36  1  0.00965850  0.17522836  0.37101817  1
  In  In37  1  0.01494691  0.17545080  0.86894725  1
  In  In38  1  0.00099171  0.49590998  0.37081576  1
  In  In39  1  0.00454542  0.51624276  0.86483755  1
  In  In40  1  -0.01036805  0.81869260  0.36564786  1
  In  In41  1  -0.00234732  0.83179027  0.87377152  1
  In  In42  1  0.32848793  0.16732909  0.38010872  1
  In  In43  1  0.32630778  0.16229155  0.88726704  1
  In  In44  1  0.33158427  0.51970290  0.37928176  1
  In  In45  1  0.32331384  0.51598759  0.89475428  1
  In  In46  1  0.33584023  0.82669155  0.36891411  1
  In  In47  1  0.29521752  0.86009086  0.93676986  1
  In  In48  1  0.66636628  0.16102477  0.36302970  1
  In  In49  1  0.65730957  0.15425698  0.87603360  1
  In  In50  1  0.66735938  0.50345256  0.36949833  1
  In  In51  1  0.64780977  0.50461671  0.87699223  1
  In  In52  1  0.67283414  0.83632050  0.36455899  1
  In  In53  1  0.66478681  0.83692239  0.88550052  1
  In  In54  1  0.16288270  -0.01025763  0.10949098  1
  In  In55  1  0.15606816  0.00311537  0.63510905  1
  In  In56  1  0.16171039  0.33002903  0.12084227  1
  In  In57  1  0.16994138  0.32140874  0.62239925  1
  In  In58  1  0.16389663  0.66940306  0.12120028  1
  In  In59  1  0.16341080  0.66242928  0.62791814  1
  In  In60  1  0.50530212  0.00457123  0.11218031  1
  In  In61  1  0.49786006  -0.00923211  0.63572704  1
  In  In62  1  0.50113540  0.33881519  0.12143637  1
  In  In63  1  0.49098279  0.33970536  0.62681332  1
  In  In64  1  0.50986311  0.66186383  0.12463683  1
  In  In65  1  0.50156819  0.66785356  0.62445496  1
  In  In66  1  0.84544858  -0.00691989  0.13000827  1
  In  In67  1  0.85227095  0.00393081  0.62201792  1
  In  In68  1  0.83393673  0.33176381  0.13932227  1
  In  In69  1  0.83632564  0.34931393  0.61707881  1
  In  In70  1  0.83356046  0.67132461  0.13423336  1
  In  In71  1  0.84973315  0.67827492  0.59528916  1
  In  In72  1  0.49936277  0.17429697  0.50168804  1
  In  In73  1  0.83291273  0.49903170  0.00903372  1
  In  In74  1  0.66966815  -0.00776635  0.75520733  1
  In  In75  1  0.16639725  0.83026407  0.50009529  1
  In  In76  1  0.66662177  0.66060947  0.74527192  1
  In  In77  1  0.32968200  0.33331463  0.74452273  1
  In  In78  1  0.83571020  0.16451818  0.00057143  1
  In  In79  1  0.16632506  0.49899306  0.49369202  1
  In  In80  1  0.32526383  0.67655518  0.76357410  1
  In  In81  1  0.50017774  0.82820763  0.49889656  1
  In  In82  1  0.33198769  0.33742002  0.23931565  1
  In  In83  1  0.84103982  0.17024832  0.49213393  1
  In  In84  1  0.66851810  0.33039685  0.74503445  1
  In  In85  1  0.33322370  -0.00695893  0.23313897  1
  Cu  Cu86  1  0.49374509  0.16324774  0.76820069  1
  Cu  Cu87  1  0.67598715  0.65668934  0.00971777  1
  Cu  Cu88  1  0.16764439  0.83925766  0.24023316  1
  Cu  Cu89  1  0.83698177  0.82803569  0.74329407  1
  Cu  Cu90  1  0.16158412  0.16793836  0.24674288  1
  Cu  Cu91  1  0.83535512  0.50122124  0.25474336  1
  Cu  Cu92  1  0.66273520  0.66516014  0.49142730  1
  Cu  Cu93  1  0.83378450  0.15869548  0.25157823  1
  Cu  Cu94  1  0.15685341  0.50135821  0.75374683  1
  Cu  Cu95  1  -0.00517624  -0.00147533  0.00001348  1
  Cu  Cu96  1  0.49301456  0.50725154  0.75210484  1
  Cu  Cu97  1  -0.00339974  0.67172600  -0.00077798  1
  Cu  Cu98  1  0.32850877  0.00401368  0.50446414  1
  Cu  Cu99  1  0.50619751  0.82730299  0.24351834  1
  Cu  Cu100  1  0.83146210  0.50058010  0.74406678  1
  Cu  Cu101  1  0.84640188  0.16764998  0.74879031  1
  Cu  Cu102  1  0.49344774  0.84339308  0.76432760  1
  Cu  Cu103  1  0.00585935  -0.00274400  0.50466599  1
  Cu  Cu104  1  0.32777219  0.33149366  0.00355598  1
  Cu  Cu105  1  0.66476653  0.33895935  0.49220095  1
  Cu  Cu106  1  0.50262266  0.49851016  0.24356152  1
  Cu  Cu107  1  0.66197280  0.32371983  0.00593826  1
  Cu  Cu108  1  0.84021604  0.83500781  0.24798476  1
  Cu  Cu109  1  0.67221817  -0.00130435  0.00253725  1
  Cu  Cu110  1  0.16914399  0.16392955  0.75463735  1
  Cu  Cu111  1  0.66882691  -0.00417421  0.49066474  1
  Cu  Cu112  1  0.00556002  0.33251254  0.49639276  1
  Cu  Cu113  1  -0.00314685  0.34197449  0.00107440  1
  Cu  Cu114  1  0.49589212  0.15642830  0.24529060  1
  Se  Se115  1  0.07892412  0.08353794  0.05055679  1
  Se  Se116  1  0.08881693  0.08203603  0.55592335  1
  Se  Se117  1  0.07927688  0.42153496  0.05750836  1
  Se  Se118  1  0.08105565  0.41274176  0.56091550  1
  Se  Se119  1  0.08428495  0.75422120  0.04979302  1
  Se  Se120  1  0.07586445  0.74080355  0.55773193  1
  Se  Se121  1  0.40924044  0.06475579  0.04138642  1
  Se  Se122  1  0.41689565  0.07681751  0.56333195  1
  Se  Se123  1  0.41239191  0.41511587  0.05522323  1
  Se  Se124  1  0.43119416  0.42513284  0.55215114  1
  Se  Se125  1  0.43543875  0.74563485  0.05120427  1
  Se  Se126  1  0.40466365  0.74712843  0.56018222  1
  Se  Se127  1  0.74738640  0.08087970  0.06443780  1
  Se  Se128  1  0.74839655  0.07617358  0.55167305  1
  Se  Se129  1  0.74346772  0.40402427  0.06423855  1
  Se  Se130  1  0.74989530  0.41909194  0.54594504  1
  Se  Se131  1  0.75700064  0.74503809  0.05720044  1
  Se  Se132  1  0.74261303  0.75328803  0.54408374  1
  Se  Se133  1  0.24438207  0.24655040  0.05322107  1
  Se  Se134  1  0.27520463  0.26678255  0.55908688  1
  Se  Se135  1  0.25965968  0.60322198  0.05115377  1
  Se  Se136  1  0.25426505  0.59123819  0.55625064  1
  Se  Se137  1  0.25628795  0.91283415  0.04473071  1
  Se  Se138  1  0.25456534  0.91944156  0.56389228  1
  Se  Se139  1  0.57807564  0.24277044  0.05852008  1
  Se  Se140  1  0.59662130  0.26004826  0.56147747  1
  Se  Se141  1  0.59083078  0.57224279  0.05780031  1
  Se  Se142  1  0.58109563  0.59044235  0.55283538  1
  Se  Se143  1  0.59215113  0.91236216  0.05485912  1
  Se  Se144  1  0.58867553  0.92537593  0.55824909  1
  Se  Se145  1  0.91942840  0.25917434  0.06079042  1
  Se  Se146  1  0.92731195  0.25284418  0.55977926  1
  Se  Se147  1  0.92461983  0.58924705  0.06363802  1
  Se  Se148  1  0.91258989  0.56275083  0.55000366  1
  Se  Se149  1  0.91471488  0.91427291  0.05324971  1
  Se  Se150  1  0.91808837  0.91405860  0.55155767  1
  Se  Se151  1  0.08968004  0.24794750  0.44702898  1
  Se  Se152  1  0.07823465  0.25700808  0.94778282  1
  Se  Se153  1  0.07835920  0.59265430  0.43844251  1
  Se  Se154  1  0.07558808  0.58038399  0.94851269  1
  Se  Se155  1  0.08095853  0.92058151  0.43824744  1
  Se  Se156  1  0.07580487  0.91759923  0.94293131  1
  Se  Se157  1  0.41574549  0.26163903  0.43765381  1
  Se  Se158  1  0.41266766  0.25045858  0.94982308  1
  Se  Se159  1  0.42426355  0.59094353  0.44418478  1
  Se  Se160  1  0.44809058  0.56060695  0.93633095  1
  Se  Se161  1  0.40634572  0.92437404  0.44278266  1
  Se  Se162  1  0.44273617  0.87760384  0.94493258  1
  Se  Se163  1  0.74163385  0.25276201  0.43567830  1
  Se  Se164  1  0.74192542  0.25329506  0.93968132  1
  Se  Se165  1  0.74856161  0.58402888  0.44011323  1
  Se  Se166  1  0.75093717  0.58363654  0.93800482  1
  Se  Se167  1  0.75086363  0.91173979  0.44105239  1
  Se  Se168  1  0.75547894  0.91876601  0.94782008  1
  Se  Se169  1  0.24876541  0.08923676  0.45207395  1
  Se  Se170  1  0.22147009  0.10098328  0.94690091  1
  Se  Se171  1  0.25982035  0.41031194  0.43742900  1
  Se  Se172  1  0.24535054  0.41969712  0.95380256  1
  Se  Se173  1  0.25481049  0.74233866  0.43801097  1
  Se  Se174  1  0.27162694  0.71369818  0.95395482  1
  Se  Se175  1  0.58331258  0.07746361  0.43897435  1
  Se  Se176  1  0.58525915  0.08418713  0.95446661  1
  Se  Se177  1  0.58286305  0.42121131  0.43938508  1
  Se  Se178  1  0.58789179  0.40901952  0.94731946  1
  Se  Se179  1  0.58412456  0.74648396  0.43109363  1
  Se  Se180  1  0.60146646  0.72865148  0.94121831  1
  Se  Se181  1  0.92820774  0.07429138  0.43829057  1
  Se  Se182  1  0.92241795  0.08072861  0.93499851  1
  Se  Se183  1  0.92204923  0.41456571  0.44420611  1
  Se  Se184  1  0.91804751  0.41789388  0.93859716  1
  Se  Se185  1  0.91870134  0.75190354  0.44578768  1
  Se  Se186  1  0.91213849  0.75387873  0.94626816  1
  Se  Se187  1  0.24701766  0.24508236  0.30459984  1
  Se  Se188  1  0.24461980  0.25101184  0.81252532  1
  Se  Se189  1  0.25577177  0.57890675  0.29881683  1
  Se  Se190  1  0.23733099  0.57794295  0.81546214  1
  Se  Se191  1  0.24613132  0.91686325  0.30584223  1
  Se  Se192  1  0.25734453  0.89854799  0.83528440  1
  Se  Se193  1  0.57752710  0.24116522  0.29866649  1
  Se  Se194  1  0.57618476  0.25333245  0.81459016  1
  Se  Se195  1  0.58642241  0.58289740  0.29657826  1
  Se  Se196  1  0.56938944  0.59095479  0.80933354  1
  Se  Se197  1  0.58391178  0.91558749  0.29696907  1
  Se  Se198  1  0.57465282  0.92398006  0.82199081  1
  Se  Se199  1  0.91364448  0.24491502  0.30614540  1
  Se  Se200  1  0.92315674  0.25387784  0.80299804  1
  Se  Se201  1  0.91763240  0.58463196  0.30797474  1
  Se  Se202  1  0.91078525  0.58718454  0.79779061  1
  Se  Se203  1  0.92466839  0.91909633  0.30048327  1
  Se  Se204  1  0.91793561  0.91124405  0.79812261  1
  Se  Se205  1  0.08502998  0.08333496  0.30369816  1
  Se  Se206  1  0.08388624  0.07910288  0.80391509  1
  Se  Se207  1  0.08583555  0.41794829  0.30195748  1
  Se  Se208  1  0.07804893  0.41416086  0.80598063  1
  Se  Se209  1  0.09293963  0.75744601  0.30187693  1
  Se  Se210  1  0.07510140  0.73795363  0.81095452  1
  Se  Se211  1  0.41238517  0.08352917  0.30674883  1
  Se  Se212  1  0.41264577  0.08079971  0.82036099  1
  Se  Se213  1  0.41913529  0.42239667  0.30473343  1
  Se  Se214  1  0.40933935  0.42711194  0.80806117  1
  Se  Se215  1  0.41548006  0.75208252  0.29608931  1
  Se  Se216  1  0.42338751  0.75348725  0.82058732  1
  Se  Se217  1  0.75050922  0.07354010  0.30208519  1
  Se  Se218  1  0.76120487  0.09153292  0.80794451  1
  Se  Se219  1  0.74936109  0.41511765  0.30345374  1
  Se  Se220  1  0.75045410  0.42656537  0.80762471  1
  Se  Se221  1  0.75812501  0.75065014  0.30217718  1
  Se  Se222  1  0.75002766  0.75873852  0.80482954  1
  Se  Se223  1  0.24007869  0.08930650  0.18364153  1
  Se  Se224  1  0.25039947  0.07861125  0.70189994  1
  Se  Se225  1  0.24249629  0.42837312  0.18403631  1
  Se  Se226  1  0.23949356  0.42981340  0.68986768  1
  Se  Se227  1  0.25032923  0.75542140  0.18843715  1
  Se  Se228  1  0.23757557  0.75908686  0.69571380  1
  Se  Se229  1  0.57950987  0.07410748  0.19289557  1
  Se  Se230  1  0.57629684  0.09222451  0.70157616  1
  Se  Se231  1  0.58364009  0.40669502  0.19767285  1
  Se  Se232  1  0.57716890  0.43004428  0.69389981  1
  Se  Se233  1  0.59260738  0.74471635  0.19360677  1
  Se  Se234  1  0.56922916  0.76478622  0.69804132  1
  Se  Se235  1  0.92098980  0.08401600  0.19574913  1
  Se  Se236  1  0.92480347  0.07887822  0.69807678  1
  Se  Se237  1  0.91855879  0.41777674  0.20147906  1
  Se  Se238  1  0.91526935  0.41275217  0.69625774  1
  Se  Se239  1  0.92506766  0.75253528  0.19611648  1
  Se  Se240  1  0.90948648  0.74401904  0.68364226  1
  Se  Se241  1  0.08065754  0.25426373  0.19494129  1
  Se  Se242  1  0.09061355  0.24933303  0.69783577  1
  Se  Se243  1  0.07513068  0.60332202  0.19440008  1
  Se  Se244  1  0.07977585  0.58708906  0.69840393  1
  Se  Se245  1  0.08494936  0.92193051  0.18783332  1
  Se  Se246  1  0.08610298  0.90731967  0.69685547  1
  Se  Se247  1  0.41612407  0.23537976  0.18477310  1
  Se  Se248  1  0.42593840  0.23750822  0.69509279  1
  Se  Se249  1  0.42020889  0.58242467  0.19116464  1
  Se  Se250  1  0.41099704  0.58531493  0.69229936  1
  Se  Se251  1  0.42584402  0.90282979  0.17927753  1
  Se  Se252  1  0.41129976  0.92324288  0.70805917  1
  Se  Se253  1  0.74970493  0.24514084  0.20195451  1
  Se  Se254  1  0.76276689  0.24030020  0.68638372  1
  Se  Se255  1  0.75331406  0.58368334  0.20031982  1
  Se  Se256  1  0.75848074  0.58223688  0.68073758  1
  Se  Se257  1  0.75445633  0.91546540  0.19474439  1
  Se  Se258  1  0.75512196  0.91075528  0.68545808  1
