# generated using pymatgen
data_In86Cu29Se144
_symmetry_space_group_name_H-M   'P 1'
_cell_length_a   17.62979827
_cell_length_b   17.62467756
_cell_length_c   23.48402397
_cell_angle_alpha   90.01110428
_cell_angle_beta   89.99409854
_cell_angle_gamma   90.02621551
_symmetry_Int_Tables_number   1
_chemical_formula_structural   In86Cu29Se144
_chemical_formula_sum   'In86 Cu29 Se144'
_cell_volume   7296.94348098
_cell_formula_units_Z   1
loop_
 _symmetry_equiv_pos_site_id
 _symmetry_equiv_pos_as_xyz
  1  'x, y, z'
loop_
 _atom_site_type_symbol
 _atom_site_label
 _atom_site_symmetry_multiplicity
 _atom_site_fract_x
 _atom_site_fract_y
 _atom_site_fract_z
 _atom_site_occupancy
  In  In0  1  -0.02510532  0.18517143  0.15252066  1
  In  In1  1  0.00081037  0.16024599  0.63366159  1
  In  In2  1  -0.00280886  0.48064909  0.11525031  1
  In  In3  1  -0.01205986  0.48681015  0.61828737  1
  In  In4  1  0.00709009  0.83534927  0.12933524  1
  In  In5  1  0.00874647  0.85406268  0.62834362  1
  In  In6  1  0.32211241  0.18340992  0.14909625  1
  In  In7  1  0.35942084  0.19420418  0.58670900  1
  In  In8  1  0.33070151  0.50296074  0.13474043  1
  In  In9  1  0.33687240  0.49345008  0.61278465  1
  In  In10  1  0.33111821  0.83608399  0.14098735  1
  In  In11  1  0.32538688  0.82220892  0.62271762  1
  In  In12  1  0.66885001  0.18156689  0.12860679  1
  In  In13  1  0.65990890  0.17731861  0.63227982  1
  In  In14  1  0.66741968  0.49494426  0.12470335  1
  In  In15  1  0.66383899  0.49873283  0.62472790  1
  In  In16  1  0.66119434  0.83234016  0.11970624  1
  In  In17  1  0.66620628  0.82607754  0.62232660  1
  In  In18  1  0.18395979  0.02086159  0.37667201  1
  In  In19  1  0.16132273  0.01555918  0.87313554  1
  In  In20  1  0.16928607  0.33815798  0.38431811  1
  In  In21  1  0.17506144  0.34202567  0.86361949  1
  In  In22  1  0.16911278  0.64720363  0.38058536  1
  In  In23  1  0.16298901  0.64733155  0.87019063  1
  In  In24  1  0.46423248  0.02748379  0.42596562  1
  In  In25  1  0.50291271  -0.00380919  0.87116052  1
  In  In26  1  0.50132128  0.33356866  0.37970183  1
  In  In27  1  0.50145279  0.33929098  0.86415663  1
  In  In28  1  0.48884072  0.67681966  0.38314423  1
  In  In29  1  0.49873809  0.66583500  0.86127807  1
  In  In30  1  0.82906742  -0.00297149  0.37669295  1
  In  In31  1  0.84573463  0.01738727  0.84612647  1
  In  In32  1  0.84424906  0.34319603  0.35556144  1
  In  In33  1  0.84131093  0.34162261  0.86692750  1
  In  In34  1  0.83360739  0.66686782  0.38475905  1
  In  In35  1  0.82659904  0.66218803  0.86882070  1
  In  In36  1  0.00847457  0.18196458  0.36326549  1
  In  In37  1  0.00316940  0.17567373  0.85682253  1
  In  In38  1  0.00190871  0.49299938  0.38304873  1
  In  In39  1  0.00846222  0.48867388  0.87615513  1
  In  In40  1  -0.01148020  0.83608609  0.38067368  1
  In  In41  1  -0.00656312  0.83389631  0.87077990  1
  In  In42  1  0.33520385  0.18190495  0.38698145  1
  In  In43  1  0.32368513  0.17394291  0.87246372  1
  In  In44  1  0.33062556  0.49684080  0.38023150  1
  In  In45  1  0.32914489  0.49692832  0.86487788  1
  In  In46  1  0.34332489  0.84410499  0.37496907  1
  In  In47  1  0.34530541  0.83275143  0.87223858  1
  In  In48  1  0.65432560  0.17223845  0.37468654  1
  In  In49  1  0.69075822  0.18728920  0.83962804  1
  In  In50  1  0.67795659  0.48611336  0.37658466  1
  In  In51  1  0.67180876  0.50806271  0.86694349  1
  In  In52  1  0.66345587  0.83568820  0.38790392  1
  In  In53  1  0.67386494  0.83790245  0.85771422  1
  In  In54  1  0.15492318  0.01328148  0.13971368  1
  In  In55  1  0.16467873  0.00548769  0.62246749  1
  In  In56  1  0.16051115  0.33892861  0.13091641  1
  In  In57  1  0.16664477  0.32973242  0.61337267  1
  In  In58  1  0.18162313  0.65847011  0.13112415  1
  In  In59  1  0.18845493  0.66897041  0.63074868  1
  In  In60  1  0.49722811  -0.00666223  0.12927527  1
  In  In61  1  0.50716758  0.00808561  0.61244539  1
  In  In62  1  0.49406781  0.33514203  0.14315375  1
  In  In63  1  0.50349342  0.33730063  0.61680780  1
  In  In64  1  0.49364473  0.66045095  0.13147724  1
  In  In65  1  0.50111030  0.66228561  0.62138597  1
  In  In66  1  0.82921964  0.01046848  0.13062767  1
  In  In67  1  0.84555706  -0.00526539  0.62970948  1
  In  In68  1  0.82005679  0.35573375  0.14673283  1
  In  In69  1  0.82175011  0.33308078  0.63488269  1
  In  In70  1  0.84984584  0.65530487  0.12538848  1
  In  In71  1  0.82407036  0.65317992  0.61869698  1
  In  In72  1  0.00619581  0.66090314  0.25786619  1
  In  In73  1  0.15813972  0.16819402  0.00880192  1
  In  In74  1  0.16315850  0.83244461  0.50427813  1
  In  In75  1  0.50000134  0.15695305  0.00279981  1
  In  In76  1  0.01051985  0.67160814  0.74701061  1
  In  In77  1  0.65833172  0.00605353  0.26150537  1
  In  In78  1  0.16932996  0.82583892  -0.00015021  1
  In  In79  1  0.83781111  0.17012382  -0.00311654  1
  In  In80  1  0.50372971  0.82309988  -0.00641125  1
  In  In81  1  0.66167207  0.66430337  0.24636361  1
  In  In82  1  0.50228624  0.49840121  0.00266812  1
  In  In83  1  0.32550114  0.00321252  0.74036647  1
  In  In84  1  0.83321562  0.83240934  -0.01246283  1
  In  In85  1  0.83010902  0.16770646  0.49966345  1
  Cu  Cu86  1  0.00277152  0.33150953  -0.00222957  1
  Cu  Cu87  1  0.33310339  0.65838168  0.00385564  1
  Cu  Cu88  1  0.49580266  0.82719758  0.74140514  1
  Cu  Cu89  1  0.82902366  0.83731844  0.25543804  1
  Cu  Cu90  1  -0.00399043  0.66749424  0.50353308  1
  Cu  Cu91  1  0.49415473  0.49611617  0.74097725  1
  Cu  Cu92  1  0.67296992  0.33345735  0.00342527  1
  Cu  Cu93  1  0.48902731  0.16862398  0.73715601  1
  Cu  Cu94  1  0.16929003  0.49078494  0.25710908  1
  Cu  Cu95  1  0.17687324  0.17542336  0.73881299  1
  Cu  Cu96  1  0.17441145  0.16263122  0.26262692  1
  Cu  Cu97  1  -0.00675982  0.33229441  0.49684045  1
  Cu  Cu98  1  0.33229602  0.33670979  -0.00467405  1
  Cu  Cu99  1  0.83599636  0.82891976  0.74427557  1
  Cu  Cu100  1  0.83043312  0.49951111  0.74452275  1
  Cu  Cu101  1  0.33543799  0.66426166  0.50236240  1
  Cu  Cu102  1  0.17097837  0.49362277  0.74217629  1
  Cu  Cu103  1  0.00746193  0.64986621  0.00020889  1
  Cu  Cu104  1  0.67387335  -0.00274080  0.50207110  1
  Cu  Cu105  1  -0.00537526  0.00054350  0.00019850  1
  Cu  Cu106  1  0.67114095  0.33559905  0.50323890  1
  Cu  Cu107  1  0.32897319  -0.00065692  0.01398685  1
  Cu  Cu108  1  0.16868015  0.83867197  0.25685374  1
  Cu  Cu109  1  0.66301060  0.65624399  0.50163944  1
  Cu  Cu110  1  0.49309799  0.84330042  0.26231698  1
  Cu  Cu111  1  -0.00198712  0.00253013  0.50178688  1
  Cu  Cu112  1  0.66695003  0.00723861  -0.01322653  1
  Cu  Cu113  1  0.67896452  0.66386833  -0.00701177  1
  Cu  Cu114  1  0.49392122  0.50630625  0.25830707  1
  Se  Se115  1  0.06421189  0.08147921  0.06510547  1
  Se  Se116  1  0.07718668  0.08599286  0.55633862  1
  Se  Se117  1  0.09268353  0.41085498  0.04884933  1
  Se  Se118  1  0.07880001  0.41532060  0.54921515  1
  Se  Se119  1  0.07868067  0.73553019  0.06170373  1
  Se  Se120  1  0.07720308  0.74178540  0.56712919  1
  Se  Se121  1  0.40343767  0.08578082  0.07056537  1
  Se  Se122  1  0.41327491  0.07149046  0.54183608  1
  Se  Se123  1  0.41262225  0.40821049  0.06142617  1
  Se  Se124  1  0.40434575  0.39525044  0.54479132  1
  Se  Se125  1  0.40751039  0.74652782  0.06080050  1
  Se  Se126  1  0.41638149  0.74923361  0.55544907  1
  Se  Se127  1  0.73999360  0.08091519  0.05484355  1
  Se  Se128  1  0.74804288  0.07872116  0.56570125  1
  Se  Se129  1  0.75463496  0.41557971  0.05811963  1
  Se  Se130  1  0.75360622  0.41579300  0.55914629  1
  Se  Se131  1  0.75205666  0.74273267  0.05843067  1
  Se  Se132  1  0.74762309  0.74291790  0.55193054  1
  Se  Se133  1  0.25861608  0.25557070  0.06001934  1
  Se  Se134  1  0.22748373  0.22637082  0.54528353  1
  Se  Se135  1  0.25181599  0.57458390  0.05657061  1
  Se  Se136  1  0.24758214  0.58385807  0.55256321  1
  Se  Se137  1  0.24493220  0.91972216  0.06831860  1
  Se  Se138  1  0.25814840  0.92483478  0.55550717  1
  Se  Se139  1  0.58197590  0.26200158  0.05930788  1
  Se  Se140  1  0.58775293  0.24776643  0.55187991  1
  Se  Se141  1  0.59271231  0.59777430  0.05786269  1
  Se  Se142  1  0.57764004  0.57284800  0.55290868  1
  Se  Se143  1  0.58820514  0.92841327  0.04882381  1
  Se  Se144  1  0.58769935  0.91306224  0.55238095  1
  Se  Se145  1  0.92212197  0.25701276  0.06103670  1
  Se  Se146  1  0.91836949  0.25423479  0.56307801  1
  Se  Se147  1  0.91749270  0.57261251  0.05106724  1
  Se  Se148  1  0.91252323  0.57742899  0.55115170  1
  Se  Se149  1  0.91599685  0.91694314  0.05814368  1
  Se  Se150  1  0.91894466  0.91498025  0.55308791  1
  Se  Se151  1  0.07783465  0.25011759  0.44503962  1
  Se  Se152  1  0.08104184  0.25336525  0.93545922  1
  Se  Se153  1  0.07838102  0.58208650  0.45178914  1
  Se  Se154  1  0.09178576  0.57029010  0.94620457  1
  Se  Se155  1  0.08186883  0.92620589  0.43997799  1
  Se  Se156  1  0.07835789  0.92238612  0.94278024  1
  Se  Se157  1  0.40736770  0.27594700  0.45659874  1
  Se  Se158  1  0.41607342  0.25511294  0.94050433  1
  Se  Se159  1  0.41724227  0.58086566  0.44784793  1
  Se  Se160  1  0.41666913  0.58782158  0.93953940  1
  Se  Se161  1  0.42932423  0.89120163  0.45593450  1
  Se  Se162  1  0.40904395  0.92719847  0.94882208  1
  Se  Se163  1  0.74865746  0.26020302  0.43675526  1
  Se  Se164  1  0.74275126  0.25359169  0.93618571  1
  Se  Se165  1  0.74925388  0.57844313  0.44614399  1
  Se  Se166  1  0.75756332  0.57560565  0.94257267  1
  Se  Se167  1  0.75747165  0.91452956  0.45062197  1
  Se  Se168  1  0.74983325  0.92836533  0.92974879  1
  Se  Se169  1  0.23802455  0.10915840  0.45504144  1
  Se  Se170  1  0.25568923  0.07993540  0.94922025  1
  Se  Se171  1  0.23605135  0.43448530  0.45117941  1
  Se  Se172  1  0.25226597  0.41801277  0.93968899  1
  Se  Se173  1  0.25243171  0.74477451  0.44202869  1
  Se  Se174  1  0.25975133  0.73959327  0.93867968  1
  Se  Se175  1  0.59409820  0.08938397  0.45482769  1
  Se  Se176  1  0.58995860  0.09072796  0.92964920  1
  Se  Se177  1  0.58753196  0.41709816  0.44685548  1
  Se  Se178  1  0.59136840  0.41048244  0.94069105  1
  Se  Se179  1  0.58314168  0.74567318  0.45108505  1
  Se  Se180  1  0.59876535  0.74094250  0.93260389  1
  Se  Se181  1  0.92427783  0.08381054  0.43798257  1
  Se  Se182  1  0.92478904  0.07992928  0.93307871  1
  Se  Se183  1  0.90644166  0.41046162  0.44267906  1
  Se  Se184  1  0.91765599  0.41371641  0.94433314  1
  Se  Se185  1  0.91368209  0.75301175  0.45220510  1
  Se  Se186  1  0.92973260  0.73312660  0.94047364  1
  Se  Se187  1  0.25009959  0.25428496  0.31314225  1
  Se  Se188  1  0.25776748  0.25642297  0.79732065  1
  Se  Se189  1  0.25158631  0.57943239  0.30530915  1
  Se  Se190  1  0.24981715  0.58222557  0.79587708  1
  Se  Se191  1  0.25148349  0.92181459  0.31082728  1
  Se  Se192  1  0.24906309  0.92014027  0.81604139  1
  Se  Se193  1  0.57843977  0.25481116  0.30493574  1
  Se  Se194  1  0.57323437  0.25100769  0.79373376  1
  Se  Se195  1  0.57866919  0.58379738  0.31626549  1
  Se  Se196  1  0.57848928  0.57714088  0.79795595  1
  Se  Se197  1  0.57375294  0.91823215  0.32267934  1
  Se  Se198  1  0.57435864  0.91210395  0.79857406  1
  Se  Se199  1  0.91616929  0.24625042  0.29337176  1
  Se  Se200  1  0.89097462  0.23208625  0.80336375  1
  Se  Se201  1  0.90890496  0.57701624  0.31280551  1
  Se  Se202  1  0.91859662  0.57759962  0.80413745  1
  Se  Se203  1  0.91419935  0.91777707  0.30697361  1
  Se  Se204  1  0.92347865  0.91236203  0.79492779  1
  Se  Se205  1  0.08390891  0.07849654  0.30695872  1
  Se  Se206  1  0.09391609  0.09247695  0.79514239  1
  Se  Se207  1  0.08211638  0.41332687  0.31109562  1
  Se  Se208  1  0.08227280  0.41567053  0.79734948  1
  Se  Se209  1  0.09144339  0.75582876  0.31796719  1
  Se  Se210  1  0.09738647  0.75950027  0.81176391  1
  Se  Se211  1  0.41920466  0.08377337  0.33122330  1
  Se  Se212  1  0.41830896  0.09113906  0.80708498  1
  Se  Se213  1  0.41644788  0.41780800  0.31101056  1
  Se  Se214  1  0.41170441  0.41429568  0.79756931  1
  Se  Se215  1  0.41164722  0.74912112  0.30565862  1
  Se  Se216  1  0.41115640  0.74820207  0.79742043  1
  Se  Se217  1  0.75736256  0.09549891  0.31076011  1
  Se  Se218  1  0.72002695  0.05488365  0.80126131  1
  Se  Se219  1  0.74392351  0.41399201  0.29470717  1
  Se  Se220  1  0.74796736  0.41696598  0.80147183  1
  Se  Se221  1  0.74881407  0.75393061  0.31071259  1
  Se  Se222  1  0.75308985  0.74427266  0.79646601  1
  Se  Se223  1  0.25364572  0.07724485  0.20565240  1
  Se  Se224  1  0.25879431  0.10261953  0.67551193  1
  Se  Se225  1  0.25291431  0.41119981  0.19876073  1
  Se  Se226  1  0.24950299  0.41439437  0.68218641  1
  Se  Se227  1  0.24577436  0.74983851  0.20318299  1
  Se  Se228  1  0.24397515  0.76389705  0.70237865  1
  Se  Se229  1  0.57894293  0.09100171  0.18897249  1
  Se  Se230  1  0.57664602  0.08250234  0.69207259  1
  Se  Se231  1  0.57822967  0.43117343  0.19791590  1
  Se  Se232  1  0.58214825  0.41285754  0.69263440  1
  Se  Se233  1  0.56850135  0.76668036  0.19483634  1
  Se  Se234  1  0.58322603  0.74368138  0.69230430  1
  Se  Se235  1  0.92991359  0.06086785  0.19819614  1
  Se  Se236  1  0.92072744  0.07659522  0.70167522  1
  Se  Se237  1  0.93128903  0.41772574  0.19990727  1
  Se  Se238  1  0.91631222  0.41340390  0.69765503  1
  Se  Se239  1  0.91114107  0.75541443  0.19719980  1
  Se  Se240  1  0.91587466  0.75043112  0.68303529  1
  Se  Se241  1  0.09631497  0.24073768  0.19826501  1
  Se  Se242  1  0.08491511  0.25575309  0.69072195  1
  Se  Se243  1  0.08993717  0.57140724  0.19315089  1
  Se  Se244  1  0.08822981  0.57454941  0.68388504  1
  Se  Se245  1  0.08097009  0.91508085  0.20214117  1
  Se  Se246  1  0.10249313  0.91679447  0.69717909  1
  Se  Se247  1  0.42856841  0.24076752  0.20909616  1
  Se  Se248  1  0.41182135  0.25174259  0.67966534  1
  Se  Se249  1  0.41081629  0.58874220  0.20324489  1
  Se  Se250  1  0.41252652  0.57830672  0.68621123  1
  Se  Se251  1  0.41333355  0.92526871  0.20378936  1
  Se  Se252  1  0.42129535  0.91477699  0.68440133  1
  Se  Se253  1  0.77942910  0.22748425  0.18884061  1
  Se  Se254  1  0.75599728  0.23673339  0.70278608  1
  Se  Se255  1  0.76105719  0.57672224  0.19374535  1
  Se  Se256  1  0.74480855  0.58349309  0.69575212  1
  Se  Se257  1  0.74529363  0.91033052  0.19293133  1
  Se  Se258  1  0.75218272  0.91010451  0.68938461  1
