# generated using pymatgen
data_In86Cu29Se144
_symmetry_space_group_name_H-M   'P 1'
_cell_length_a   17.60031106
_cell_length_b   17.59660337
_cell_length_c   23.45480789
_cell_angle_alpha   89.98221574
_cell_angle_beta   89.97996694
_cell_angle_gamma   89.98820230
_symmetry_Int_Tables_number   1
_chemical_formula_structural   In86Cu29Se144
_chemical_formula_sum   'In86 Cu29 Se144'
_cell_volume   7264.08658045
_cell_formula_units_Z   1
loop_
 _symmetry_equiv_pos_site_id
 _symmetry_equiv_pos_as_xyz
  1  'x, y, z'
loop_
 _atom_site_type_symbol
 _atom_site_label
 _atom_site_symmetry_multiplicity
 _atom_site_fract_x
 _atom_site_fract_y
 _atom_site_fract_z
 _atom_site_occupancy
  In  In0  1  -0.01402820  0.15635043  0.12198396  1
  In  In1  1  -0.00225546  0.16842208  0.61923066  1
  In  In2  1  -0.00735140  0.51243187  0.12335418  1
  In  In3  1  -0.01770326  0.49404541  0.60957408  1
  In  In4  1  0.00018894  0.84577231  0.12842252  1
  In  In5  1  0.00359236  0.82563560  0.61323419  1
  In  In6  1  0.32787415  0.17429206  0.12931015  1
  In  In7  1  0.32187948  0.17256760  0.61827483  1
  In  In8  1  0.33464377  0.49842067  0.13807350  1
  In  In9  1  0.33705261  0.51493646  0.62228128  1
  In  In10  1  0.33609713  0.82841554  0.14030927  1
  In  In11  1  0.33104223  0.82902602  0.61321884  1
  In  In12  1  0.67440121  0.16083516  0.13245632  1
  In  In13  1  0.66849043  0.15215494  0.62125955  1
  In  In14  1  0.66357155  0.50387088  0.13087988  1
  In  In15  1  0.68981580  0.50718609  0.62416925  1
  In  In16  1  0.67436069  0.82509220  0.13396996  1
  In  In17  1  0.66847651  0.82759765  0.61947916  1
  In  In18  1  0.16885970  0.00332779  0.37356696  1
  In  In19  1  0.17508512  -0.00047427  0.87582527  1
  In  In20  1  0.16817311  0.33283559  0.37473613  1
  In  In21  1  0.15362771  0.33479602  0.87308080  1
  In  In22  1  0.17022240  0.66165630  0.38481239  1
  In  In23  1  0.16833490  0.67126615  0.87131711  1
  In  In24  1  0.50285856  -0.00249535  0.37249721  1
  In  In25  1  0.50337290  -0.01573560  0.87866776  1
  In  In26  1  0.50580985  0.34560491  0.35488236  1
  In  In27  1  0.51478579  0.34219639  0.88142086  1
  In  In28  1  0.51973109  0.68045684  0.35894777  1
  In  In29  1  0.50164572  0.65447784  0.88160737  1
  In  In30  1  0.83051233  -0.01012198  0.37992835  1
  In  In31  1  0.83268146  0.00858907  0.87613137  1
  In  In32  1  0.82532494  0.34301116  0.38045319  1
  In  In33  1  0.83497213  0.32732861  0.88066103  1
  In  In34  1  0.80545133  0.68818325  0.40104598  1
  In  In35  1  0.82056064  0.67681223  0.87971480  1
  In  In36  1  0.00468979  0.15471417  0.37904439  1
  In  In37  1  -0.00519331  0.17438076  0.87746852  1
  In  In38  1  -0.01294373  0.51952889  0.39180172  1
  In  In39  1  0.00039477  0.48269159  0.86930769  1
  In  In40  1  -0.01380565  0.83424151  0.39166500  1
  In  In41  1  -0.00572292  0.82000165  0.86849804  1
  In  In42  1  0.33081516  0.16700446  0.36757594  1
  In  In43  1  0.32509989  0.15449485  0.88385418  1
  In  In44  1  0.33143549  0.49543584  0.36250261  1
  In  In45  1  0.34383518  0.50965422  0.88229183  1
  In  In46  1  0.33603732  0.83792681  0.37511742  1
  In  In47  1  0.32905932  0.83541555  0.87754636  1
  In  In48  1  0.67124642  0.16425323  0.37321968  1
  In  In49  1  0.68000813  0.17207517  0.87699235  1
  In  In50  1  0.67802099  0.51491421  0.35928674  1
  In  In51  1  0.66196889  0.50600995  0.88453276  1
  In  In52  1  0.66319706  0.83286117  0.37922674  1
  In  In53  1  0.67632361  0.84270988  0.86764242  1
  In  In54  1  0.15586146  0.00671040  0.13501681  1
  In  In55  1  0.15771259  -0.00519360  0.61436840  1
  In  In56  1  0.17942000  0.32894127  0.12589364  1
  In  In57  1  0.15053780  0.32118583  0.61686148  1
  In  In58  1  0.16764941  0.67183173  0.13049187  1
  In  In59  1  0.16366457  0.66563232  0.60478428  1
  In  In60  1  0.50362547  -0.00357295  0.13643684  1
  In  In61  1  0.51680850  -0.00742660  0.62006086  1
  In  In62  1  0.49189616  0.34991836  0.14231023  1
  In  In63  1  0.49846949  0.33507548  0.62424911  1
  In  In64  1  0.50127311  0.65905861  0.13864787  1
  In  In65  1  0.50961101  0.68301373  0.61612939  1
  In  In66  1  0.83257174  -0.00100503  0.12702328  1
  In  In67  1  0.81338840  -0.01550972  0.60623734  1
  In  In68  1  0.82579156  0.32938326  0.12600012  1
  In  In69  1  0.84818534  0.34035966  0.61880690  1
  In  In70  1  0.82370216  0.66112438  0.11721686  1
  In  In71  1  0.81934577  0.65720056  0.60019651  1
  In  In72  1  0.33523593  -0.00554993  0.75446316  1
  In  In73  1  0.33623348  0.66803930  0.75305812  1
  In  In74  1  0.49752908  0.15985453  0.48358977  1
  In  In75  1  -0.00727951  0.65708312  0.73957922  1
  In  In76  1  0.32953848  0.33277348  0.74914583  1
  In  In77  1  -0.00609035  0.67453313  0.26332502  1
  In  In78  1  0.50268011  0.17426536  0.00893735  1
  In  In79  1  0.00298501  0.33179021  0.25622994  1
  In  In80  1  0.50356332  0.82659457  0.01690214  1
  In  In81  1  0.67660924  0.33752602  0.75216665  1
  In  In82  1  0.16028789  0.49648168  0.00255465  1
  In  In83  1  -0.00145106  -0.00046152  0.73394161  1
  In  In84  1  0.16298658  0.83282151  -0.00358993  1
  In  In85  1  0.50148425  0.50304381  0.49263683  1
  Cu  Cu86  1  0.33615090  0.66644894  0.49062873  1
  Cu  Cu87  1  0.67571993  0.00731909  0.00029679  1
  Cu  Cu88  1  0.66701473  0.34336817  0.00842183  1
  Cu  Cu89  1  0.16250362  0.49338946  0.74270388  1
  Cu  Cu90  1  0.16826456  0.83879484  0.25558069  1
  Cu  Cu91  1  0.83278919  0.16510294  0.75135191  1
  Cu  Cu92  1  -0.00961870  0.66724671  -0.00398493  1
  Cu  Cu93  1  0.16856892  0.16651327  0.25070008  1
  Cu  Cu94  1  0.33546713  0.33462389  0.00769048  1
  Cu  Cu95  1  0.32500439  0.33508869  0.49190364  1
  Cu  Cu96  1  0.33592775  0.00533675  0.49244643  1
  Cu  Cu97  1  0.66483160  0.32858205  0.49829646  1
  Cu  Cu98  1  0.50625315  0.15816218  0.74709823  1
  Cu  Cu99  1  0.50152224  0.83718509  0.25438148  1
  Cu  Cu100  1  0.50380806  0.16272934  0.25181897  1
  Cu  Cu101  1  0.51122233  0.83249744  0.74631182  1
  Cu  Cu102  1  0.66576954  0.67231048  0.00516033  1
  Cu  Cu103  1  0.32430670  -0.00033389  0.00920904  1
  Cu  Cu104  1  0.00385941  0.01248746  0.49557417  1
  Cu  Cu105  1  0.51073342  0.50419352  0.75486302  1
  Cu  Cu106  1  0.00166427  0.33173228  0.49286099  1
  Cu  Cu107  1  0.16380066  0.50167081  0.25831964  1
  Cu  Cu108  1  0.83679790  0.15628909  0.25328493  1
  Cu  Cu109  1  0.82684378  0.50315686  0.25012896  1
  Cu  Cu110  1  0.83260467  0.82880744  0.25817223  1
  Cu  Cu111  1  0.83096191  0.83448430  0.74115067  1
  Cu  Cu112  1  0.15843862  0.16563178  0.74459180  1
  Cu  Cu113  1  -0.00001700  0.32607889  -0.00055195  1
  Cu  Cu114  1  -0.00592922  0.00160783  0.00327869  1
  Se  Se115  1  0.08104568  0.08049528  0.05667692  1
  Se  Se116  1  0.08792848  0.09264909  0.55115478  1
  Se  Se117  1  0.07259358  0.40639288  0.06500945  1
  Se  Se118  1  0.08099407  0.41614214  0.55024683  1
  Se  Se119  1  0.07204006  0.74195701  0.05797170  1
  Se  Se120  1  0.10840732  0.77490311  0.54602870  1
  Se  Se121  1  0.41416847  0.07559382  0.06296214  1
  Se  Se122  1  0.41304342  0.08143384  0.55984801  1
  Se  Se123  1  0.41256770  0.41824282  0.06347135  1
  Se  Se124  1  0.40690309  0.40968441  0.55483741  1
  Se  Se125  1  0.40478747  0.73926581  0.06585204  1
  Se  Se126  1  0.41743699  0.74917589  0.54657536  1
  Se  Se127  1  0.75567750  0.08878899  0.05679456  1
  Se  Se128  1  0.75198410  0.09051647  0.54517693  1
  Se  Se129  1  0.75189570  0.42431262  0.06134487  1
  Se  Se130  1  0.74804610  0.41005613  0.55437149  1
  Se  Se131  1  0.75114929  0.75895846  0.05287553  1
  Se  Se132  1  0.76596114  0.77282862  0.54428548  1
  Se  Se133  1  0.24981589  0.24596143  0.05084081  1
  Se  Se134  1  0.24446257  0.25154617  0.54674312  1
  Se  Se135  1  0.24851051  0.58397899  0.06296220  1
  Se  Se136  1  0.25638062  0.58042373  0.54543364  1
  Se  Se137  1  0.24875041  0.91391174  0.06720906  1
  Se  Se138  1  0.25449900  0.92359856  0.55017197  1
  Se  Se139  1  0.58919503  0.26155603  0.07060840  1
  Se  Se140  1  0.58012463  0.25023867  0.55511426  1
  Se  Se141  1  0.58376197  0.59151200  0.06134740  1
  Se  Se142  1  0.59265906  0.58498580  0.55695868  1
  Se  Se143  1  0.59650388  0.92746635  0.06188296  1
  Se  Se144  1  0.57406506  0.89821547  0.55095905  1
  Se  Se145  1  0.91366164  0.25131802  0.05733998  1
  Se  Se146  1  0.91717822  0.24993127  0.54805190  1
  Se  Se147  1  0.91090374  0.58094430  0.04850527  1
  Se  Se148  1  0.94020896  0.61047051  0.54891173  1
  Se  Se149  1  0.91479322  0.91528837  0.05553728  1
  Se  Se150  1  0.92939511  0.92616568  0.55392042  1
  Se  Se151  1  0.08510669  0.24808102  0.44144311  1
  Se  Se152  1  0.08743392  0.24750377  0.94651589  1
  Se  Se153  1  0.09533436  0.57394791  0.45270231  1
  Se  Se154  1  0.07583747  0.58885006  0.93781229  1
  Se  Se155  1  0.08258790  0.92358802  0.44367873  1
  Se  Se156  1  0.07031076  0.92282730  0.93692954  1
  Se  Se157  1  0.41482534  0.26461057  0.43244307  1
  Se  Se158  1  0.41122946  0.25731173  0.93984063  1
  Se  Se159  1  0.41488661  0.58893826  0.42945759  1
  Se  Se160  1  0.41948200  0.58525476  0.95486308  1
  Se  Se161  1  0.42085471  0.91959960  0.44475652  1
  Se  Se162  1  0.40797963  0.91862822  0.95318583  1
  Se  Se163  1  0.74932619  0.24779856  0.44450822  1
  Se  Se164  1  0.74458269  0.25659398  0.95223035  1
  Se  Se165  1  0.74460718  0.56985222  0.44725941  1
  Se  Se166  1  0.74830222  0.58799403  0.95069386  1
  Se  Se167  1  0.76978910  0.88662852  0.44810715  1
  Se  Se168  1  0.75143442  0.92133380  0.94300131  1
  Se  Se169  1  0.25199447  0.08967232  0.44213262  1
  Se  Se170  1  0.24109188  0.08002986  0.95457836  1
  Se  Se171  1  0.24897132  0.42363763  0.43911081  1
  Se  Se172  1  0.25607308  0.40897358  0.94018329  1
  Se  Se173  1  0.25212991  0.75655887  0.44492655  1
  Se  Se174  1  0.26033874  0.73660551  0.94636182  1
  Se  Se175  1  0.59994365  0.06650650  0.44492638  1
  Se  Se176  1  0.58501085  0.08015240  0.94288786  1
  Se  Se177  1  0.58857275  0.40833818  0.43655148  1
  Se  Se178  1  0.58054505  0.42449702  0.95665842  1
  Se  Se179  1  0.58819691  0.73810912  0.44408380  1
  Se  Se180  1  0.58864992  0.75329528  0.94172948  1
  Se  Se181  1  0.90876194  0.08417330  0.44489517  1
  Se  Se182  1  0.91647630  0.08757228  0.94594399  1
  Se  Se183  1  0.91182428  0.41881471  0.45036221  1
  Se  Se184  1  0.92052932  0.41353570  0.94633479  1
  Se  Se185  1  0.93857842  0.71390089  0.44459295  1
  Se  Se186  1  0.91202112  0.75703536  0.94569004  1
  Se  Se187  1  0.24794860  0.25461083  0.30143651  1
  Se  Se188  1  0.24377483  0.23638812  0.80789014  1
  Se  Se189  1  0.24584162  0.59095456  0.30504971  1
  Se  Se190  1  0.24330690  0.56707916  0.80655591  1
  Se  Se191  1  0.25442892  0.92234432  0.30506731  1
  Se  Se192  1  0.23665005  0.89974559  0.80295302  1
  Se  Se193  1  0.58940835  0.24564828  0.30248027  1
  Se  Se194  1  0.57795249  0.24516011  0.80797281  1
  Se  Se195  1  0.56347479  0.56256764  0.30173677  1
  Se  Se196  1  0.58989702  0.58901006  0.80814853  1
  Se  Se197  1  0.59021316  0.91734741  0.30509294  1
  Se  Se198  1  0.58565572  0.92228457  0.80143838  1
  Se  Se199  1  0.91026004  0.24346303  0.31382996  1
  Se  Se200  1  0.91292911  0.25047709  0.80429326  1
  Se  Se201  1  0.89883186  0.58370796  0.31414492  1
  Se  Se202  1  0.91353403  0.58342288  0.81635081  1
  Se  Se203  1  0.91812477  0.90904852  0.31051675  1
  Se  Se204  1  0.91237393  0.91236480  0.80191676  1
  Se  Se205  1  0.08394870  0.08354396  0.30238538  1
  Se  Se206  1  0.08456833  0.08170747  0.80713478  1
  Se  Se207  1  0.07575044  0.43263164  0.31807861  1
  Se  Se208  1  0.08106121  0.40817970  0.79473893  1
  Se  Se209  1  0.08941200  0.76096601  0.31844795  1
  Se  Se210  1  0.08845792  0.75008867  0.79727136  1
  Se  Se211  1  0.41918796  0.08173795  0.30536141  1
  Se  Se212  1  0.42580393  0.08896098  0.81362704  1
  Se  Se213  1  0.40483773  0.40846892  0.29216165  1
  Se  Se214  1  0.42528280  0.42234716  0.80807780  1
  Se  Se215  1  0.41456178  0.75338560  0.30335344  1
  Se  Se216  1  0.42868394  0.76054918  0.81178563  1
  Se  Se217  1  0.75252133  0.07438158  0.30817922  1
  Se  Se218  1  0.74752050  0.08400095  0.80399134  1
  Se  Se219  1  0.74936855  0.41102972  0.30007909  1
  Se  Se220  1  0.75748375  0.42722417  0.81607301  1
  Se  Se221  1  0.74763151  0.74593628  0.30982809  1
  Se  Se222  1  0.75131163  0.75250714  0.79941752  1
  Se  Se223  1  0.25268230  0.08318332  0.19687571  1
  Se  Se224  1  0.24432869  0.08414456  0.69088599  1
  Se  Se225  1  0.24037009  0.41749935  0.20044577  1
  Se  Se226  1  0.24726060  0.41940713  0.68205468  1
  Se  Se227  1  0.24461804  0.74853283  0.20390143  1
  Se  Se228  1  0.24786696  0.74498737  0.68484402  1
  Se  Se229  1  0.58967015  0.07960426  0.20049603  1
  Se  Se230  1  0.58796060  0.07587991  0.69492558  1
  Se  Se231  1  0.59454133  0.41451309  0.20267706  1
  Se  Se232  1  0.58193992  0.42413710  0.68959525  1
  Se  Se233  1  0.58261721  0.75180148  0.20069087  1
  Se  Se234  1  0.59073763  0.74575656  0.69487499  1
  Se  Se235  1  0.91977782  0.07474971  0.19942324  1
  Se  Se236  1  0.89945360  0.08539420  0.68225954  1
  Se  Se237  1  0.91462879  0.42460987  0.19529857  1
  Se  Se238  1  0.91028452  0.43021632  0.69200475  1
  Se  Se239  1  0.91020524  0.75297761  0.19041329  1
  Se  Se240  1  0.90796955  0.75282570  0.68118782  1
  Se  Se241  1  0.08506488  0.24316397  0.18932258  1
  Se  Se242  1  0.07406955  0.24902554  0.69475987  1
  Se  Se243  1  0.08291472  0.58099459  0.19871016  1
  Se  Se244  1  0.09092662  0.57562142  0.67977934  1
  Se  Se245  1  0.07967693  0.91727975  0.20322984  1
  Se  Se246  1  0.09411095  0.90243848  0.68937001  1
  Se  Se247  1  0.41916725  0.24448953  0.19806395  1
  Se  Se248  1  0.42248664  0.23703494  0.69208348  1
  Se  Se249  1  0.40414424  0.59215019  0.20393914  1
  Se  Se250  1  0.43253255  0.58226756  0.69210956  1
  Se  Se251  1  0.41476394  0.92011105  0.20328922  1
  Se  Se252  1  0.42055651  0.90669893  0.68956825  1
  Se  Se253  1  0.75722082  0.24467368  0.20099520  1
  Se  Se254  1  0.75471980  0.24481228  0.68716438  1
  Se  Se255  1  0.74893481  0.59191834  0.19692871  1
  Se  Se256  1  0.76237375  0.59632472  0.69068303  1
  Se  Se257  1  0.75502368  0.91341956  0.19912083  1
  Se  Se258  1  0.74489612  0.91797797  0.69008649  1
