# generated using pymatgen
data_In86Cu29Se144
_symmetry_space_group_name_H-M   'P 1'
_cell_length_a   17.58272002
_cell_length_b   17.58751148
_cell_length_c   23.44662219
_cell_angle_alpha   90.00226613
_cell_angle_beta   89.98156670
_cell_angle_gamma   89.97152905
_symmetry_Int_Tables_number   1
_chemical_formula_structural   In86Cu29Se144
_chemical_formula_sum   'In86 Cu29 Se144'
_cell_volume   7250.54518894
_cell_formula_units_Z   1
loop_
 _symmetry_equiv_pos_site_id
 _symmetry_equiv_pos_as_xyz
  1  'x, y, z'
loop_
 _atom_site_type_symbol
 _atom_site_label
 _atom_site_symmetry_multiplicity
 _atom_site_fract_x
 _atom_site_fract_y
 _atom_site_fract_z
 _atom_site_occupancy
  In  In0  1  -0.00944297  0.18186238  0.13719521  1
  In  In1  1  0.00024706  0.17018284  0.61808572  1
  In  In2  1  0.00101024  0.50146265  0.11843826  1
  In  In3  1  0.00133818  0.49103096  0.63600748  1
  In  In4  1  -0.01160118  0.81836328  0.12131547  1
  In  In5  1  -0.00598034  0.82146080  0.62038419  1
  In  In6  1  0.32699100  0.15284882  0.12793276  1
  In  In7  1  0.31617884  0.16634860  0.62427505  1
  In  In8  1  0.33547028  0.50646250  0.11962939  1
  In  In9  1  0.32671419  0.51150238  0.62585844  1
  In  In10  1  0.32781084  0.83316603  0.12531868  1
  In  In11  1  0.33633191  0.84456986  0.62610667  1
  In  In12  1  0.68171773  0.18237822  0.11776022  1
  In  In13  1  0.68483264  0.16515598  0.62271550  1
  In  In14  1  0.66374141  0.48833307  0.11867074  1
  In  In15  1  0.66337978  0.49089474  0.63482800  1
  In  In16  1  0.67230590  0.84137121  0.11585093  1
  In  In17  1  0.67582291  0.83300740  0.62381901  1
  In  In18  1  0.17304894  -0.01011034  0.37976340  1
  In  In19  1  0.16495891  -0.01299353  0.87509245  1
  In  In20  1  0.15209214  0.34155778  0.37894079  1
  In  In21  1  0.15905686  0.34719249  0.87983035  1
  In  In22  1  0.16258967  0.66733630  0.37002132  1
  In  In23  1  0.15750648  0.67005928  0.87815534  1
  In  In24  1  0.49929165  0.00875656  0.36980891  1
  In  In25  1  0.49357733  0.00530091  0.88083016  1
  In  In26  1  0.50740259  0.32571135  0.36732478  1
  In  In27  1  0.51093067  0.32126821  0.88758129  1
  In  In28  1  0.49591276  0.67752023  0.36828009  1
  In  In29  1  0.50447270  0.66330007  0.88926728  1
  In  In30  1  0.83390799  -0.00171342  0.38693544  1
  In  In31  1  0.83635699  0.00027539  0.88641134  1
  In  In32  1  0.83341602  0.31942293  0.35635719  1
  In  In33  1  0.83404986  0.33761034  0.87084389  1
  In  In34  1  0.84999885  0.67059079  0.36733101  1
  In  In35  1  0.84394049  0.66108736  0.87803779  1
  In  In36  1  -0.00422944  0.17384046  0.37740919  1
  In  In37  1  -0.01423132  0.17219100  0.88108479  1
  In  In38  1  0.00356698  0.50436558  0.36595872  1
  In  In39  1  -0.00858079  0.50297484  0.87124182  1
  In  In40  1  0.00522950  0.83423960  0.37809943  1
  In  In41  1  0.00514246  0.82804050  0.88028287  1
  In  In42  1  0.33287177  0.15182735  0.36741400  1
  In  In43  1  0.34273400  0.16810286  0.87629200  1
  In  In44  1  0.31097250  0.49685411  0.37002498  1
  In  In45  1  0.32865222  0.50481251  0.88882601  1
  In  In46  1  0.32704735  0.82258801  0.36352320  1
  In  In47  1  0.32386068  0.83896842  0.87986806  1
  In  In48  1  0.66430072  0.17052223  0.37259992  1
  In  In49  1  0.66348422  0.16980867  0.88067865  1
  In  In50  1  0.68201976  0.48811600  0.37028699  1
  In  In51  1  0.69370954  0.47643897  0.89079853  1
  In  In52  1  0.67769774  0.84325017  0.37646931  1
  In  In53  1  0.67294690  0.82573107  0.88749743  1
  In  In54  1  0.18099499  0.00284610  0.13185922  1
  In  In55  1  0.17209845  0.00561697  0.61960788  1
  In  In56  1  0.13018703  0.33557260  0.12542768  1
  In  In57  1  0.14892880  0.32572124  0.61641874  1
  In  In58  1  0.16203410  0.66759180  0.12301171  1
  In  In59  1  0.15505399  0.65649420  0.61454519  1
  In  In60  1  0.49146685  -0.00610145  0.11829689  1
  In  In61  1  0.49352692  -0.00971382  0.63047740  1
  In  In62  1  0.51132670  0.34042248  0.11734350  1
  In  In63  1  0.50456251  0.34007765  0.63018593  1
  In  In64  1  0.49158967  0.65928244  0.11831223  1
  In  In65  1  0.49777846  0.67133169  0.63002896  1
  In  In66  1  0.83362490  -0.00048378  0.11978893  1
  In  In67  1  0.83043102  0.00243221  0.61240483  1
  In  In68  1  0.83834734  0.32972068  0.12194414  1
  In  In69  1  0.84563780  0.32710538  0.63821557  1
  In  In70  1  0.84882311  0.67635772  0.12059522  1
  In  In71  1  0.84442177  0.68046718  0.63023139  1
  In  In72  1  0.16330343  0.16736697  0.00927776  1
  In  In73  1  0.00045156  0.00008986  0.25328580  1
  In  In74  1  0.83687059  0.49961424  0.50180944  1
  In  In75  1  0.33155569  0.66934342  0.75118897  1
  In  In76  1  0.00111643  0.00022909  0.75227320  1
  In  In77  1  0.66822969  -0.00000478  0.74386038  1
  In  In78  1  0.32947041  0.33350870  0.75456094  1
  In  In79  1  0.50016013  0.16596205  0.49002460  1
  In  In80  1  0.66438621  0.66070991  0.24335072  1
  In  In81  1  0.50350584  0.83712003  0.50638148  1
  In  In82  1  0.32852568  0.33390874  0.24591880  1
  In  In83  1  0.66885319  0.00248415  0.24754705  1
  In  In84  1  0.49429799  0.50454590  0.50751509  1
  In  In85  1  0.67683112  0.65872718  0.76235109  1
  Cu  Cu86  1  0.00289458  -0.00404566  0.00370438  1
  Cu  Cu87  1  0.16899711  0.83542305  0.75157888  1
  Cu  Cu88  1  0.16199425  0.16658454  0.74371801  1
  Cu  Cu89  1  0.50265801  0.83637456  0.75633614  1
  Cu  Cu90  1  0.33301631  -0.00307832  0.49741914  1
  Cu  Cu91  1  0.49902298  0.16737920  0.75864478  1
  Cu  Cu92  1  0.67706839  0.67043486  0.50272586  1
  Cu  Cu93  1  0.33248245  -0.00300490  0.00238893  1
  Cu  Cu94  1  0.83339108  0.17065854  0.75193804  1
  Cu  Cu95  1  0.00452370  0.66917046  0.49380123  1
  Cu  Cu96  1  0.66774943  0.66539826  0.00610898  1
  Cu  Cu97  1  0.66165134  0.00388639  0.00103211  1
  Cu  Cu98  1  0.49162652  0.83346652  0.24136104  1
  Cu  Cu99  1  0.67143611  0.33142458  0.49538101  1
  Cu  Cu100  1  0.83821964  0.49251454  0.24277628  1
  Cu  Cu101  1  0.15847383  0.49566390  0.74929872  1
  Cu  Cu102  1  0.00203987  0.66247985  -0.00191164  1
  Cu  Cu103  1  0.50735195  0.48849259  0.76167621  1
  Cu  Cu104  1  0.50540800  0.16672659  0.24501563  1
  Cu  Cu105  1  0.49834404  0.50168081  0.24085695  1
  Cu  Cu106  1  -0.00717625  0.33712482  0.50038082  1
  Cu  Cu107  1  0.00561080  0.00220013  0.49826183  1
  Cu  Cu108  1  0.16384932  0.83127745  0.24983000  1
  Cu  Cu109  1  0.32200418  0.66496416  0.49145398  1
  Cu  Cu110  1  0.16202281  0.50696709  0.24481854  1
  Cu  Cu111  1  0.31935999  0.33160326  0.49753090  1
  Cu  Cu112  1  0.67331057  0.33103190  -0.00091097  1
  Cu  Cu113  1  0.33305555  0.33411507  0.00468751  1
  Cu  Cu114  1  0.32913657  0.67373714  0.00276191  1
  Se  Se115  1  0.07530943  0.07582993  0.06894652  1
  Se  Se116  1  0.08668401  0.08722017  0.55286214  1
  Se  Se117  1  0.09191443  0.42876474  0.04842074  1
  Se  Se118  1  0.07502255  0.42321325  0.55370098  1
  Se  Se119  1  0.08182287  0.75041372  0.05133334  1
  Se  Se120  1  0.08631909  0.75343401  0.54903117  1
  Se  Se121  1  0.41269099  0.08607101  0.05264566  1
  Se  Se122  1  0.41230011  0.07870939  0.55787073  1
  Se  Se123  1  0.41879456  0.41973142  0.05393711  1
  Se  Se124  1  0.40205550  0.40584791  0.56033194  1
  Se  Se125  1  0.41507539  0.75472363  0.05539743  1
  Se  Se126  1  0.40492200  0.73902294  0.55561548  1
  Se  Se127  1  0.75063141  0.08367266  0.05276060  1
  Se  Se128  1  0.75401662  0.09082884  0.54579462  1
  Se  Se129  1  0.75625526  0.41529508  0.05192902  1
  Se  Se130  1  0.74502367  0.40989999  0.56079338  1
  Se  Se131  1  0.75417760  0.75054972  0.05391792  1
  Se  Se132  1  0.75951877  0.75233193  0.55588610  1
  Se  Se133  1  0.25251912  0.25977594  0.06835437  1
  Se  Se134  1  0.24077138  0.24615897  0.55188666  1
  Se  Se135  1  0.24725765  0.58619134  0.05341877  1
  Se  Se136  1  0.24693877  0.57832461  0.54870346  1
  Se  Se137  1  0.24541664  0.91772525  0.05509480  1
  Se  Se138  1  0.25151407  0.91433084  0.55294609  1
  Se  Se139  1  0.58450328  0.24847072  0.04951110  1
  Se  Se140  1  0.58521592  0.25657988  0.55606441  1
  Se  Se141  1  0.58281209  0.57945696  0.05449952  1
  Se  Se142  1  0.59504526  0.59376380  0.56267973  1
  Se  Se143  1  0.57939136  0.91602781  0.05054330  1
  Se  Se144  1  0.59535112  0.93162753  0.56047195  1
  Se  Se145  1  0.92492905  0.24852231  0.05442322  1
  Se  Se146  1  0.90983747  0.25408857  0.55482412  1
  Se  Se147  1  0.91370331  0.58255590  0.05012118  1
  Se  Se148  1  0.92686249  0.59062049  0.55918978  1
  Se  Se149  1  0.91518462  0.91266979  0.05396593  1
  Se  Se150  1  0.92433811  0.91897509  0.55443657  1
  Se  Se151  1  0.07925954  0.25306824  0.44955517  1
  Se  Se152  1  0.07646863  0.25641423  0.94673118  1
  Se  Se153  1  0.08267476  0.58166912  0.44011189  1
  Se  Se154  1  0.08252259  0.57763825  0.94291862  1
  Se  Se155  1  0.08732161  0.91326477  0.44938064  1
  Se  Se156  1  0.08592812  0.91419145  0.94947404  1
  Se  Se157  1  0.40544424  0.26039627  0.43623506  1
  Se  Se158  1  0.41390359  0.24787929  0.95170363  1
  Se  Se159  1  0.41093650  0.58708112  0.43666030  1
  Se  Se160  1  0.41483133  0.58509043  0.95483712  1
  Se  Se161  1  0.41495913  0.91794901  0.43725089  1
  Se  Se162  1  0.41522766  0.91475422  0.94655388  1
  Se  Se163  1  0.75204513  0.25411722  0.43669532  1
  Se  Se164  1  0.75558460  0.24976620  0.94241268  1
  Se  Se165  1  0.74786591  0.58988604  0.43802393  1
  Se  Se166  1  0.75118523  0.58928857  0.94673300  1
  Se  Se167  1  0.75162682  0.91251556  0.45319991  1
  Se  Se168  1  0.74919272  0.91896960  0.95177124  1
  Se  Se169  1  0.25301295  0.08381037  0.44475968  1
  Se  Se170  1  0.25123179  0.07981795  0.94225183  1
  Se  Se171  1  0.24035779  0.42137253  0.44769827  1
  Se  Se172  1  0.24738137  0.41519400  0.95207246  1
  Se  Se173  1  0.24508132  0.75339260  0.43947501  1
  Se  Se174  1  0.24458885  0.75070969  0.94501041  1
  Se  Se175  1  0.59581820  0.06969716  0.44232706  1
  Se  Se176  1  0.57853018  0.08737460  0.94740022  1
  Se  Se177  1  0.58512364  0.41526479  0.44304129  1
  Se  Se178  1  0.58402436  0.41766476  0.95131299  1
  Se  Se179  1  0.58950838  0.74342754  0.44307070  1
  Se  Se180  1  0.58255108  0.75191516  0.95534952  1
  Se  Se181  1  0.92029682  0.08630328  0.44753871  1
  Se  Se182  1  0.91930430  0.08315324  0.95363291  1
  Se  Se183  1  0.91660725  0.41231379  0.43364511  1
  Se  Se184  1  0.90939253  0.42311865  0.94139475  1
  Se  Se185  1  0.91597498  0.75153096  0.44485577  1
  Se  Se186  1  0.91744680  0.75051526  0.94853895  1
  Se  Se187  1  0.24527910  0.25134124  0.31406909  1
  Se  Se188  1  0.23763833  0.24297657  0.81247354  1
  Se  Se189  1  0.24785539  0.58762076  0.29824935  1
  Se  Se190  1  0.24432159  0.57340684  0.80770110  1
  Se  Se191  1  0.24880278  0.91648867  0.30093497  1
  Se  Se192  1  0.25337519  0.91903630  0.80198629  1
  Se  Se193  1  0.58971269  0.24986972  0.29645380  1
  Se  Se194  1  0.58454296  0.25030172  0.80735785  1
  Se  Se195  1  0.57796032  0.57205641  0.31099727  1
  Se  Se196  1  0.58266546  0.57294163  0.82022580  1
  Se  Se197  1  0.57523252  0.90613279  0.30507673  1
  Se  Se198  1  0.58654959  0.91397891  0.81411349  1
  Se  Se199  1  0.93845799  0.25672780  0.29684427  1
  Se  Se200  1  0.92018005  0.25150874  0.80271180  1
  Se  Se201  1  0.91622245  0.58067074  0.29596971  1
  Se  Se202  1  0.92603646  0.59758432  0.80069072  1
  Se  Se203  1  0.90747400  0.91169778  0.31164963  1
  Se  Se204  1  0.91212141  0.91340007  0.81320524  1
  Se  Se205  1  0.08992890  0.08409756  0.31577135  1
  Se  Se206  1  0.08764522  0.09225828  0.81400450  1
  Se  Se207  1  0.08450278  0.41780483  0.29838102  1
  Se  Se208  1  0.07691390  0.41388515  0.80382632  1
  Se  Se209  1  0.07755941  0.75127720  0.30321642  1
  Se  Se210  1  0.08531274  0.75339571  0.80420110  1
  Se  Se211  1  0.42052259  0.08189980  0.29480888  1
  Se  Se212  1  0.41418509  0.08049386  0.80452097  1
  Se  Se213  1  0.42109959  0.42437979  0.30820542  1
  Se  Se214  1  0.41755733  0.41771470  0.81988189  1
  Se  Se215  1  0.41267989  0.74458688  0.29341178  1
  Se  Se216  1  0.42526369  0.75111831  0.81406914  1
  Se  Se217  1  0.75933219  0.08647968  0.31023048  1
  Se  Se218  1  0.75600551  0.08537474  0.80980793  1
  Se  Se219  1  0.75038144  0.41088370  0.29335838  1
  Se  Se220  1  0.74934013  0.41791856  0.80096042  1
  Se  Se221  1  0.75038298  0.75215258  0.30512451  1
  Se  Se222  1  0.76120560  0.76154632  0.81089955  1
  Se  Se223  1  0.24813597  0.08793816  0.20573785  1
  Se  Se224  1  0.24887895  0.08034721  0.69826353  1
  Se  Se225  1  0.23957265  0.42250500  0.18489658  1
  Se  Se226  1  0.24178669  0.41872855  0.68860555  1
  Se  Se227  1  0.24622021  0.74859270  0.19365313  1
  Se  Se228  1  0.24299696  0.75355245  0.68659084  1
  Se  Se229  1  0.58237373  0.08698193  0.18189441  1
  Se  Se230  1  0.57486562  0.09445044  0.68836012  1
  Se  Se231  1  0.58463062  0.41541503  0.19604538  1
  Se  Se232  1  0.58763841  0.40649420  0.70623903  1
  Se  Se233  1  0.57861714  0.75704529  0.18458439  1
  Se  Se234  1  0.58367995  0.75560896  0.69746441  1
  Se  Se235  1  0.90342876  0.08697763  0.19644648  1
  Se  Se236  1  0.90953765  0.08740778  0.69033756  1
  Se  Se237  1  0.92493791  0.41347097  0.18932420  1
  Se  Se238  1  0.90715274  0.42573382  0.70342527  1
  Se  Se239  1  0.91739000  0.74758053  0.20153410  1
  Se  Se240  1  0.92908994  0.74938046  0.70285047  1
  Se  Se241  1  0.10452903  0.22920136  0.19688241  1
  Se  Se242  1  0.07633255  0.24955364  0.69417924  1
  Se  Se243  1  0.07598753  0.58769754  0.19171183  1
  Se  Se244  1  0.08431506  0.58659125  0.69564542  1
  Se  Se245  1  0.08356554  0.90946038  0.18795212  1
  Se  Se246  1  0.08936952  0.91377238  0.68849531  1
  Se  Se247  1  0.42399503  0.24823909  0.18615410  1
  Se  Se248  1  0.41883431  0.24266441  0.69188952  1
  Se  Se249  1  0.41235061  0.58608553  0.19487434  1
  Se  Se250  1  0.42934222  0.57034811  0.69987317  1
  Se  Se251  1  0.40942654  0.92187303  0.19325674  1
  Se  Se252  1  0.41453121  0.91523470  0.70420431  1
  Se  Se253  1  0.75201584  0.25564715  0.19493473  1
  Se  Se254  1  0.74589779  0.25054513  0.69891296  1
  Se  Se255  1  0.75759442  0.57549797  0.18378856  1
  Se  Se256  1  0.75855273  0.57955422  0.68952625  1
  Se  Se257  1  0.75933753  0.90741209  0.19364212  1
  Se  Se258  1  0.76701510  0.91121519  0.69243247  1
