# generated using pymatgen
data_In86Cu29Se144
_symmetry_space_group_name_H-M   'P 1'
_cell_length_a   17.58042352
_cell_length_b   17.58140725
_cell_length_c   23.43955045
_cell_angle_alpha   89.99325707
_cell_angle_beta   90.00594867
_cell_angle_gamma   90.02580172
_symmetry_Int_Tables_number   1
_chemical_formula_structural   In86Cu29Se144
_chemical_formula_sum   'In86 Cu29 Se144'
_cell_volume   7244.89667209
_cell_formula_units_Z   1
loop_
 _symmetry_equiv_pos_site_id
 _symmetry_equiv_pos_as_xyz
  1  'x, y, z'
loop_
 _atom_site_type_symbol
 _atom_site_label
 _atom_site_symmetry_multiplicity
 _atom_site_fract_x
 _atom_site_fract_y
 _atom_site_fract_z
 _atom_site_occupancy
  In  In0  1  -0.00920568  0.17066298  0.12968378  1
  In  In1  1  -0.00977923  0.16268029  0.62308472  1
  In  In2  1  0.00427967  0.49130128  0.13708172  1
  In  In3  1  0.01074097  0.48596507  0.62135431  1
  In  In4  1  0.00521714  0.82982712  0.13869434  1
  In  In5  1  0.02108572  0.83421105  0.62463850  1
  In  In6  1  0.33762042  0.16634529  0.12481274  1
  In  In7  1  0.33235768  0.16083667  0.64029829  1
  In  In8  1  0.35377333  0.48412560  0.14440867  1
  In  In9  1  0.32768975  0.50605033  0.62636365  1
  In  In10  1  0.33533160  0.83310507  0.13170343  1
  In  In11  1  0.32844029  0.83241074  0.62600284  1
  In  In12  1  0.65484772  0.16173378  0.10850315  1
  In  In13  1  0.67499950  0.15761313  0.63189253  1
  In  In14  1  0.66298805  0.50385665  0.12457082  1
  In  In15  1  0.65265224  0.51001942  0.63601624  1
  In  In16  1  0.66965370  0.83167728  0.13131994  1
  In  In17  1  0.65157638  0.84435013  0.63482881  1
  In  In18  1  0.16332273  -0.00182910  0.37498821  1
  In  In19  1  0.19515589  0.03097725  0.83600678  1
  In  In20  1  0.17457359  0.34209571  0.36551079  1
  In  In21  1  0.17731446  0.32264949  0.87550025  1
  In  In22  1  0.17201499  0.66935784  0.37885667  1
  In  In23  1  0.18163437  0.66581310  0.87139441  1
  In  In24  1  0.48744120  -0.01013032  0.36833758  1
  In  In25  1  0.51107507  0.00728941  0.86147093  1
  In  In26  1  0.49056172  0.34455737  0.36632469  1
  In  In27  1  0.49650449  0.33074036  0.88909351  1
  In  In28  1  0.50757378  0.67157294  0.36459151  1
  In  In29  1  0.49166654  0.66371437  0.86517576  1
  In  In30  1  0.83999969  0.00892295  0.37479688  1
  In  In31  1  0.83265642  0.01405276  0.87167631  1
  In  In32  1  0.83300056  0.31668988  0.37506259  1
  In  In33  1  0.81533283  0.32942128  0.88841249  1
  In  In34  1  0.82422196  0.65928384  0.36878346  1
  In  In35  1  0.83087179  0.67948979  0.87781912  1
  In  In36  1  -0.00558386  0.15655728  0.36934408  1
  In  In37  1  0.00435386  0.15279204  0.88240257  1
  In  In38  1  0.01028326  0.51091673  0.36532482  1
  In  In39  1  0.00230955  0.49917333  0.87851152  1
  In  In40  1  0.01030115  0.84357256  0.37431314  1
  In  In41  1  -0.00571434  0.84508805  0.87394728  1
  In  In42  1  0.33381477  0.16840160  0.36343486  1
  In  In43  1  0.34856846  0.18554922  0.86308309  1
  In  In44  1  0.32872135  0.49073958  0.36439057  1
  In  In45  1  0.34285087  0.50612124  0.87243683  1
  In  In46  1  0.33422125  0.83456817  0.37882310  1
  In  In47  1  0.34995382  0.85054766  0.84154822  1
  In  In48  1  0.68187276  0.16545202  0.37845338  1
  In  In49  1  0.66224620  0.16946745  0.88220964  1
  In  In50  1  0.65075204  0.51125787  0.37100757  1
  In  In51  1  0.64477007  0.47543229  0.86912421  1
  In  In52  1  0.65364352  0.82815445  0.37066229  1
  In  In53  1  0.65636258  0.83325144  0.85473101  1
  In  In54  1  0.17369488  -0.00480310  0.13621976  1
  In  In55  1  0.18625638  -0.02420334  0.64942981  1
  In  In56  1  0.16424846  0.32869538  0.12846338  1
  In  In57  1  0.16873486  0.34205261  0.62303588  1
  In  In58  1  0.17476789  0.65863118  0.13755936  1
  In  In59  1  0.18322437  0.68052483  0.60672927  1
  In  In60  1  0.49537620  0.00756318  0.12827198  1
  In  In61  1  0.50000821  -0.01299798  0.63627419  1
  In  In62  1  0.49314858  0.32631408  0.10638194  1
  In  In63  1  0.49699417  0.33823739  0.63564829  1
  In  In64  1  0.50767645  0.65541778  0.13601216  1
  In  In65  1  0.47325053  0.69555835  0.65318475  1
  In  In66  1  0.82743228  0.00701519  0.13019787  1
  In  In67  1  0.82599920  0.00541532  0.62872452  1
  In  In68  1  0.84462163  0.32380500  0.11844524  1
  In  In69  1  0.83678511  0.32123217  0.62655769  1
  In  In70  1  0.83169689  0.66759282  0.13671908  1
  In  In71  1  0.82309246  0.66213584  0.62414574  1
  In  In72  1  0.83595337  0.83573672  0.49277390  1
  In  In73  1  0.17000271  0.83594164  -0.01250277  1
  In  In74  1  0.16681795  0.16874551  -0.00038813  1
  In  In75  1  0.16166403  0.16146089  0.50326395  1
  In  In76  1  0.82917297  0.50032894  0.00348503  1
  In  In77  1  0.50444225  0.16230817  0.50704183  1
  In  In78  1  0.17383856  0.49492081  0.01021917  1
  In  In79  1  0.66710064  0.32912459  0.24652864  1
  In  In80  1  -0.00093234  0.32834697  0.75635178  1
  In  In81  1  0.83141496  0.84192243  -0.00032861  1
  In  In82  1  0.00169688  0.66844881  0.74055043  1
  In  In83  1  0.83829683  0.49556346  0.49949438  1
  In  In84  1  0.49972365  0.83708441  -0.00966265  1
  In  In85  1  0.49777794  0.50439856  0.49617560  1
  Cu  Cu86  1  0.17050000  0.16883510  0.24918401  1
  Cu  Cu87  1  0.00256532  0.00019183  0.00081324  1
  Cu  Cu88  1  0.82773523  0.49948361  0.75651706  1
  Cu  Cu89  1  0.33076594  -0.00770903  0.50325270  1
  Cu  Cu90  1  0.82701059  0.49481397  0.24618793  1
  Cu  Cu91  1  0.00560315  0.33002244  0.49799506  1
  Cu  Cu92  1  0.49898086  0.83863365  0.24950488  1
  Cu  Cu93  1  0.50571989  0.16563327  0.24183266  1
  Cu  Cu94  1  0.01054385  0.66525009  0.01088386  1
  Cu  Cu95  1  0.00694142  0.66334343  0.49399115  1
  Cu  Cu96  1  0.83018146  0.84003572  0.74915472  1
  Cu  Cu97  1  0.15833399  0.50516896  0.25199016  1
  Cu  Cu98  1  0.83324844  0.83469745  0.25782655  1
  Cu  Cu99  1  0.34303694  0.66900475  -0.00345410  1
  Cu  Cu100  1  0.65536193  0.67502973  0.50220618  1
  Cu  Cu101  1  0.16808994  0.83472194  0.25915849  1
  Cu  Cu102  1  0.33565288  0.00683611  -0.00205356  1
  Cu  Cu103  1  0.66274616  0.65979513  -0.00087796  1
  Cu  Cu104  1  0.33630809  0.66935454  0.50117182  1
  Cu  Cu105  1  0.50661672  0.49051302  0.75696807  1
  Cu  Cu106  1  0.83417107  0.16084291  0.24951080  1
  Cu  Cu107  1  0.50123422  0.17127001  0.75470572  1
  Cu  Cu108  1  0.66309524  -0.00070850  0.50706186  1
  Cu  Cu109  1  0.66400005  0.00093813  -0.00424926  1
  Cu  Cu110  1  0.17993147  0.50166331  0.74742021  1
  Cu  Cu111  1  0.33083054  0.33081516  0.49352574  1
  Cu  Cu112  1  0.67388932  0.33307168  0.50333823  1
  Cu  Cu113  1  0.82339829  0.17036718  0.75390883  1
  Cu  Cu114  1  0.00334257  0.00102846  0.49959513  1
  Se  Se115  1  0.08543871  0.07445057  0.06362084  1
  Se  Se116  1  0.08402952  0.06907079  0.56802088  1
  Se  Se117  1  0.07097870  0.40670965  0.05790086  1
  Se  Se118  1  0.09110007  0.41541189  0.54568435  1
  Se  Se119  1  0.09136293  0.75137474  0.06296042  1
  Se  Se120  1  0.08418716  0.75367539  0.54519002  1
  Se  Se121  1  0.41937500  0.08581971  0.05290119  1
  Se  Se122  1  0.40763317  0.07589229  0.56350648  1
  Se  Se123  1  0.41192585  0.42855122  0.05392564  1
  Se  Se124  1  0.41220823  0.40857801  0.55570183  1
  Se  Se125  1  0.41905815  0.75038740  0.05922494  1
  Se  Se126  1  0.41777090  0.74979143  0.55932213  1
  Se  Se127  1  0.75155759  0.07685426  0.05124668  1
  Se  Se128  1  0.75008421  0.08467738  0.55306131  1
  Se  Se129  1  0.74256355  0.40674361  0.06103458  1
  Se  Se130  1  0.74445802  0.41823128  0.56568125  1
  Se  Se131  1  0.74627503  0.74063494  0.05643164  1
  Se  Se132  1  0.74354849  0.75287751  0.55676983  1
  Se  Se133  1  0.25771389  0.26098194  0.05611930  1
  Se  Se134  1  0.26010067  0.24917015  0.55921771  1
  Se  Se135  1  0.26113491  0.59539732  0.05914865  1
  Se  Se136  1  0.25299355  0.57709571  0.54692529  1
  Se  Se137  1  0.25812913  0.92215403  0.05579286  1
  Se  Se138  1  0.24280126  0.91636661  0.55767485  1
  Se  Se139  1  0.58633373  0.25377389  0.04122161  1
  Se  Se140  1  0.58969774  0.25901021  0.56466084  1
  Se  Se141  1  0.57828186  0.58306357  0.05466659  1
  Se  Se142  1  0.57759718  0.59368597  0.56213042  1
  Se  Se143  1  0.58914125  0.91868048  0.05816544  1
  Se  Se144  1  0.57663337  0.91682804  0.55634522  1
  Se  Se145  1  0.91840866  0.23755818  0.04880650  1
  Se  Se146  1  0.91883553  0.25107666  0.55097878  1
  Se  Se147  1  0.92345923  0.58818351  0.06508270  1
  Se  Se148  1  0.92796974  0.58931144  0.55939304  1
  Se  Se149  1  0.92794674  0.91850877  0.06359188  1
  Se  Se150  1  0.92073376  0.92057659  0.56037339  1
  Se  Se151  1  0.08394750  0.25166748  0.43469997  1
  Se  Se152  1  0.07364684  0.26130482  0.94295306  1
  Se  Se153  1  0.08930025  0.57735428  0.44403527  1
  Se  Se154  1  0.08653117  0.59100312  0.94468847  1
  Se  Se155  1  0.08918560  0.91742757  0.45025741  1
  Se  Se156  1  0.08354283  0.93359377  0.93459762  1
  Se  Se157  1  0.41686055  0.25134950  0.43988755  1
  Se  Se158  1  0.40675901  0.24501198  0.95124340  1
  Se  Se159  1  0.40834758  0.59050905  0.43401634  1
  Se  Se160  1  0.42535354  0.58450763  0.94454996  1
  Se  Se161  1  0.41947873  0.91599066  0.44935549  1
  Se  Se162  1  0.40800599  0.92632755  0.93188505  1
  Se  Se163  1  0.75551942  0.24643112  0.45345501  1
  Se  Se164  1  0.74843663  0.23839474  0.95695910  1
  Se  Se165  1  0.73657812  0.58772515  0.44784531  1
  Se  Se166  1  0.74437277  0.58523716  0.93645101  1
  Se  Se167  1  0.73968909  0.92438880  0.43849187  1
  Se  Se168  1  0.73650058  0.91696436  0.93357732  1
  Se  Se169  1  0.26150583  0.08156269  0.44204820  1
  Se  Se170  1  0.25068437  0.07847781  0.93565344  1
  Se  Se171  1  0.25100652  0.41740991  0.44224657  1
  Se  Se172  1  0.25824907  0.41417764  0.94068199  1
  Se  Se173  1  0.25072785  0.75390681  0.44937527  1
  Se  Se174  1  0.27265913  0.75328693  0.93364645  1
  Se  Se175  1  0.58682229  0.07626219  0.43961005  1
  Se  Se176  1  0.57430178  0.07942362  0.94482633  1
  Se  Se177  1  0.59110667  0.40624417  0.44124192  1
  Se  Se178  1  0.58164255  0.41585903  0.95551307  1
  Se  Se179  1  0.57315508  0.75243099  0.44462148  1
  Se  Se180  1  0.59277479  0.74429112  0.93575626  1
  Se  Se181  1  0.91899532  0.08603907  0.44959618  1
  Se  Se182  1  0.91260771  0.08037209  0.95121891  1
  Se  Se183  1  0.92568320  0.40970069  0.43576532  1
  Se  Se184  1  0.92265628  0.41115198  0.94513653  1
  Se  Se185  1  0.92111036  0.73821741  0.43569074  1
  Se  Se186  1  0.93010649  0.74498752  0.94959684  1
  Se  Se187  1  0.25560071  0.25664229  0.29763514  1
  Se  Se188  1  0.23880039  0.23912198  0.80040285  1
  Se  Se189  1  0.24561863  0.58474602  0.30507279  1
  Se  Se190  1  0.26121161  0.58703463  0.80035753  1
  Se  Se191  1  0.25357934  0.92031473  0.30909280  1
  Se  Se192  1  0.22377318  0.89608908  0.79933117  1
  Se  Se193  1  0.57828828  0.24069992  0.31243627  1
  Se  Se194  1  0.57855302  0.25259270  0.81420689  1
  Se  Se195  1  0.57385913  0.57790408  0.29448378  1
  Se  Se196  1  0.58798823  0.58194048  0.80546821  1
  Se  Se197  1  0.58494281  0.92202233  0.30143738  1
  Se  Se198  1  0.56956834  0.91101522  0.79002754  1
  Se  Se199  1  0.91676164  0.24696233  0.30112251  1
  Se  Se200  1  0.90608766  0.24410083  0.81762061  1
  Se  Se201  1  0.90933773  0.57873190  0.30179554  1
  Se  Se202  1  0.91386358  0.58134142  0.81034413  1
  Se  Se203  1  0.91833570  0.91913617  0.30860279  1
  Se  Se204  1  0.90997398  0.92236400  0.80536328  1
  Se  Se205  1  0.08862696  0.08407464  0.30380725  1
  Se  Se206  1  0.06867970  0.08567122  0.79926737  1
  Se  Se207  1  0.07716025  0.41185633  0.29984935  1
  Se  Se208  1  0.09551590  0.42585486  0.80843218  1
  Se  Se209  1  0.08388213  0.74876211  0.30974857  1
  Se  Se210  1  0.08194526  0.75012319  0.81241126  1
  Se  Se211  1  0.42081310  0.08579521  0.29943356  1
  Se  Se212  1  0.41290056  0.08257085  0.79974892  1
  Se  Se213  1  0.41963294  0.42381449  0.29308308  1
  Se  Se214  1  0.42054222  0.41059134  0.81104211  1
  Se  Se215  1  0.41578971  0.75679627  0.30522061  1
  Se  Se216  1  0.42567275  0.74736334  0.78882926  1
  Se  Se217  1  0.74893618  0.08045373  0.30369683  1
  Se  Se218  1  0.73817580  0.08657595  0.80637158  1
  Se  Se219  1  0.75111353  0.42000422  0.31444235  1
  Se  Se220  1  0.75154986  0.41039600  0.80895826  1
  Se  Se221  1  0.74493062  0.74969107  0.30503792  1
  Se  Se222  1  0.75379269  0.74838724  0.80019047  1
  Se  Se223  1  0.25660733  0.08631372  0.19677106  1
  Se  Se224  1  0.23789625  0.09071613  0.70598422  1
  Se  Se225  1  0.23813974  0.42200205  0.19497527  1
  Se  Se226  1  0.25678281  0.41140546  0.69499971  1
  Se  Se227  1  0.24874756  0.75531941  0.20005415  1
  Se  Se228  1  0.24664296  0.74229018  0.69168594  1
  Se  Se229  1  0.59216948  0.08392745  0.19104289  1
  Se  Se230  1  0.57725743  0.08700020  0.69534186  1
  Se  Se231  1  0.57562761  0.41183385  0.18567387  1
  Se  Se232  1  0.59130535  0.40904555  0.70245938  1
  Se  Se233  1  0.58306108  0.75248921  0.19805449  1
  Se  Se234  1  0.60771248  0.72546347  0.68948526  1
  Se  Se235  1  0.92129922  0.07689273  0.19868848  1
  Se  Se236  1  0.90757203  0.09019809  0.69741181  1
  Se  Se237  1  0.90927909  0.40889931  0.19567002  1
  Se  Se238  1  0.91130257  0.42406548  0.69475806  1
  Se  Se239  1  0.91591325  0.74980569  0.20340197  1
  Se  Se240  1  0.90702592  0.76175524  0.68449929  1
  Se  Se241  1  0.08146346  0.24748207  0.19678749  1
  Se  Se242  1  0.08386373  0.24862547  0.68681142  1
  Se  Se243  1  0.07362062  0.59028912  0.20039485  1
  Se  Se244  1  0.09448537  0.57570546  0.68634026  1
  Se  Se245  1  0.08539191  0.91816613  0.20375252  1
  Se  Se246  1  0.06625375  0.92598734  0.70168234  1
  Se  Se247  1  0.42489127  0.25176344  0.18913403  1
  Se  Se248  1  0.41497311  0.25250598  0.70133206  1
  Se  Se249  1  0.39176744  0.60886058  0.19322589  1
  Se  Se250  1  0.42574670  0.56760985  0.69511992  1
  Se  Se251  1  0.41536562  0.92236877  0.19636943  1
  Se  Se252  1  0.39827317  0.92237631  0.69824771  1
  Se  Se253  1  0.75374597  0.23784823  0.18627864  1
  Se  Se254  1  0.74567625  0.25530040  0.69779940  1
  Se  Se255  1  0.74334647  0.58161417  0.19783330  1
  Se  Se256  1  0.75083215  0.58339812  0.69965064  1
  Se  Se257  1  0.75355863  0.91470545  0.19748856  1
  Se  Se258  1  0.74387935  0.92366908  0.69788471  1
