# generated using pymatgen
data_In86Cu29Se144
_symmetry_space_group_name_H-M   'P 1'
_cell_length_a   17.57708757
_cell_length_b   17.57548551
_cell_length_c   23.43888570
_cell_angle_alpha   90.00202268
_cell_angle_beta   90.00021343
_cell_angle_gamma   89.99346379
_symmetry_Int_Tables_number   1
_chemical_formula_structural   In86Cu29Se144
_chemical_formula_sum   'In86 Cu29 Se144'
_cell_volume   7240.87758437
_cell_formula_units_Z   1
loop_
 _symmetry_equiv_pos_site_id
 _symmetry_equiv_pos_as_xyz
  1  'x, y, z'
loop_
 _atom_site_type_symbol
 _atom_site_label
 _atom_site_symmetry_multiplicity
 _atom_site_fract_x
 _atom_site_fract_y
 _atom_site_fract_z
 _atom_site_occupancy
  In  In0  1  -0.00388454  0.17105998  0.12145378  1
  In  In1  1  -0.00151016  0.16873696  0.63136582  1
  In  In2  1  -0.00038506  0.49762741  0.12206489  1
  In  In3  1  0.00369841  0.49177775  0.63702913  1
  In  In4  1  -0.01185261  0.83457041  0.13198625  1
  In  In5  1  -0.01063286  0.84446982  0.62812195  1
  In  In6  1  0.33708247  0.18378159  0.12374069  1
  In  In7  1  0.35012540  0.16442532  0.62312898  1
  In  In8  1  0.33199211  0.49884788  0.11499602  1
  In  In9  1  0.33287180  0.49820322  0.62901258  1
  In  In10  1  0.33479336  0.83640213  0.12366475  1
  In  In11  1  0.32597849  0.83174938  0.62529881  1
  In  In12  1  0.67587255  0.15843607  0.13174337  1
  In  In13  1  0.66043193  0.17699025  0.63263149  1
  In  In14  1  0.65042579  0.48672582  0.10955181  1
  In  In15  1  0.66593389  0.50579496  0.63467317  1
  In  In16  1  0.67580004  0.83196217  0.12825313  1
  In  In17  1  0.68085310  0.82474650  0.62875393  1
  In  In18  1  0.16143970  0.00990212  0.37313364  1
  In  In19  1  0.16211010  0.01828787  0.87559116  1
  In  In20  1  0.16963408  0.34451520  0.37568093  1
  In  In21  1  0.16384632  0.33464679  0.87397980  1
  In  In22  1  0.15113699  0.66658990  0.37769730  1
  In  In23  1  0.15331852  0.64955257  0.86694160  1
  In  In24  1  0.51612801  0.00123391  0.37400276  1
  In  In25  1  0.50636625  -0.01057829  0.87100945  1
  In  In26  1  0.50384515  0.33365670  0.38178437  1
  In  In27  1  0.51673056  0.34946675  0.86449977  1
  In  In28  1  0.49281060  0.66322303  0.37800370  1
  In  In29  1  0.49560973  0.65745504  0.86890235  1
  In  In30  1  0.82960663  -0.00008285  0.37536075  1
  In  In31  1  0.84036087  0.00732227  0.86916476  1
  In  In32  1  0.83070333  0.32761425  0.36533894  1
  In  In33  1  0.83172842  0.33653579  0.87593529  1
  In  In34  1  0.84947802  0.66227359  0.37773565  1
  In  In35  1  0.81126363  0.62742475  0.84381085  1
  In  In36  1  -0.00531439  0.16280900  0.36477666  1
  In  In37  1  -0.00319057  0.17186659  0.87433736  1
  In  In38  1  0.00178474  0.50200201  0.37047059  1
  In  In39  1  -0.00082054  0.49998995  0.87599932  1
  In  In40  1  -0.00734943  0.82923368  0.37459671  1
  In  In41  1  -0.01142735  0.82553017  0.86777838  1
  In  In42  1  0.33432279  0.17831839  0.38114568  1
  In  In43  1  0.31668228  0.17176419  0.87744858  1
  In  In44  1  0.33208790  0.49708934  0.38798192  1
  In  In45  1  0.33434911  0.49639951  0.87230124  1
  In  In46  1  0.33833662  0.82995216  0.37657346  1
  In  In47  1  0.34548511  0.82857934  0.86874225  1
  In  In48  1  0.65739948  0.16496132  0.36409595  1
  In  In49  1  0.68060425  0.17908444  0.86944156  1
  In  In50  1  0.66186118  0.48503039  0.37257411  1
  In  In51  1  0.66688116  0.49741871  0.87914957  1
  In  In52  1  0.66809013  0.85163775  0.37531432  1
  In  In53  1  0.66730108  0.82841549  0.86615933  1
  In  In54  1  0.14615085  0.00172200  0.12651417  1
  In  In55  1  0.16178645  -0.00589013  0.62326855  1
  In  In56  1  0.16209524  0.32565847  0.11426158  1
  In  In57  1  0.15606816  0.34664455  0.63398471  1
  In  In58  1  0.16299848  0.64931361  0.11880365  1
  In  In59  1  0.17946906  0.66003716  0.63407520  1
  In  In60  1  0.51734282  0.00579190  0.13649927  1
  In  In61  1  0.50136444  0.01980470  0.61920674  1
  In  In62  1  0.50446660  0.34395005  0.13122742  1
  In  In63  1  0.49890807  0.33285155  0.62781716  1
  In  In64  1  0.51029929  0.64761424  0.12496605  1
  In  In65  1  0.51117762  0.65306757  0.63037964  1
  In  In66  1  0.82470790  0.00691012  0.13023051  1
  In  In67  1  0.84561154  -0.01249707  0.62718498  1
  In  In68  1  0.83476547  0.33669355  0.12068072  1
  In  In69  1  0.83522486  0.34302162  0.64508258  1
  In  In70  1  0.83976161  0.66482036  0.12196285  1
  In  In71  1  0.82656182  0.67079130  0.63582000  1
  In  In72  1  0.16767741  0.17272729  0.50369174  1
  In  In73  1  0.83120022  0.16510365  0.49884167  1
  In  In74  1  0.33654513  0.33506031  0.25035803  1
  In  In75  1  0.50442318  0.83450217  0.49508137  1
  In  In76  1  0.15997971  0.82750631  -0.01144619  1
  In  In77  1  0.66873413  0.66553629  0.24693946  1
  In  In78  1  0.83127080  0.82583252  0.00160711  1
  In  In79  1  0.83249499  0.49994771  0.50842286  1
  In  In80  1  0.33012300  0.66697615  0.25122239  1
  In  In81  1  0.33435644  0.00310627  0.25753428  1
  In  In82  1  0.16648377  0.83338480  0.50442953  1
  In  In83  1  0.50077847  0.82538060  -0.00281807  1
  In  In84  1  0.49998336  0.16895026  0.00013229  1
  In  In85  1  0.33301040  0.00120811  0.74262299  1
  Cu  Cu86  1  0.67109729  0.33319030  -0.00328659  1
  Cu  Cu87  1  -0.00260291  0.66005631  -0.00343319  1
  Cu  Cu88  1  0.33388910  0.65607407  -0.00632239  1
  Cu  Cu89  1  0.15826449  0.16477820  0.24261560  1
  Cu  Cu90  1  0.16608066  0.83593090  0.74702017  1
  Cu  Cu91  1  0.00030471  0.33455662  -0.00319289  1
  Cu  Cu92  1  0.49744600  0.49769158  0.74942504  1
  Cu  Cu93  1  -0.00162820  0.33518066  0.50363079  1
  Cu  Cu94  1  0.15520998  0.82732505  0.24989927  1
  Cu  Cu95  1  -0.00413996  0.01384633  -0.00193478  1
  Cu  Cu96  1  0.17000638  0.49928111  0.75498469  1
  Cu  Cu97  1  0.33547042  0.34082592  0.50543857  1
  Cu  Cu98  1  0.33431224  0.33592917  -0.00515187  1
  Cu  Cu99  1  0.00536342  0.66348454  0.50149392  1
  Cu  Cu100  1  0.83115694  0.16412037  0.75211268  1
  Cu  Cu101  1  0.67297785  0.00486246  0.00099061  1
  Cu  Cu102  1  0.83293586  0.83561332  0.25252729  1
  Cu  Cu103  1  0.67276837  0.66284165  0.50752381  1
  Cu  Cu104  1  0.66984928  0.00326554  0.49957015  1
  Cu  Cu105  1  0.15922875  0.17569698  0.75156771  1
  Cu  Cu106  1  0.83590144  0.49760211  0.24649522  1
  Cu  Cu107  1  0.33617735  0.65800646  0.50756900  1
  Cu  Cu108  1  0.50973349  0.82786557  0.74571178  1
  Cu  Cu109  1  0.83968156  0.17190639  0.24505476  1
  Cu  Cu110  1  0.49775739  0.16706107  0.75008940  1
  Cu  Cu111  1  0.15797867  0.49927895  0.24812774  1
  Cu  Cu112  1  0.32714803  0.00582492  0.00479572  1
  Cu  Cu113  1  0.83589947  0.83690744  0.74963410  1
  Cu  Cu114  1  0.65627450  0.33086084  0.50376939  1
  Se  Se115  1  0.08462608  0.08987143  0.05197738  1
  Se  Se116  1  0.07313213  0.07976686  0.55654321  1
  Se  Se117  1  0.08402662  0.41812176  0.05094680  1
  Se  Se118  1  0.07883373  0.42029735  0.55689363  1
  Se  Se119  1  0.07151703  0.74691320  0.05773669  1
  Se  Se120  1  0.08137005  0.74289561  0.56634791  1
  Se  Se121  1  0.41505645  0.07508382  0.06506224  1
  Se  Se122  1  0.41503134  0.08444120  0.54597198  1
  Se  Se123  1  0.41843910  0.40955625  0.05516578  1
  Se  Se124  1  0.42072484  0.42139597  0.55913316  1
  Se  Se125  1  0.40773924  0.73683748  0.05856899  1
  Se  Se126  1  0.41729481  0.74527163  0.56059925  1
  Se  Se127  1  0.75486993  0.08830707  0.05338102  1
  Se  Se128  1  0.74530542  0.08058170  0.56559909  1
  Se  Se129  1  0.75403449  0.41950030  0.04905459  1
  Se  Se130  1  0.74354466  0.40422550  0.56392495  1
  Se  Se131  1  0.73528082  0.73532325  0.05601256  1
  Se  Se132  1  0.75893550  0.74716850  0.55431087  1
  Se  Se133  1  0.25402883  0.24863527  0.04760812  1
  Se  Se134  1  0.25410378  0.26132098  0.56658822  1
  Se  Se135  1  0.24563585  0.57681563  0.04589950  1
  Se  Se136  1  0.24734067  0.57810713  0.55742240  1
  Se  Se137  1  0.24524818  0.91830314  0.05682008  1
  Se  Se138  1  0.26343024  0.92986260  0.55390728  1
  Se  Se139  1  0.59123241  0.25452045  0.06122335  1
  Se  Se140  1  0.57650027  0.24457147  0.55670017  1
  Se  Se141  1  0.57999242  0.58264143  0.04398394  1
  Se  Se142  1  0.58882615  0.57703658  0.55523083  1
  Se  Se143  1  0.59012625  0.92198776  0.05671130  1
  Se  Se144  1  0.59187220  0.91966976  0.56076483  1
  Se  Se145  1  0.91555908  0.25206059  0.05060454  1
  Se  Se146  1  0.91422832  0.26026543  0.56282080  1
  Se  Se147  1  0.91450773  0.57878136  0.05195282  1
  Se  Se148  1  0.92473793  0.58867840  0.56578154  1
  Se  Se149  1  0.91987769  0.92554883  0.05628602  1
  Se  Se150  1  0.91834268  0.91552983  0.54846064  1
  Se  Se151  1  0.07377917  0.25528748  0.43968460  1
  Se  Se152  1  0.08380718  0.24970775  0.94395550  1
  Se  Se153  1  0.08203752  0.57547922  0.44768624  1
  Se  Se154  1  0.08690954  0.57764236  0.94888546  1
  Se  Se155  1  0.07962964  0.92114768  0.44127905  1
  Se  Se156  1  0.06906961  0.92605316  0.93765147  1
  Se  Se157  1  0.41593456  0.25621952  0.45105274  1
  Se  Se158  1  0.41717973  0.25752034  0.93449149  1
  Se  Se159  1  0.42157441  0.58034081  0.45152513  1
  Se  Se160  1  0.42131341  0.57563166  0.94286966  1
  Se  Se161  1  0.41212567  0.92769046  0.44014173  1
  Se  Se162  1  0.40687059  0.92566552  0.94514946  1
  Se  Se163  1  0.74166346  0.25806722  0.44175645  1
  Se  Se164  1  0.75570610  0.24728361  0.94868263  1
  Se  Se165  1  0.74601938  0.58352545  0.43934241  1
  Se  Se166  1  0.75799478  0.58304973  0.93936960  1
  Se  Se167  1  0.75424567  0.91798828  0.44993524  1
  Se  Se168  1  0.74569726  0.91943684  0.93916494  1
  Se  Se169  1  0.25549353  0.07875896  0.44366354  1
  Se  Se170  1  0.24480693  0.08783230  0.95116599  1
  Se  Se171  1  0.24346079  0.41728393  0.45397144  1
  Se  Se172  1  0.24896871  0.41770908  0.94254266  1
  Se  Se173  1  0.25785117  0.73820891  0.44437920  1
  Se  Se174  1  0.25782908  0.74024732  0.93422726  1
  Se  Se175  1  0.58964938  0.08768839  0.44522180  1
  Se  Se176  1  0.58932340  0.07895825  0.93871481  1
  Se  Se177  1  0.58028202  0.42223997  0.45199122  1
  Se  Se178  1  0.58094010  0.41586489  0.94978549  1
  Se  Se179  1  0.59753938  0.74099295  0.43965713  1
  Se  Se180  1  0.59145879  0.73964404  0.93774058  1
  Se  Se181  1  0.92719771  0.07835553  0.44313309  1
  Se  Se182  1  0.90931992  0.09152361  0.94406486  1
  Se  Se183  1  0.91557555  0.41045906  0.44102876  1
  Se  Se184  1  0.91591548  0.41838253  0.94511851  1
  Se  Se185  1  0.92020811  0.74733794  0.45078402  1
  Se  Se186  1  0.91431217  0.73708725  0.93787740  1
  Se  Se187  1  0.23895562  0.24175207  0.30553880  1
  Se  Se188  1  0.24913597  0.25422689  0.80204600  1
  Se  Se189  1  0.24090858  0.57445405  0.31127619  1
  Se  Se190  1  0.25635850  0.58588257  0.80326597  1
  Se  Se191  1  0.23912490  0.90422079  0.30969507  1
  Se  Se192  1  0.24505586  0.91638741  0.81097656  1
  Se  Se193  1  0.59369991  0.27280117  0.30748662  1
  Se  Se194  1  0.58433036  0.24784176  0.80260212  1
  Se  Se195  1  0.57615588  0.57889515  0.30813535  1
  Se  Se196  1  0.58428479  0.57722638  0.80410116  1
  Se  Se197  1  0.58075560  0.91346881  0.30149149  1
  Se  Se198  1  0.58808981  0.91639471  0.79819420  1
  Se  Se199  1  0.92347480  0.25568416  0.29793538  1
  Se  Se200  1  0.91251509  0.25130865  0.80470169  1
  Se  Se201  1  0.91746858  0.58204304  0.30075384  1
  Se  Se202  1  0.94782578  0.60845948  0.80987275  1
  Se  Se203  1  0.91555088  0.91861028  0.30689900  1
  Se  Se204  1  0.92033001  0.92159923  0.80113785  1
  Se  Se205  1  0.07983364  0.07888869  0.29775701  1
  Se  Se206  1  0.07813177  0.08726866  0.80204019  1
  Se  Se207  1  0.08096297  0.41211986  0.30347070  1
  Se  Se208  1  0.08142243  0.41723585  0.80500175  1
  Se  Se209  1  0.07416387  0.74439347  0.30454761  1
  Se  Se210  1  0.08779679  0.75400563  0.80535415  1
  Se  Se211  1  0.42330010  0.09651492  0.31290990  1
  Se  Se212  1  0.41755257  0.08704567  0.81222967  1
  Se  Se213  1  0.41891418  0.42725790  0.31247737  1
  Se  Se214  1  0.41326762  0.41237329  0.80077085  1
  Se  Se215  1  0.42766015  0.75924537  0.30378988  1
  Se  Se216  1  0.42208680  0.74795054  0.79771488  1
  Se  Se217  1  0.75918768  0.09132551  0.30556817  1
  Se  Se218  1  0.74524412  0.07932754  0.80275595  1
  Se  Se219  1  0.75088934  0.41731957  0.30062562  1
  Se  Se220  1  0.73561519  0.40458917  0.80951788  1
  Se  Se221  1  0.75587826  0.75193336  0.31345733  1
  Se  Se222  1  0.75148253  0.74912133  0.79740693  1
  Se  Se223  1  0.24836698  0.08811921  0.18717732  1
  Se  Se224  1  0.23908360  0.09557341  0.68824088  1
  Se  Se225  1  0.24240360  0.42158637  0.18899540  1
  Se  Se226  1  0.25255572  0.41527715  0.70021954  1
  Se  Se227  1  0.23800059  0.75499305  0.18749239  1
  Se  Se228  1  0.25569717  0.75274952  0.70110221  1
  Se  Se229  1  0.59021788  0.08910421  0.20575187  1
  Se  Se230  1  0.58175149  0.08321512  0.69816049  1
  Se  Se231  1  0.58820922  0.42538450  0.19704814  1
  Se  Se232  1  0.58292227  0.41477732  0.69681460  1
  Se  Se233  1  0.57252396  0.75473615  0.18912558  1
  Se  Se234  1  0.59325079  0.74236493  0.69425860  1
  Se  Se235  1  0.91987350  0.08376322  0.19267223  1
  Se  Se236  1  0.91439780  0.08309502  0.69569854  1
  Se  Se237  1  0.91976947  0.41461492  0.19269562  1
  Se  Se238  1  0.91346999  0.42903197  0.71047253  1
  Se  Se239  1  0.90974291  0.74639907  0.19861626  1
  Se  Se240  1  0.92005866  0.75241024  0.69739455  1
  Se  Se241  1  0.08176071  0.25430616  0.19032769  1
  Se  Se242  1  0.07389183  0.25812183  0.69884116  1
  Se  Se243  1  0.07828023  0.58506293  0.19424282  1
  Se  Se244  1  0.08852692  0.58263129  0.69926646  1
  Se  Se245  1  0.07550363  0.91576687  0.19834438  1
  Se  Se246  1  0.08185121  0.92041013  0.69675125  1
  Se  Se247  1  0.43206801  0.24142996  0.19808378  1
  Se  Se248  1  0.41393628  0.25047058  0.69828731  1
  Se  Se249  1  0.41618932  0.57184801  0.19374083  1
  Se  Se250  1  0.41530722  0.58463617  0.69700217  1
  Se  Se251  1  0.42205185  0.91246385  0.19379253  1
  Se  Se252  1  0.42931667  0.91109048  0.68603438  1
  Se  Se253  1  0.75440130  0.25414523  0.19260519  1
  Se  Se254  1  0.74812228  0.25135862  0.70212922  1
  Se  Se255  1  0.75281763  0.57368401  0.18564249  1
  Se  Se256  1  0.76588275  0.56842336  0.70018848  1
  Se  Se257  1  0.74818481  0.91785815  0.19915360  1
  Se  Se258  1  0.75066634  0.91956092  0.69619402  1
