# generated using pymatgen
data_In86Cu29Se144
_symmetry_space_group_name_H-M   'P 1'
_cell_length_a   17.55991593
_cell_length_b   17.55758276
_cell_length_c   23.41561652
_cell_angle_alpha   89.99967655
_cell_angle_beta   89.98820161
_cell_angle_gamma   89.99082877
_symmetry_Int_Tables_number   1
_chemical_formula_structural   In86Cu29Se144
_chemical_formula_sum   'In86 Cu29 Se144'
_cell_volume   7219.26092466
_cell_formula_units_Z   1
loop_
 _symmetry_equiv_pos_site_id
 _symmetry_equiv_pos_as_xyz
  1  'x, y, z'
loop_
 _atom_site_type_symbol
 _atom_site_label
 _atom_site_symmetry_multiplicity
 _atom_site_fract_x
 _atom_site_fract_y
 _atom_site_fract_z
 _atom_site_occupancy
  In  In0  1  0.01293772  0.15892616  0.11861958  1
  In  In1  1  0.00185132  0.15194136  0.63383157  1
  In  In2  1  -0.00220970  0.50950808  0.12594507  1
  In  In3  1  -0.00874397  0.50460737  0.62947817  1
  In  In4  1  -0.01693081  0.82276834  0.13027454  1
  In  In5  1  -0.00468765  0.84402962  0.61327941  1
  In  In6  1  0.33016005  0.16379464  0.11978721  1
  In  In7  1  0.33329999  0.16369826  0.62687760  1
  In  In8  1  0.33601562  0.48908048  0.12137484  1
  In  In9  1  0.33986899  0.48548536  0.63110380  1
  In  In10  1  0.35162521  0.83128165  0.12695376  1
  In  In11  1  0.34702316  0.85078900  0.61752898  1
  In  In12  1  0.65560064  0.15873768  0.12126085  1
  In  In13  1  0.66075114  0.17647076  0.63594714  1
  In  In14  1  0.66556508  0.49408749  0.11127273  1
  In  In15  1  0.66212131  0.49342941  0.61733732  1
  In  In16  1  0.66124889  0.85270662  0.13224935  1
  In  In17  1  0.68820870  0.86124556  0.59400822  1
  In  In18  1  0.17228500  -0.00889096  0.38760277  1
  In  In19  1  0.18298298  0.01200527  0.86434131  1
  In  In20  1  0.15616869  0.31961247  0.38826904  1
  In  In21  1  0.15560173  0.31965725  0.86615724  1
  In  In22  1  0.16412652  0.68950850  0.37785745  1
  In  In23  1  0.15516557  0.67911941  0.86811884  1
  In  In24  1  0.49751558  0.00473003  0.38085369  1
  In  In25  1  0.50414966  0.00923702  0.87267075  1
  In  In26  1  0.50876288  0.32697403  0.38418591  1
  In  In27  1  0.49779825  0.33481273  0.86756156  1
  In  In28  1  0.50801527  0.66670489  0.39272197  1
  In  In29  1  0.50517548  0.66577668  0.87808870  1
  In  In30  1  0.82058463  -0.00621388  0.38166388  1
  In  In31  1  0.82883677  0.00216456  0.85471438  1
  In  In32  1  0.84112937  0.34620198  0.38869594  1
  In  In33  1  0.84004695  0.33642689  0.86063932  1
  In  In34  1  0.83137353  0.66251253  0.38785136  1
  In  In35  1  0.83028761  0.65633267  0.87158819  1
  In  In36  1  0.01082785  0.17281420  0.39224091  1
  In  In37  1  0.00529467  0.17273754  0.86348329  1
  In  In38  1  -0.02791554  0.50551851  0.38926512  1
  In  In39  1  -0.01039571  0.49391154  0.86477084  1
  In  In40  1  0.00768646  0.83354960  0.38493387  1
  In  In41  1  -0.00333435  0.83462369  0.85797595  1
  In  In42  1  0.34609255  0.15547242  0.38404272  1
  In  In43  1  0.33527587  0.16665356  0.87220249  1
  In  In44  1  0.33997688  0.51054914  0.37733996  1
  In  In45  1  0.34849676  0.49891954  0.87222303  1
  In  In46  1  0.32102787  0.84745310  0.38259936  1
  In  In47  1  0.34174282  0.85066226  0.86607596  1
  In  In48  1  0.67046708  0.14099092  0.38315137  1
  In  In49  1  0.65260230  0.15159128  0.85456898  1
  In  In50  1  0.66856272  0.50666296  0.39325303  1
  In  In51  1  0.67521129  0.49901084  0.87757021  1
  In  In52  1  0.65426917  0.85113060  0.39847693  1
  In  In53  1  0.65895832  0.84273341  0.87553575  1
  In  In54  1  0.16915723  0.01609417  0.12096491  1
  In  In55  1  0.16469303  0.00606990  0.61881750  1
  In  In56  1  0.17504110  0.32527769  0.11958515  1
  In  In57  1  0.17460578  0.32114167  0.63320292  1
  In  In58  1  0.14944054  0.66158201  0.13022921  1
  In  In59  1  0.15019279  0.67030846  0.62538725  1
  In  In60  1  0.49863226  -0.00570842  0.12663463  1
  In  In61  1  0.50109552  0.00018420  0.62566660  1
  In  In62  1  0.49708812  0.32906729  0.11047112  1
  In  In63  1  0.50017785  0.33277198  0.62699798  1
  In  In64  1  0.50601841  0.67133249  0.11708254  1
  In  In65  1  0.52033388  0.67742482  0.61163360  1
  In  In66  1  0.82363623  -0.01157039  0.12843523  1
  In  In67  1  0.83173746  0.00185525  0.62956600  1
  In  In68  1  0.81790921  0.33627789  0.11992750  1
  In  In69  1  0.82392496  0.32904271  0.64111789  1
  In  In70  1  0.84161633  0.66527669  0.12679384  1
  In  In71  1  0.83810418  0.67916478  0.60920521  1
  In  In72  1  0.17076320  0.49737834  0.00356536  1
  In  In73  1  0.82614247  0.83210455  0.00280160  1
  In  In74  1  -0.00388501  0.33270402  0.26355856  1
  In  In75  1  0.00087111  -0.00393406  0.25769283  1
  In  In76  1  0.66501511  0.32851243  0.24961737  1
  In  In77  1  0.33346321  0.68043395  0.25448014  1
  In  In78  1  0.67527329  0.67304805  0.26007530  1
  In  In79  1  0.32944056  0.33245013  0.24284277  1
  In  In80  1  0.17278780  0.83932871  -0.00438414  1
  In  In81  1  0.83730024  0.16259634  0.50862948  1
  In  In82  1  0.33059563  0.66193914  0.74648603  1
  In  In83  1  0.17395481  0.49803786  0.50683188  1
  In  In84  1  0.67163477  0.67430860  0.74441618  1
  In  In85  1  0.83076897  0.17455839  -0.01023576  1
  Cu  Cu86  1  0.15882257  0.83557995  0.73933510  1
  Cu  Cu87  1  0.49185036  0.16633186  0.74666993  1
  Cu  Cu88  1  0.00621487  0.67022850  0.50141205  1
  Cu  Cu89  1  0.83323632  0.50759452  0.74681367  1
  Cu  Cu90  1  0.50470680  0.49561852  0.74370042  1
  Cu  Cu91  1  0.33947439  0.66708960  -0.00365516  1
  Cu  Cu92  1  0.16220793  0.49509545  0.74702999  1
  Cu  Cu93  1  0.66413867  0.66437156  -0.00161637  1
  Cu  Cu94  1  0.33517685  0.00439014  0.50369943  1
  Cu  Cu95  1  0.83253663  0.15232273  0.25835299  1
  Cu  Cu96  1  0.14681541  0.51069845  0.25553108  1
  Cu  Cu97  1  -0.00690553  0.66003260  -0.00280321  1
  Cu  Cu98  1  0.16999611  0.15678063  0.74818438  1
  Cu  Cu99  1  0.17442549  0.16392408  0.25180510  1
  Cu  Cu100  1  0.50154948  0.14866073  0.25069923  1
  Cu  Cu101  1  0.49984753  0.84206799  0.25903996  1
  Cu  Cu102  1  0.66867513  0.32904294  0.50927151  1
  Cu  Cu103  1  0.33633793  0.66624111  0.50293344  1
  Cu  Cu104  1  0.66434533  0.33505215  -0.01064716  1
  Cu  Cu105  1  0.33613152  0.33019188  -0.00604325  1
  Cu  Cu106  1  0.83248984  0.83406822  0.73460635  1
  Cu  Cu107  1  0.50377444  0.84428293  0.74618995  1
  Cu  Cu108  1  0.49781789  0.50190040  0.24923925  1
  Cu  Cu109  1  0.83344076  0.50534104  0.25650626  1
  Cu  Cu110  1  0.34547827  0.00629265  -0.00581720  1
  Cu  Cu111  1  0.33813649  0.33033992  0.50878687  1
  Cu  Cu112  1  0.00536900  0.00308360  -0.00871378  1
  Cu  Cu113  1  -0.00509081  0.33365789  -0.01258178  1
  Cu  Cu114  1  0.16180355  0.84328998  0.25585404  1
  Se  Se115  1  0.09105606  0.08600390  0.04254625  1
  Se  Se116  1  0.07344972  0.08267060  0.55263583  1
  Se  Se117  1  0.07228708  0.40682123  0.05825029  1
  Se  Se118  1  0.08667710  0.41474785  0.56996750  1
  Se  Se119  1  0.07395887  0.74682120  0.05315754  1
  Se  Se120  1  0.08727196  0.75803414  0.55069865  1
  Se  Se121  1  0.42278941  0.08561254  0.05704995  1
  Se  Se122  1  0.41953306  0.08654790  0.55657603  1
  Se  Se123  1  0.41725702  0.41916176  0.04519209  1
  Se  Se124  1  0.42231524  0.41868683  0.55458939  1
  Se  Se125  1  0.42081114  0.75315423  0.04946864  1
  Se  Se126  1  0.41912644  0.75298030  0.55325897  1
  Se  Se127  1  0.75222471  0.07863789  0.05586631  1
  Se  Se128  1  0.73552157  0.08285496  0.56368193  1
  Se  Se129  1  0.75263937  0.41661428  0.04201309  1
  Se  Se130  1  0.75775519  0.40816210  0.55988138  1
  Se  Se131  1  0.73759605  0.74255962  0.06558881  1
  Se  Se132  1  0.72262455  0.72941272  0.55178939  1
  Se  Se133  1  0.25113682  0.24610585  0.04692488  1
  Se  Se134  1  0.25079385  0.24704347  0.55603383  1
  Se  Se135  1  0.25633685  0.59718295  0.06204807  1
  Se  Se136  1  0.26032841  0.59043933  0.56831911  1
  Se  Se137  1  0.26423708  0.92542881  0.05777173  1
  Se  Se138  1  0.24861873  0.91798040  0.55210064  1
  Se  Se139  1  0.58917133  0.24911195  0.04857354  1
  Se  Se140  1  0.58183199  0.24737346  0.55812944  1
  Se  Se141  1  0.57788581  0.57922957  0.04922971  1
  Se  Se142  1  0.57402219  0.56870708  0.55011954  1
  Se  Se143  1  0.57919909  0.91261549  0.05569017  1
  Se  Se144  1  0.55981738  0.90343489  0.55310879  1
  Se  Se145  1  0.92319580  0.25640351  0.05915131  1
  Se  Se146  1  0.91933798  0.25310908  0.57150719  1
  Se  Se147  1  0.91094862  0.57837729  0.05263181  1
  Se  Se148  1  0.92258798  0.58339264  0.55106196  1
  Se  Se149  1  0.92771126  0.92501842  0.05586973  1
  Se  Se150  1  0.88761633  0.90845985  0.55316418  1
  Se  Se151  1  0.08156013  0.25229974  0.46697129  1
  Se  Se152  1  0.08046789  0.24541205  0.94387624  1
  Se  Se153  1  0.08644091  0.58601308  0.44147294  1
  Se  Se154  1  0.08076627  0.58515190  0.93933753  1
  Se  Se155  1  0.08167721  0.92002331  0.45428221  1
  Se  Se156  1  0.08075955  0.91968802  0.93027279  1
  Se  Se157  1  0.41941429  0.24913124  0.44996643  1
  Se  Se158  1  0.42135857  0.24913517  0.93950556  1
  Se  Se159  1  0.41971415  0.57852190  0.45356917  1
  Se  Se160  1  0.42159373  0.58171249  0.94529363  1
  Se  Se161  1  0.41561323  0.91756771  0.44877076  1
  Se  Se162  1  0.42396808  0.91829803  0.94150876  1
  Se  Se163  1  0.74541384  0.25207042  0.44172889  1
  Se  Se164  1  0.74068210  0.25602974  0.92587571  1
  Se  Se165  1  0.77854882  0.55611863  0.45413751  1
  Se  Se166  1  0.75301575  0.58477302  0.94815910  1
  Se  Se167  1  0.75505990  0.91884664  0.46327387  1
  Se  Se168  1  0.75105762  0.92969050  0.93916767  1
  Se  Se169  1  0.24908754  0.08705772  0.45026229  1
  Se  Se170  1  0.25382032  0.08382170  0.94424698  1
  Se  Se171  1  0.26173863  0.40851532  0.44133180  1
  Se  Se172  1  0.25257837  0.41053350  0.93490708  1
  Se  Se173  1  0.25212326  0.75178071  0.45178072  1
  Se  Se174  1  0.26013891  0.74550907  0.93406857  1
  Se  Se175  1  0.56948156  0.09348824  0.45243526  1
  Se  Se176  1  0.59545334  0.08292788  0.94083200  1
  Se  Se177  1  0.58584609  0.41321668  0.45235229  1
  Se  Se178  1  0.57948279  0.41971028  0.93790693  1
  Se  Se179  1  0.60635538  0.73356610  0.45606753  1
  Se  Se180  1  0.58701390  0.75145093  0.94416719  1
  Se  Se181  1  0.92273708  0.07256499  0.44390967  1
  Se  Se182  1  0.91822374  0.07756080  0.93323048  1
  Se  Se183  1  0.93966690  0.39814951  0.45904122  1
  Se  Se184  1  0.91055466  0.41819955  0.93937465  1
  Se  Se185  1  0.91851633  0.75088458  0.44921253  1
  Se  Se186  1  0.92035600  0.74916307  0.93794110  1
  Se  Se187  1  0.24866436  0.24794301  0.31383030  1
  Se  Se188  1  0.25011341  0.24557239  0.80147760  1
  Se  Se189  1  0.24132337  0.58329820  0.30977790  1
  Se  Se190  1  0.23972615  0.57523264  0.81100207  1
  Se  Se191  1  0.24814095  0.92465955  0.30523510  1
  Se  Se192  1  0.24598025  0.91208431  0.79653511  1
  Se  Se193  1  0.57912829  0.23478505  0.30968555  1
  Se  Se194  1  0.57771059  0.25277395  0.79628991  1
  Se  Se195  1  0.57894829  0.57587156  0.31312701  1
  Se  Se196  1  0.58173856  0.58058283  0.80297162  1
  Se  Se197  1  0.58490710  0.91971371  0.31449101  1
  Se  Se198  1  0.58743985  0.92544479  0.80168743  1
  Se  Se199  1  0.90612812  0.23616159  0.31966875  1
  Se  Se200  1  0.92153530  0.25120441  0.79597122  1
  Se  Se201  1  0.91381824  0.58925450  0.30989424  1
  Se  Se202  1  0.91887302  0.59113794  0.79844429  1
  Se  Se203  1  0.91066371  0.90864803  0.31551362  1
  Se  Se204  1  0.91584492  0.91807853  0.79015564  1
  Se  Se205  1  0.08990431  0.09116529  0.31478089  1
  Se  Se206  1  0.08102204  0.07568954  0.80023527  1
  Se  Se207  1  0.08493954  0.42454779  0.32239139  1
  Se  Se208  1  0.07827439  0.41173610  0.80146326  1
  Se  Se209  1  0.07842267  0.75665718  0.30348804  1
  Se  Se210  1  0.07742518  0.74787842  0.79036625  1
  Se  Se211  1  0.41069431  0.07547614  0.30466223  1
  Se  Se212  1  0.41278646  0.08009023  0.80229054  1
  Se  Se213  1  0.42060155  0.41783511  0.30849172  1
  Se  Se214  1  0.41480127  0.41728273  0.79565948  1
  Se  Se215  1  0.42596859  0.75738017  0.32123015  1
  Se  Se216  1  0.42800855  0.75360610  0.80249604  1
  Se  Se217  1  0.74430306  0.06863117  0.30379282  1
  Se  Se218  1  0.76193530  0.10108925  0.78905898  1
  Se  Se219  1  0.75208340  0.42033740  0.31326471  1
  Se  Se220  1  0.74901682  0.42450965  0.80026906  1
  Se  Se221  1  0.74850382  0.76122054  0.32855609  1
  Se  Se222  1  0.75997838  0.76336846  0.80856372  1
  Se  Se223  1  0.25542607  0.08288103  0.19557577  1
  Se  Se224  1  0.25257887  0.07518096  0.69314409  1
  Se  Se225  1  0.22966197  0.43106459  0.19349470  1
  Se  Se226  1  0.25169667  0.41330566  0.70022095  1
  Se  Se227  1  0.23812679  0.76115623  0.18913235  1
  Se  Se228  1  0.24953297  0.75741800  0.68442281  1
  Se  Se229  1  0.58963143  0.07226079  0.19591555  1
  Se  Se230  1  0.57968104  0.08237463  0.69792225  1
  Se  Se231  1  0.57427425  0.41949445  0.18754339  1
  Se  Se232  1  0.59120046  0.41220294  0.69405213  1
  Se  Se233  1  0.57358356  0.75297232  0.19929133  1
  Se  Se234  1  0.58619894  0.76751703  0.68655723  1
  Se  Se235  1  0.91688608  0.08746554  0.18957265  1
  Se  Se236  1  0.90403924  0.08678674  0.70184501  1
  Se  Se237  1  0.90654559  0.41716939  0.19460256  1
  Se  Se238  1  0.91671345  0.41747464  0.69999114  1
  Se  Se239  1  0.90654815  0.74652568  0.20342623  1
  Se  Se240  1  0.91832191  0.75223725  0.68370335  1
  Se  Se241  1  0.08864725  0.24625659  0.19605369  1
  Se  Se242  1  0.08452449  0.24268879  0.69883776  1
  Se  Se243  1  0.06317826  0.59228599  0.20344780  1
  Se  Se244  1  0.08109270  0.58307348  0.69764128  1
  Se  Se245  1  0.08579619  0.91456762  0.18383241  1
  Se  Se246  1  0.07773945  0.92142631  0.68639037  1
  Se  Se247  1  0.42938401  0.24105688  0.19117564  1
  Se  Se248  1  0.41153216  0.25331742  0.69409739  1
  Se  Se249  1  0.41664136  0.58265973  0.19096459  1
  Se  Se250  1  0.43117721  0.58533528  0.68597653  1
  Se  Se251  1  0.41439997  0.91836715  0.20165915  1
  Se  Se252  1  0.41238070  0.92518960  0.69907626  1
  Se  Se253  1  0.75854890  0.23532174  0.19292399  1
  Se  Se254  1  0.75103884  0.23942360  0.71054792  1
  Se  Se255  1  0.74615875  0.57220411  0.19153883  1
  Se  Se256  1  0.75639832  0.58328834  0.68216802  1
  Se  Se257  1  0.76733137  0.89521717  0.20061999  1
  Se  Se258  1  0.73850949  0.91419178  0.68962795  1
