# generated using pymatgen
data_In86Cu29Se144
_symmetry_space_group_name_H-M   'P 1'
_cell_length_a   17.57760232
_cell_length_b   17.57965829
_cell_length_c   23.44037519
_cell_angle_alpha   90.01741514
_cell_angle_beta   89.99426603
_cell_angle_gamma   89.99456573
_symmetry_Int_Tables_number   1
_chemical_formula_structural   In86Cu29Se144
_chemical_formula_sum   'In86 Cu29 Se144'
_cell_volume   7243.26873749
_cell_formula_units_Z   1
loop_
 _symmetry_equiv_pos_site_id
 _symmetry_equiv_pos_as_xyz
  1  'x, y, z'
loop_
 _atom_site_type_symbol
 _atom_site_label
 _atom_site_symmetry_multiplicity
 _atom_site_fract_x
 _atom_site_fract_y
 _atom_site_fract_z
 _atom_site_occupancy
  In  In0  1  0.00061407  0.16268572  0.12403241  1
  In  In1  1  -0.00066019  0.16362672  0.63563071  1
  In  In2  1  0.00328806  0.49371450  0.12115132  1
  In  In3  1  -0.01591161  0.49854947  0.63180676  1
  In  In4  1  0.01553004  0.83975269  0.12149080  1
  In  In5  1  0.00824368  0.84413433  0.62098868  1
  In  In6  1  0.32364292  0.15393320  0.11427220  1
  In  In7  1  0.33027703  0.16059024  0.62353432  1
  In  In8  1  0.33386446  0.50322377  0.10959080  1
  In  In9  1  0.35078517  0.50302736  0.62472970  1
  In  In10  1  0.33975946  0.84495130  0.12371165  1
  In  In11  1  0.32204599  0.84036024  0.63798854  1
  In  In12  1  0.65929913  0.15495922  0.11796695  1
  In  In13  1  0.65479989  0.16791988  0.62253990  1
  In  In14  1  0.65922245  0.51279533  0.12433865  1
  In  In15  1  0.67044497  0.50944482  0.62038236  1
  In  In16  1  0.66296282  0.82998741  0.13598057  1
  In  In17  1  0.67514403  0.82525235  0.62833556  1
  In  In18  1  0.15679748  -0.00420609  0.36932699  1
  In  In19  1  0.17000449  -0.00124752  0.87711877  1
  In  In20  1  0.15413016  0.34018248  0.36792389  1
  In  In21  1  0.16005955  0.33955721  0.87937202  1
  In  In22  1  0.17719431  0.67460893  0.37901514  1
  In  In23  1  0.17575073  0.66633452  0.88375963  1
  In  In24  1  0.51029951  0.00525491  0.36830893  1
  In  In25  1  0.50362276  0.00346013  0.86962940  1
  In  In26  1  0.49562813  0.33370622  0.38966123  1
  In  In27  1  0.50045335  0.33317471  0.88394045  1
  In  In28  1  0.49788021  0.65839361  0.37713021  1
  In  In29  1  0.49762281  0.66388770  0.87243218  1
  In  In30  1  0.82767413  -0.00232773  0.36795383  1
  In  In31  1  0.84176752  0.00628183  0.86959453  1
  In  In32  1  0.84797139  0.32892378  0.37408570  1
  In  In33  1  0.82581566  0.32187347  0.87494500  1
  In  In34  1  0.82292747  0.67878273  0.38628965  1
  In  In35  1  0.82724048  0.66579658  0.86869130  1
  In  In36  1  -0.01183192  0.16580951  0.35627107  1
  In  In37  1  -0.00006357  0.16554664  0.87897045  1
  In  In38  1  -0.00382114  0.48761430  0.37320525  1
  In  In39  1  0.01206254  0.50438294  0.87021572  1
  In  In40  1  -0.00841435  0.83971849  0.38396203  1
  In  In41  1  0.00493291  0.85001065  0.87127051  1
  In  In42  1  0.34804597  0.16245368  0.37661791  1
  In  In43  1  0.34178233  0.15382538  0.88142209  1
  In  In44  1  0.33551203  0.50851191  0.38103064  1
  In  In45  1  0.33358125  0.51362590  0.88533029  1
  In  In46  1  0.32067599  0.83352830  0.37834564  1
  In  In47  1  0.31737093  0.82202310  0.86003509  1
  In  In48  1  0.66178054  0.15279394  0.37068755  1
  In  In49  1  0.67537481  0.16003844  0.88568178  1
  In  In50  1  0.65741805  0.51010877  0.38084251  1
  In  In51  1  0.65866778  0.50161183  0.87583499  1
  In  In52  1  0.67621103  0.84573607  0.36647735  1
  In  In53  1  0.66061031  0.83121035  0.86496727  1
  In  In54  1  0.16574475  0.00119692  0.12481093  1
  In  In55  1  0.17188659  -0.01402012  0.64135306  1
  In  In56  1  0.16231273  0.32555287  0.11506962  1
  In  In57  1  0.16154714  0.32229794  0.63119644  1
  In  In58  1  0.17963963  0.67558127  0.10184110  1
  In  In59  1  0.16589914  0.68756508  0.63258313  1
  In  In60  1  0.48978196  -0.00072556  0.13354992  1
  In  In61  1  0.49506621  0.00765735  0.62986046  1
  In  In62  1  0.50029913  0.32901570  0.11753232  1
  In  In63  1  0.49482362  0.33715622  0.60895246  1
  In  In64  1  0.51006427  0.67061907  0.11605785  1
  In  In65  1  0.50967176  0.66276759  0.63281019  1
  In  In66  1  0.82315467  0.01196908  0.13713073  1
  In  In67  1  0.84340531  -0.00884641  0.62947174  1
  In  In68  1  0.85170173  0.33031078  0.12990190  1
  In  In69  1  0.83554188  0.34640394  0.62693768  1
  In  In70  1  0.82134226  0.66308746  0.12790061  1
  In  In71  1  0.82105232  0.65682079  0.61910766  1
  In  In72  1  0.82958871  0.16471369  0.49147337  1
  In  In73  1  0.32968164  0.33346641  0.75128255  1
  In  In74  1  0.49276630  0.83059844  -0.00271845  1
  In  In75  1  0.33945264  0.67208838  0.24950923  1
  In  In76  1  0.16648078  0.50077568  0.49677702  1
  In  In77  1  0.32900247  0.32905505  0.25102605  1
  In  In78  1  0.16646510  0.16672437  0.50373727  1
  In  In79  1  0.50012994  0.83337395  0.50241060  1
  In  In80  1  0.67454618  0.32566255  0.25161028  1
  In  In81  1  0.83311545  0.83608618  0.00537656  1
  In  In82  1  -0.00355085  0.67060980  0.75104712  1
  In  In83  1  0.83214727  0.49541467  0.00023551  1
  In  In84  1  -0.00155125  0.66651685  0.24623267  1
  In  In85  1  0.66955979  0.33475139  0.74644226  1
  Cu  Cu86  1  0.16228532  0.49856336  0.24247746  1
  Cu  Cu87  1  0.67014419  0.32741201  0.00285411  1
  Cu  Cu88  1  0.50100501  0.83930534  0.74802501  1
  Cu  Cu89  1  0.49888700  0.16113649  0.24777054  1
  Cu  Cu90  1  0.50340047  0.16771354  0.75083353  1
  Cu  Cu91  1  0.33511507  0.32888667  -0.00402737  1
  Cu  Cu92  1  0.00376658  0.00786253  -0.00173490  1
  Cu  Cu93  1  0.66892116  -0.00287478  0.49436396  1
  Cu  Cu94  1  0.17071220  0.50500306  0.75769418  1
  Cu  Cu95  1  0.82766517  0.50449390  0.24978517  1
  Cu  Cu96  1  0.00549252  -0.00603911  0.50102608  1
  Cu  Cu97  1  0.50170589  0.50398207  0.75127129  1
  Cu  Cu98  1  0.33259142  0.67060412  0.50531629  1
  Cu  Cu99  1  0.83362182  0.16117487  0.75605146  1
  Cu  Cu100  1  -0.00218148  0.33216794  0.49903337  1
  Cu  Cu101  1  0.83576335  0.83565501  0.25514838  1
  Cu  Cu102  1  0.16671351  0.16316602  0.24037428  1
  Cu  Cu103  1  0.00352553  0.33002521  0.00006138  1
  Cu  Cu104  1  0.66529546  0.33861937  0.50249619  1
  Cu  Cu105  1  -0.00080381  0.66576690  0.50881310  1
  Cu  Cu106  1  0.66460740  -0.00505081  -0.00065615  1
  Cu  Cu107  1  0.82929729  0.83262470  0.74679066  1
  Cu  Cu108  1  0.00104426  0.67057279  -0.00651564  1
  Cu  Cu109  1  0.16759370  0.83872241  0.25012064  1
  Cu  Cu110  1  0.33091855  -0.00288246  0.00004146  1
  Cu  Cu111  1  0.66528604  0.66625633  0.50244480  1
  Cu  Cu112  1  0.50316048  0.50221317  0.25137808  1
  Cu  Cu113  1  0.33338743  -0.00074322  0.50786351  1
  Cu  Cu114  1  0.16171282  0.16190493  0.75613792  1
  Se  Se115  1  0.08917172  0.08736624  0.05369252  1
  Se  Se116  1  0.07983341  0.07498736  0.56438145  1
  Se  Se117  1  0.08579320  0.41897758  0.04916128  1
  Se  Se118  1  0.07843682  0.41055714  0.56001195  1
  Se  Se119  1  0.08253432  0.75739927  0.04490914  1
  Se  Se120  1  0.08548892  0.75252364  0.55389655  1
  Se  Se121  1  0.42084330  0.07573641  0.05354869  1
  Se  Se122  1  0.41895695  0.08615008  0.55410785  1
  Se  Se123  1  0.41870001  0.41208241  0.04978510  1
  Se  Se124  1  0.40993161  0.42174399  0.54608594  1
  Se  Se125  1  0.40177504  0.73936000  0.05617477  1
  Se  Se126  1  0.41214631  0.74907950  0.56752139  1
  Se  Se127  1  0.75148698  0.07614675  0.05249540  1
  Se  Se128  1  0.74693661  0.07745292  0.55865098  1
  Se  Se129  1  0.74581179  0.40873981  0.06680578  1
  Se  Se130  1  0.75102976  0.41845891  0.55496688  1
  Se  Se131  1  0.73705967  0.74395334  0.05693277  1
  Se  Se132  1  0.75122432  0.75195067  0.55087644  1
  Se  Se133  1  0.24998067  0.24646595  0.04849571  1
  Se  Se134  1  0.25765470  0.26264919  0.55753286  1
  Se  Se135  1  0.24323532  0.57306428  0.04156946  1
  Se  Se136  1  0.24910019  0.58947320  0.56350142  1
  Se  Se137  1  0.24817215  0.91566832  0.05548935  1
  Se  Se138  1  0.24859198  0.91815677  0.56068217  1
  Se  Se139  1  0.58162315  0.24360612  0.05085219  1
  Se  Se140  1  0.58212286  0.24863160  0.54835761  1
  Se  Se141  1  0.57280167  0.57237268  0.04854574  1
  Se  Se142  1  0.57801099  0.58450390  0.55344918  1
  Se  Se143  1  0.58527337  0.91687270  0.06066516  1
  Se  Se144  1  0.59060134  0.92335876  0.56148749  1
  Se  Se145  1  0.91922858  0.24863754  0.05351744  1
  Se  Se146  1  0.92007988  0.24780111  0.55842731  1
  Se  Se147  1  0.92162884  0.59471910  0.05764050  1
  Se  Se148  1  0.91519184  0.57783582  0.55471576  1
  Se  Se149  1  0.92276993  0.92907864  0.06084793  1
  Se  Se150  1  0.91472088  0.91465938  0.55116514  1
  Se  Se151  1  0.07329371  0.24946905  0.43789039  1
  Se  Se152  1  0.08696671  0.24698588  0.94651858  1
  Se  Se153  1  0.07366464  0.59194742  0.43789991  1
  Se  Se154  1  0.08410135  0.58216599  0.94573602  1
  Se  Se155  1  0.09063461  0.91301959  0.44708112  1
  Se  Se156  1  0.08444610  0.91855019  0.94833177  1
  Se  Se157  1  0.41008693  0.24863411  0.45078424  1
  Se  Se158  1  0.42119788  0.24293882  0.94809596  1
  Se  Se159  1  0.41580189  0.58705438  0.45258606  1
  Se  Se160  1  0.43726882  0.57502166  0.94842232  1
  Se  Se161  1  0.41198897  0.92408860  0.44183944  1
  Se  Se162  1  0.40886956  0.92092491  0.93497050  1
  Se  Se163  1  0.73850457  0.25957311  0.43577764  1
  Se  Se164  1  0.75732588  0.24500140  0.95365150  1
  Se  Se165  1  0.75015009  0.58139229  0.44976195  1
  Se  Se166  1  0.74436033  0.59085206  0.94513002  1
  Se  Se167  1  0.75606737  0.91609544  0.44409066  1
  Se  Se168  1  0.74526852  0.91823883  0.93739006  1
  Se  Se169  1  0.25371441  0.07602856  0.44238950  1
  Se  Se170  1  0.24778010  0.08412530  0.94930149  1
  Se  Se171  1  0.25289771  0.40547951  0.43786245  1
  Se  Se172  1  0.25397213  0.41539960  0.94360766  1
  Se  Se173  1  0.24782225  0.75467270  0.45496906  1
  Se  Se174  1  0.25681267  0.75636176  0.94671666  1
  Se  Se175  1  0.58180204  0.08218932  0.44739461  1
  Se  Se176  1  0.58080548  0.07926085  0.94651420  1
  Se  Se177  1  0.58053100  0.42292679  0.45008401  1
  Se  Se178  1  0.59124882  0.41288843  0.94818664  1
  Se  Se179  1  0.59081318  0.74899268  0.43902897  1
  Se  Se180  1  0.59166324  0.74616128  0.94155307  1
  Se  Se181  1  0.92942486  0.07702032  0.43905541  1
  Se  Se182  1  0.91189289  0.08458513  0.94744249  1
  Se  Se183  1  0.91358591  0.41749661  0.44886593  1
  Se  Se184  1  0.92412781  0.41108343  0.93783280  1
  Se  Se185  1  0.91801514  0.74965649  0.45215161  1
  Se  Se186  1  0.91808336  0.74921757  0.93600035  1
  Se  Se187  1  0.23967524  0.23770821  0.31121881  1
  Se  Se188  1  0.24633005  0.24211235  0.81442903  1
  Se  Se189  1  0.24193990  0.57618412  0.30528131  1
  Se  Se190  1  0.25426526  0.58672211  0.80923311  1
  Se  Se191  1  0.25172861  0.91926499  0.30454463  1
  Se  Se192  1  0.25899283  0.93249437  0.80355477  1
  Se  Se193  1  0.56937348  0.24782043  0.30973095  1
  Se  Se194  1  0.58295934  0.24702108  0.81131111  1
  Se  Se195  1  0.58371897  0.58752982  0.30364775  1
  Se  Se196  1  0.58712344  0.58621707  0.80270674  1
  Se  Se197  1  0.58615292  0.91903857  0.30106490  1
  Se  Se198  1  0.58636041  0.92306149  0.79904711  1
  Se  Se199  1  0.91812237  0.26240991  0.29295754  1
  Se  Se200  1  0.91539062  0.24681985  0.80774796  1
  Se  Se201  1  0.90909568  0.58333151  0.31177935  1
  Se  Se202  1  0.90808831  0.57174567  0.80484685  1
  Se  Se203  1  0.92263232  0.91730326  0.30539242  1
  Se  Se204  1  0.91351590  0.91524687  0.79990215  1
  Se  Se205  1  0.08362699  0.08351173  0.29897664  1
  Se  Se206  1  0.07922503  0.07927851  0.81006974  1
  Se  Se207  1  0.07635404  0.41849988  0.29500250  1
  Se  Se208  1  0.08603399  0.41505749  0.80100422  1
  Se  Se209  1  0.08819211  0.75496134  0.30934640  1
  Se  Se210  1  0.08946957  0.75295181  0.81206364  1
  Se  Se211  1  0.41467837  0.07871857  0.30137982  1
  Se  Se212  1  0.41675520  0.08504842  0.80119772  1
  Se  Se213  1  0.42082084  0.42250484  0.30990345  1
  Se  Se214  1  0.42255436  0.42123519  0.81064150  1
  Se  Se215  1  0.42326596  0.76016383  0.31414113  1
  Se  Se216  1  0.42298784  0.75208932  0.80282220  1
  Se  Se217  1  0.76488547  0.10053145  0.30512816  1
  Se  Se218  1  0.74420344  0.08213861  0.80662772  1
  Se  Se219  1  0.75278737  0.42416382  0.31372257  1
  Se  Se220  1  0.75587700  0.42357320  0.80921796  1
  Se  Se221  1  0.75283133  0.74753641  0.30404185  1
  Se  Se222  1  0.74758376  0.74771326  0.79944061  1
  Se  Se223  1  0.25535849  0.07893987  0.19456486  1
  Se  Se224  1  0.24858413  0.08917998  0.69743225  1
  Se  Se225  1  0.24813019  0.42121129  0.18582376  1
  Se  Se226  1  0.24430152  0.42693233  0.68920784  1
  Se  Se227  1  0.24127002  0.75354415  0.18924502  1
  Se  Se228  1  0.25420210  0.74694302  0.70650737  1
  Se  Se229  1  0.58505857  0.07970851  0.19565441  1
  Se  Se230  1  0.58691977  0.08426897  0.69759851  1
  Se  Se231  1  0.57873470  0.41524280  0.19357787  1
  Se  Se232  1  0.57268172  0.41901125  0.68740877  1
  Se  Se233  1  0.57610440  0.74244377  0.19620439  1
  Se  Se234  1  0.58661106  0.75255809  0.69875022  1
  Se  Se235  1  0.92992239  0.07427573  0.19531227  1
  Se  Se236  1  0.91675241  0.07823451  0.70089559  1
  Se  Se237  1  0.91685597  0.42851077  0.19678602  1
  Se  Se238  1  0.92547793  0.40296006  0.70152573  1
  Se  Se239  1  0.91071400  0.76064276  0.18634104  1
  Se  Se240  1  0.90921290  0.75359938  0.68432775  1
  Se  Se241  1  0.08506191  0.25157432  0.19106892  1
  Se  Se242  1  0.08050641  0.24858775  0.70390882  1
  Se  Se243  1  0.09464707  0.58873067  0.18184065  1
  Se  Se244  1  0.08950641  0.57859325  0.69106064  1
  Se  Se245  1  0.08297799  0.92109375  0.19786679  1
  Se  Se246  1  0.07414125  0.91457166  0.70308508  1
  Se  Se247  1  0.41774139  0.24165829  0.18839961  1
  Se  Se248  1  0.42480905  0.24930079  0.69006149  1
  Se  Se249  1  0.41941813  0.57448502  0.18867879  1
  Se  Se250  1  0.41603293  0.58772287  0.70024606  1
  Se  Se251  1  0.42168460  0.90483721  0.20106545  1
  Se  Se252  1  0.41520725  0.92322291  0.69809083  1
  Se  Se253  1  0.75511532  0.23955381  0.18515464  1
  Se  Se254  1  0.75937473  0.23929342  0.68847986  1
  Se  Se255  1  0.74085887  0.58561410  0.19967594  1
  Se  Se256  1  0.75210212  0.57680968  0.69553175  1
  Se  Se257  1  0.74889373  0.91488909  0.19985672  1
  Se  Se258  1  0.74699857  0.92010437  0.69521015  1
