# generated using pymatgen
data_In86Cu29Se144
_symmetry_space_group_name_H-M   'P 1'
_cell_length_a   17.57839153
_cell_length_b   17.58441198
_cell_length_c   23.44940669
_cell_angle_alpha   90.00419167
_cell_angle_beta   90.01314798
_cell_angle_gamma   89.99708277
_symmetry_Int_Tables_number   1
_chemical_formula_structural   In86Cu29Se144
_chemical_formula_sum   'In86 Cu29 Se144'
_cell_volume   7248.34454848
_cell_formula_units_Z   1
loop_
 _symmetry_equiv_pos_site_id
 _symmetry_equiv_pos_as_xyz
  1  'x, y, z'
loop_
 _atom_site_type_symbol
 _atom_site_label
 _atom_site_symmetry_multiplicity
 _atom_site_fract_x
 _atom_site_fract_y
 _atom_site_fract_z
 _atom_site_occupancy
  In  In0  1  0.00692846  0.15886613  0.12595338  1
  In  In1  1  0.00056452  0.16940928  0.62526283  1
  In  In2  1  -0.00172608  0.50727658  0.13460082  1
  In  In3  1  -0.00277731  0.49070980  0.61964760  1
  In  In4  1  -0.00843172  0.82710484  0.11589997  1
  In  In5  1  0.00371931  0.84037816  0.62244123  1
  In  In6  1  0.33367603  0.16895537  0.12627632  1
  In  In7  1  0.32917142  0.15431408  0.60360111  1
  In  In8  1  0.31824867  0.50766677  0.14292044  1
  In  In9  1  0.32869379  0.51411204  0.62305797  1
  In  In10  1  0.32299044  0.82910319  0.11747564  1
  In  In11  1  0.32339277  0.82857993  0.62394652  1
  In  In12  1  0.66638927  0.18224568  0.12431142  1
  In  In13  1  0.67609304  0.17395198  0.62175348  1
  In  In14  1  0.66916919  0.48331985  0.12559536  1
  In  In15  1  0.66617046  0.49889571  0.63477185  1
  In  In16  1  0.67323588  0.84259297  0.10889424  1
  In  In17  1  0.67191913  0.82349278  0.63379337  1
  In  In18  1  0.16934699  0.00193614  0.39048050  1
  In  In19  1  0.15405919  0.00806147  0.88315570  1
  In  In20  1  0.16007035  0.32804047  0.37286305  1
  In  In21  1  0.15294842  0.33474492  0.87411977  1
  In  In22  1  0.16288453  0.66388480  0.37662144  1
  In  In23  1  0.18049151  0.67150800  0.86892670  1
  In  In24  1  0.51109467  0.00552128  0.37682197  1
  In  In25  1  0.51032401  -0.00016557  0.89225042  1
  In  In26  1  0.49085389  0.33092040  0.36812449  1
  In  In27  1  0.50505417  0.31705342  0.87808200  1
  In  In28  1  0.48711844  0.67412769  0.37316398  1
  In  In29  1  0.50599838  0.67507924  0.86918477  1
  In  In30  1  0.83808557  -0.00445589  0.38372590  1
  In  In31  1  0.83717167  -0.02161692  0.87380556  1
  In  In32  1  0.83689064  0.32434938  0.36421260  1
  In  In33  1  0.83951743  0.34221802  0.87130989  1
  In  In34  1  0.86364340  0.65698952  0.38323330  1
  In  In35  1  0.82412346  0.67757673  0.88036173  1
  In  In36  1  -0.00804785  0.17528088  0.37990907  1
  In  In37  1  0.00124303  0.17156056  0.86998432  1
  In  In38  1  0.02031497  0.50917005  0.35339442  1
  In  In39  1  0.00015633  0.48643515  0.87393085  1
  In  In40  1  0.01437783  0.81905424  0.39075657  1
  In  In41  1  -0.01283851  0.84807115  0.88965727  1
  In  In42  1  0.32083047  0.17709830  0.39047922  1
  In  In43  1  0.33820027  0.16075343  0.88324327  1
  In  In44  1  0.29833798  0.47732732  0.34753682  1
  In  In45  1  0.32068567  0.50444965  0.87409432  1
  In  In46  1  0.32838389  0.81763615  0.36977954  1
  In  In47  1  0.33639169  0.83227253  0.87852570  1
  In  In48  1  0.66888117  0.17349729  0.37929636  1
  In  In49  1  0.65461616  0.16176337  0.87525124  1
  In  In50  1  0.68164776  0.49289398  0.37447968  1
  In  In51  1  0.67656599  0.51145971  0.86968453  1
  In  In52  1  0.67292287  0.84265252  0.37658972  1
  In  In53  1  0.68318794  0.82067539  0.88809441  1
  In  In54  1  0.14990950  0.00142145  0.11071030  1
  In  In55  1  0.16209005  -0.00985428  0.61589055  1
  In  In56  1  0.17182136  0.32792856  0.13794171  1
  In  In57  1  0.15577687  0.32379152  0.61519006  1
  In  In58  1  0.15650193  0.67027858  0.13566408  1
  In  In59  1  0.17039671  0.68157350  0.61520427  1
  In  In60  1  0.50730141  0.00501781  0.10825621  1
  In  In61  1  0.48842802  0.00538698  0.62095996  1
  In  In62  1  0.49972554  0.32563041  0.13290641  1
  In  In63  1  0.50878895  0.32796744  0.62707298  1
  In  In64  1  0.48921167  0.67022040  0.12157853  1
  In  In65  1  0.49849663  0.66910160  0.63507489  1
  In  In66  1  0.84649017  -0.00526589  0.11839271  1
  In  In67  1  0.83774299  0.00974324  0.62504190  1
  In  In68  1  0.82220922  0.33467429  0.13179983  1
  In  In69  1  0.84366129  0.32760437  0.63136345  1
  In  In70  1  0.84271221  0.67292788  0.11857872  1
  In  In71  1  0.83214226  0.65968127  0.62427522  1
  In  In72  1  0.49774178  0.83961735  0.50224738  1
  In  In73  1  0.49713573  0.49442238  0.00830389  1
  In  In74  1  0.15991763  0.49844842  0.00590149  1
  In  In75  1  0.33607218  0.33288458  0.74992345  1
  In  In76  1  0.00109835  0.66842342  0.74694795  1
  In  In77  1  0.49186437  0.49904332  0.49750887  1
  In  In78  1  0.66933828  -0.00079644  0.75785832  1
  In  In79  1  0.84362008  0.49542306  0.50037644  1
  In  In80  1  0.82735951  0.15931545  -0.00027445  1
  In  In81  1  0.33144279  0.00029652  0.74462072  1
  In  In82  1  -0.00422630  0.00257436  0.24836600  1
  In  In83  1  0.66700368  0.66581028  0.25231412  1
  In  In84  1  0.67234670  0.00471214  0.24460758  1
  In  In85  1  0.33489233  0.00109274  0.24856174  1
  Cu  Cu86  1  0.50092162  0.50012185  0.75101946  1
  Cu  Cu87  1  0.66822335  0.33587823  0.00294659  1
  Cu  Cu88  1  0.32278280  0.66107019  0.49428666  1
  Cu  Cu89  1  0.33027464  0.33828055  0.49117904  1
  Cu  Cu90  1  0.67010052  0.32824103  0.49996810  1
  Cu  Cu91  1  0.83423816  0.49430622  0.24955536  1
  Cu  Cu92  1  0.49518360  0.17345057  0.25338556  1
  Cu  Cu93  1  -0.00159568  0.00561252  0.50376787  1
  Cu  Cu94  1  0.16615224  0.50055329  0.74852215  1
  Cu  Cu95  1  0.32991368  0.32645531  0.00918649  1
  Cu  Cu96  1  0.67203168  0.66448014  -0.00292722  1
  Cu  Cu97  1  0.16671806  0.16592438  0.25374219  1
  Cu  Cu98  1  0.50151878  0.16672452  0.75021878  1
  Cu  Cu99  1  0.84400065  0.82313300  0.25015544  1
  Cu  Cu100  1  0.00327786  0.66243925  0.00282284  1
  Cu  Cu101  1  0.66754986  0.67067883  0.50738602  1
  Cu  Cu102  1  0.67142783  0.00624361  0.50235769  1
  Cu  Cu103  1  0.83186015  0.50141862  0.74987299  1
  Cu  Cu104  1  0.16289554  0.82838271  0.25098868  1
  Cu  Cu105  1  0.00129141  0.33274398  0.49515491  1
  Cu  Cu106  1  0.50122217  0.82424565  0.75765012  1
  Cu  Cu107  1  0.50257762  0.50070336  0.24518044  1
  Cu  Cu108  1  -0.00353733  0.32763117  -0.00143172  1
  Cu  Cu109  1  0.49705853  0.83165300  0.24069402  1
  Cu  Cu110  1  0.16035549  0.16864319  0.74879463  1
  Cu  Cu111  1  0.16492599  0.83585752  0.74585754  1
  Cu  Cu112  1  0.33580730  0.67026714  -0.00080110  1
  Cu  Cu113  1  0.32596990  0.00394419  0.00097266  1
  Cu  Cu114  1  0.83653971  0.17383315  0.74778549  1
  Se  Se115  1  0.06832852  0.08407621  0.04446531  1
  Se  Se116  1  0.08466805  0.08809121  0.55580188  1
  Se  Se117  1  0.07490994  0.40428688  0.06422363  1
  Se  Se118  1  0.08348523  0.41812276  0.54802590  1
  Se  Se119  1  0.08744972  0.74521109  0.05576475  1
  Se  Se120  1  0.08538545  0.76241077  0.55111503  1
  Se  Se121  1  0.41044808  0.08822937  0.05300082  1
  Se  Se122  1  0.43072972  0.08731265  0.54249914  1
  Se  Se123  1  0.40072797  0.41394866  0.06962223  1
  Se  Se124  1  0.40710626  0.40839557  0.56221338  1
  Se  Se125  1  0.41832624  0.75651317  0.05008093  1
  Se  Se126  1  0.41047307  0.73612660  0.55475633  1
  Se  Se127  1  0.73790325  0.07460649  0.06416673  1
  Se  Se128  1  0.75662466  0.09048737  0.55346302  1
  Se  Se129  1  0.75656947  0.41676229  0.05206518  1
  Se  Se130  1  0.74588535  0.41267892  0.56098177  1
  Se  Se131  1  0.75622566  0.74984311  0.04917367  1
  Se  Se132  1  0.75263659  0.75090186  0.55857456  1
  Se  Se133  1  0.24124931  0.24708767  0.06031373  1
  Se  Se134  1  0.24982953  0.25349601  0.54748898  1
  Se  Se135  1  0.25504829  0.59005583  0.05961923  1
  Se  Se136  1  0.24047687  0.58070864  0.55056139  1
  Se  Se137  1  0.24364344  0.91807801  0.05211518  1
  Se  Se138  1  0.27417534  0.93292883  0.55841832  1
  Se  Se139  1  0.57898158  0.25650341  0.05397651  1
  Se  Se140  1  0.58366141  0.24814241  0.55320826  1
  Se  Se141  1  0.59318845  0.58842427  0.06206362  1
  Se  Se142  1  0.58453912  0.58659732  0.56028923  1
  Se  Se143  1  0.57802271  0.91087888  0.04434903  1
  Se  Se144  1  0.59440736  0.92271057  0.56413679  1
  Se  Se145  1  0.91485964  0.25117007  0.06100389  1
  Se  Se146  1  0.91860978  0.25385060  0.55421008  1
  Se  Se147  1  0.92110284  0.57787481  0.05569402  1
  Se  Se148  1  0.93097082  0.59517595  0.55332052  1
  Se  Se149  1  0.91961714  0.91531230  0.04601544  1
  Se  Se150  1  0.91483340  0.92178357  0.55649260  1
  Se  Se151  1  0.08722692  0.24450222  0.44770767  1
  Se  Se152  1  0.08227512  0.24814135  0.94546738  1
  Se  Se153  1  0.06892925  0.58527973  0.43914384  1
  Se  Se154  1  0.08168602  0.58842116  0.93599700  1
  Se  Se155  1  0.08325459  0.91857763  0.45438968  1
  Se  Se156  1  0.10326601  0.89758114  0.94463869  1
  Se  Se157  1  0.42258177  0.25509834  0.44763065  1
  Se  Se158  1  0.41476290  0.25170236  0.95013194  1
  Se  Se159  1  0.40240590  0.58154819  0.43393147  1
  Se  Se160  1  0.41316846  0.58420871  0.94174412  1
  Se  Se161  1  0.41212479  0.91751625  0.43223691  1
  Se  Se162  1  0.41051101  0.92071869  0.94817039  1
  Se  Se163  1  0.75889934  0.25451849  0.44420980  1
  Se  Se164  1  0.74501333  0.25708145  0.93859341  1
  Se  Se165  1  0.74688038  0.59078434  0.44519675  1
  Se  Se166  1  0.75634678  0.57877548  0.94772756  1
  Se  Se167  1  0.75010522  0.91634503  0.45170505  1
  Se  Se168  1  0.72919704  0.93965413  0.94172521  1
  Se  Se169  1  0.25927159  0.07733074  0.45538183  1
  Se  Se170  1  0.24355987  0.08917153  0.94808330  1
  Se  Se171  1  0.24339598  0.41859908  0.43940055  1
  Se  Se172  1  0.25384159  0.40699960  0.94548868  1
  Se  Se173  1  0.24400856  0.75349386  0.44596515  1
  Se  Se174  1  0.24959085  0.75023397  0.94651426  1
  Se  Se175  1  0.58823480  0.08687256  0.44748179  1
  Se  Se176  1  0.57558007  0.10116556  0.95451386  1
  Se  Se177  1  0.59101414  0.41168869  0.44179618  1
  Se  Se178  1  0.58800060  0.41561038  0.94066506  1
  Se  Se179  1  0.58805869  0.74457791  0.44217773  1
  Se  Se180  1  0.58199655  0.74556196  0.94769836  1
  Se  Se181  1  0.91544615  0.08696884  0.44855102  1
  Se  Se182  1  0.91870071  0.07816091  0.93618268  1
  Se  Se183  1  0.92609007  0.41314740  0.43106478  1
  Se  Se184  1  0.91644292  0.41698095  0.94882675  1
  Se  Se185  1  0.89677104  0.76987409  0.44641096  1
  Se  Se186  1  0.91769623  0.74562650  0.94996653  1
  Se  Se187  1  0.25266770  0.24526335  0.30760102  1
  Se  Se188  1  0.24671559  0.24208335  0.81049819  1
  Se  Se189  1  0.26539629  0.60808901  0.30786606  1
  Se  Se190  1  0.25268874  0.58392991  0.79683459  1
  Se  Se191  1  0.23982730  0.91479166  0.30822367  1
  Se  Se192  1  0.24425358  0.91553069  0.80890323  1
  Se  Se193  1  0.58500391  0.24986608  0.30677355  1
  Se  Se194  1  0.58668475  0.25004360  0.80057046  1
  Se  Se195  1  0.57718891  0.57556742  0.31392765  1
  Se  Se196  1  0.58409499  0.58528717  0.80345541  1
  Se  Se197  1  0.57774915  0.90927856  0.30161557  1
  Se  Se198  1  0.57544700  0.91088204  0.81510389  1
  Se  Se199  1  0.92840982  0.24837346  0.29864986  1
  Se  Se200  1  0.92018976  0.25747439  0.80265984  1
  Se  Se201  1  0.91643530  0.58470690  0.29639558  1
  Se  Se202  1  0.91255167  0.58043638  0.81161360  1
  Se  Se203  1  0.91736220  0.90720344  0.31208102  1
  Se  Se204  1  0.92547525  0.91159301  0.80253698  1
  Se  Se205  1  0.08984284  0.08237026  0.31356563  1
  Se  Se206  1  0.08227910  0.08227972  0.80336138  1
  Se  Se207  1  0.09089167  0.40885482  0.29546628  1
  Se  Se208  1  0.08258738  0.41573389  0.79841429  1
  Se  Se209  1  0.07870725  0.74915735  0.30659356  1
  Se  Se210  1  0.08638241  0.75805146  0.80999208  1
  Se  Se211  1  0.41840809  0.09055552  0.31354438  1
  Se  Se212  1  0.42582145  0.08188165  0.81003923  1
  Se  Se213  1  0.41737871  0.41819772  0.29827518  1
  Se  Se214  1  0.42382815  0.42113047  0.81513000  1
  Se  Se215  1  0.41535343  0.75011895  0.29521261  1
  Se  Se216  1  0.40740017  0.74592009  0.80481073  1
  Se  Se217  1  0.75844123  0.08504753  0.31217680  1
  Se  Se218  1  0.76201229  0.09328248  0.81269636  1
  Se  Se219  1  0.74897925  0.41086899  0.29954549  1
  Se  Se220  1  0.74853615  0.41686055  0.80304144  1
  Se  Se221  1  0.75960567  0.75060789  0.31365139  1
  Se  Se222  1  0.75166299  0.75545524  0.80526787  1
  Se  Se223  1  0.23535353  0.08138271  0.18907125  1
  Se  Se224  1  0.24352652  0.09386525  0.68680474  1
  Se  Se225  1  0.24658840  0.41501715  0.20722960  1
  Se  Se226  1  0.24498491  0.41792263  0.68739438  1
  Se  Se227  1  0.25186886  0.75292643  0.19572078  1
  Se  Se228  1  0.24779673  0.74777017  0.69687760  1
  Se  Se229  1  0.57096605  0.09069039  0.19149005  1
  Se  Se230  1  0.58091078  0.08454327  0.69034803  1
  Se  Se231  1  0.58494678  0.41195110  0.19801112  1
  Se  Se232  1  0.58113156  0.41323167  0.69908908  1
  Se  Se233  1  0.58749770  0.75737615  0.18480611  1
  Se  Se234  1  0.58699104  0.74524025  0.70270240  1
  Se  Se235  1  0.90137576  0.09262702  0.19280011  1
  Se  Se236  1  0.91920997  0.08794151  0.69702503  1
  Se  Se237  1  0.91694077  0.41256223  0.19498564  1
  Se  Se238  1  0.91900279  0.42101053  0.69730262  1
  Se  Se239  1  0.92591179  0.74332026  0.19414250  1
  Se  Se240  1  0.91035527  0.75718260  0.68921479  1
  Se  Se241  1  0.07948503  0.24319426  0.19878205  1
  Se  Se242  1  0.08121166  0.25580036  0.69577583  1
  Se  Se243  1  0.09852751  0.56834678  0.20063809  1
  Se  Se244  1  0.08919413  0.57958694  0.68456054  1
  Se  Se245  1  0.08551270  0.90979052  0.18934590  1
  Se  Se246  1  0.08392829  0.92209375  0.69468619  1
  Se  Se247  1  0.40714523  0.25184341  0.20036620  1
  Se  Se248  1  0.41460545  0.23540914  0.68718493  1
  Se  Se249  1  0.42009753  0.58840308  0.19679304  1
  Se  Se250  1  0.41497531  0.58046967  0.69804767  1
  Se  Se251  1  0.42320641  0.91775660  0.18212117  1
  Se  Se252  1  0.42695203  0.90410249  0.69233417  1
  Se  Se253  1  0.74597241  0.24724263  0.20052723  1
  Se  Se254  1  0.74806705  0.25501441  0.69752972  1
  Se  Se255  1  0.75519729  0.57865166  0.18891279  1
  Se  Se256  1  0.74936589  0.58673790  0.69823470  1
  Se  Se257  1  0.76265652  0.90478423  0.19140863  1
  Se  Se258  1  0.75918309  0.91531870  0.69506078  1
