# generated using pymatgen
data_In86Cu29Se144
_symmetry_space_group_name_H-M   'P 1'
_cell_length_a   17.57597259
_cell_length_b   17.57404945
_cell_length_c   23.43883082
_cell_angle_alpha   90.01136065
_cell_angle_beta   89.99005541
_cell_angle_gamma   89.99271124
_symmetry_Int_Tables_number   1
_chemical_formula_structural   In86Cu29Se144
_chemical_formula_sum   'In86 Cu29 Se144'
_cell_volume   7239.80946132
_cell_formula_units_Z   1
loop_
 _symmetry_equiv_pos_site_id
 _symmetry_equiv_pos_as_xyz
  1  'x, y, z'
loop_
 _atom_site_type_symbol
 _atom_site_label
 _atom_site_symmetry_multiplicity
 _atom_site_fract_x
 _atom_site_fract_y
 _atom_site_fract_z
 _atom_site_occupancy
  In  In0  1  0.00394032  0.16067659  0.12959168  1
  In  In1  1  -0.00665116  0.16376616  0.62573444  1
  In  In2  1  -0.01323151  0.51089398  0.13132540  1
  In  In3  1  0.01271643  0.50520360  0.62417967  1
  In  In4  1  0.00646025  0.83520112  0.12270253  1
  In  In5  1  0.00230667  0.84000909  0.62626221  1
  In  In6  1  0.31198386  0.17402823  0.14853091  1
  In  In7  1  0.33284649  0.12517160  0.61258326  1
  In  In8  1  0.32806912  0.50702615  0.14197406  1
  In  In9  1  0.34182985  0.50251262  0.61932336  1
  In  In10  1  0.30939201  0.85972619  0.14845402  1
  In  In11  1  0.32540907  0.83852752  0.61672315  1
  In  In12  1  0.67251645  0.15671275  0.12542408  1
  In  In13  1  0.65178245  0.15178053  0.60957481  1
  In  In14  1  0.67662086  0.49388479  0.12934881  1
  In  In15  1  0.65691572  0.51203927  0.62498081  1
  In  In16  1  0.67410789  0.82613501  0.12667230  1
  In  In17  1  0.68083605  0.84204661  0.61804011  1
  In  In18  1  0.15747532  -0.00018972  0.36778099  1
  In  In19  1  0.16167114  0.00256710  0.87365371  1
  In  In20  1  0.16599265  0.32199112  0.35494674  1
  In  In21  1  0.15128233  0.33172437  0.88097049  1
  In  In22  1  0.17627753  0.68143265  0.36502873  1
  In  In23  1  0.17366045  0.68015334  0.87285861  1
  In  In24  1  0.49161238  -0.00314089  0.38359904  1
  In  In25  1  0.49323966  -0.01070252  0.85936965  1
  In  In26  1  0.49374203  0.33924496  0.38641792  1
  In  In27  1  0.49879475  0.32689087  0.87244059  1
  In  In28  1  0.48663686  0.67370667  0.38176702  1
  In  In29  1  0.49045673  0.68551013  0.86980876  1
  In  In30  1  0.84128419  -0.00325403  0.37969713  1
  In  In31  1  0.83494378  -0.00410999  0.87739992  1
  In  In32  1  0.82591444  0.32323125  0.37484038  1
  In  In33  1  0.84452790  0.32267158  0.88553564  1
  In  In34  1  0.84394017  0.67385240  0.37285117  1
  In  In35  1  0.85089421  0.65808932  0.88911153  1
  In  In36  1  -0.00326928  0.15774986  0.36057123  1
  In  In37  1  0.01713796  0.14642459  0.89099836  1
  In  In38  1  0.00816087  0.51041919  0.36193791  1
  In  In39  1  -0.00808202  0.49847799  0.87863727  1
  In  In40  1  -0.00233916  0.83609212  0.37325488  1
  In  In41  1  0.00175245  0.83438213  0.87688796  1
  In  In42  1  0.33036395  0.16684254  0.36743087  1
  In  In43  1  0.32819166  0.15417959  0.87168527  1
  In  In44  1  0.34898925  0.50417838  0.36361765  1
  In  In45  1  0.31921595  0.51368573  0.87995085  1
  In  In46  1  0.33369811  0.83218228  0.37820447  1
  In  In47  1  0.32622325  0.83348130  0.86946188  1
  In  In48  1  0.67571791  0.17529507  0.39165017  1
  In  In49  1  0.67911725  0.16292127  0.87575441  1
  In  In50  1  0.65093345  0.49090454  0.37958419  1
  In  In51  1  0.67555723  0.51289401  0.87189665  1
  In  In52  1  0.66349207  0.83642918  0.38584872  1
  In  In53  1  0.66715190  0.84576521  0.86991814  1
  In  In54  1  0.16612893  -0.00541318  0.12615153  1
  In  In55  1  0.18383045  -0.00785195  0.64220488  1
  In  In56  1  0.16819318  0.32028091  0.13609047  1
  In  In57  1  0.15895079  0.33151229  0.62036061  1
  In  In58  1  0.15368457  0.67935615  0.12772562  1
  In  In59  1  0.15313125  0.68291180  0.63304266  1
  In  In60  1  0.47658754  -0.00873608  0.12899613  1
  In  In61  1  0.50074649  -0.00288953  0.61499028  1
  In  In62  1  0.49443965  0.33262998  0.13634017  1
  In  In63  1  0.49689949  0.32607263  0.60573928  1
  In  In64  1  0.48596227  0.67164672  0.13731259  1
  In  In65  1  0.48510896  0.65941194  0.61495888  1
  In  In66  1  0.84217762  0.01171104  0.11671013  1
  In  In67  1  0.83457185  -0.00353244  0.62718111  1
  In  In68  1  0.84383466  0.34034467  0.12094366  1
  In  In69  1  0.83871318  0.32016940  0.61932334  1
  In  In70  1  0.86254343  0.68673556  0.10289069  1
  In  In71  1  0.83270275  0.67948815  0.62617407  1
  In  In72  1  -0.00206138  0.32911884  0.74869445  1
  In  In73  1  0.66733788  0.66671375  0.25675984  1
  In  In74  1  0.50691693  0.83442534  0.00072972  1
  In  In75  1  0.50425481  0.16361910  0.00590785  1
  In  In76  1  0.16670148  0.15768391  0.49618314  1
  In  In77  1  0.15986688  0.49940418  0.00682656  1
  In  In78  1  0.50856338  0.49895882  0.01022961  1
  In  In79  1  0.66086955  0.33700920  0.25293197  1
  In  In80  1  0.66260110  0.00063745  0.26137112  1
  In  In81  1  0.33412229  0.33316857  0.74382829  1
  In  In82  1  0.17703518  0.50579167  0.48158294  1
  In  In83  1  0.82786410  0.49987594  0.49725952  1
  In  In84  1  0.66550773  0.32921814  0.74259023  1
  In  In85  1  0.66466180  0.68188854  0.74838086  1
  Cu  Cu86  1  0.67939469  0.66193478  0.00273229  1
  Cu  Cu87  1  0.50014247  0.16043306  0.25902577  1
  Cu  Cu88  1  -0.00101423  0.68255201  0.50091381  1
  Cu  Cu89  1  -0.00191489  0.33407685  0.49117905  1
  Cu  Cu90  1  0.49368843  0.83606123  0.73818589  1
  Cu  Cu91  1  0.32052064  -0.00026053  0.00160281  1
  Cu  Cu92  1  0.00078065  0.32538787  0.00770235  1
  Cu  Cu93  1  0.15887012  0.82919818  0.25199415  1
  Cu  Cu94  1  0.83465993  0.50928538  0.24653903  1
  Cu  Cu95  1  0.84430647  0.83399377  0.75223867  1
  Cu  Cu96  1  0.00363258  -0.00411335  0.00084523  1
  Cu  Cu97  1  0.65914719  0.66525968  0.50099347  1
  Cu  Cu98  1  0.32606504  0.32223617  0.01232966  1
  Cu  Cu99  1  0.17027214  0.51663971  0.74964219  1
  Cu  Cu100  1  0.67588994  -0.00313438  0.50157549  1
  Cu  Cu101  1  -0.00364803  -0.00049365  0.49925117  1
  Cu  Cu102  1  0.66985086  0.00154036  -0.00143137  1
  Cu  Cu103  1  0.48817385  0.50571958  0.74450951  1
  Cu  Cu104  1  0.83982553  0.16883399  0.24844525  1
  Cu  Cu105  1  0.16455275  0.49266927  0.24499357  1
  Cu  Cu106  1  0.84226395  0.84343403  0.24539695  1
  Cu  Cu107  1  0.16650040  0.83945523  0.75156239  1
  Cu  Cu108  1  0.33419532  0.67285949  0.00285578  1
  Cu  Cu109  1  0.49663125  0.15398093  0.73755945  1
  Cu  Cu110  1  0.33169232  0.32612116  0.49404393  1
  Cu  Cu111  1  0.83817507  0.49993962  0.75634751  1
  Cu  Cu112  1  0.67610377  0.33743163  0.00085572  1
  Cu  Cu113  1  0.32323507  0.66770133  0.49569369  1
  Cu  Cu114  1  0.83345495  0.15159031  0.75026546  1
  Se  Se115  1  0.08494172  0.07906731  0.05741357  1
  Se  Se116  1  0.07971168  0.07370396  0.56169715  1
  Se  Se117  1  0.07716689  0.40783799  0.06937065  1
  Se  Se118  1  0.08130700  0.41640260  0.54555600  1
  Se  Se119  1  0.07741394  0.74639028  0.05046109  1
  Se  Se120  1  0.08675579  0.76031353  0.55372217  1
  Se  Se121  1  0.40220057  0.08191251  0.05985469  1
  Se  Se122  1  0.44225262  0.09823930  0.54550618  1
  Se  Se123  1  0.40675954  0.41117004  0.06391460  1
  Se  Se124  1  0.41029835  0.41659324  0.54588135  1
  Se  Se125  1  0.41221613  0.75431516  0.06198106  1
  Se  Se126  1  0.40762887  0.74999102  0.54991047  1
  Se  Se127  1  0.75195456  0.08901021  0.04859494  1
  Se  Se128  1  0.75910554  0.08141480  0.55438779  1
  Se  Se129  1  0.75649518  0.42191414  0.05405725  1
  Se  Se130  1  0.74532187  0.41554295  0.56545981  1
  Se  Se131  1  0.75395143  0.75863781  0.04931188  1
  Se  Se132  1  0.74957708  0.74498956  0.55005279  1
  Se  Se133  1  0.24414935  0.23753618  0.06217966  1
  Se  Se134  1  0.25631137  0.25036163  0.56012578  1
  Se  Se135  1  0.25718117  0.58849075  0.06205260  1
  Se  Se136  1  0.24458834  0.58925512  0.56012524  1
  Se  Se137  1  0.24684326  0.90732243  0.05529631  1
  Se  Se138  1  0.24862680  0.93523406  0.55502706  1
  Se  Se139  1  0.59335398  0.26300079  0.06389600  1
  Se  Se140  1  0.59667420  0.25711858  0.54560987  1
  Se  Se141  1  0.59258169  0.59687091  0.06786330  1
  Se  Se142  1  0.57486375  0.57858974  0.54871590  1
  Se  Se143  1  0.59069666  0.92889023  0.06480549  1
  Se  Se144  1  0.58826253  0.91187722  0.54967569  1
  Se  Se145  1  0.91683944  0.24158357  0.05981772  1
  Se  Se146  1  0.92452717  0.24703266  0.54860367  1
  Se  Se147  1  0.91819033  0.57377702  0.04708947  1
  Se  Se148  1  0.92379720  0.58960574  0.55604931  1
  Se  Se149  1  0.91732019  0.91604151  0.05446056  1
  Se  Se150  1  0.91557158  0.91520080  0.55506709  1
  Se  Se151  1  0.08107723  0.25275207  0.43471701  1
  Se  Se152  1  0.08761141  0.24559480  0.95574803  1
  Se  Se153  1  0.07521293  0.59988942  0.43871137  1
  Se  Se154  1  0.08384599  0.58855913  0.93817441  1
  Se  Se155  1  0.07985200  0.92068424  0.44208283  1
  Se  Se156  1  0.08779363  0.91613839  0.94559999  1
  Se  Se157  1  0.41386830  0.23918285  0.44253287  1
  Se  Se158  1  0.41002424  0.25336179  0.94539194  1
  Se  Se159  1  0.40866919  0.57969290  0.44796376  1
  Se  Se160  1  0.41884783  0.59214481  0.94589599  1
  Se  Se161  1  0.42433878  0.90055770  0.44987552  1
  Se  Se162  1  0.41179756  0.92519947  0.94290310  1
  Se  Se163  1  0.76016388  0.25626308  0.45783168  1
  Se  Se164  1  0.75137646  0.24543042  0.94957155  1
  Se  Se165  1  0.74076781  0.59218561  0.43564399  1
  Se  Se166  1  0.75730062  0.57380553  0.95010558  1
  Se  Se167  1  0.75883146  0.91310690  0.44747603  1
  Se  Se168  1  0.74850287  0.91331575  0.94654169  1
  Se  Se169  1  0.25819649  0.07011721  0.43804498  1
  Se  Se170  1  0.24414345  0.08673167  0.94624590  1
  Se  Se171  1  0.25496741  0.40120358  0.42822354  1
  Se  Se172  1  0.25548116  0.40788945  0.94697542  1
  Se  Se173  1  0.24037607  0.75450960  0.44731837  1
  Se  Se174  1  0.25464327  0.75595600  0.94718943  1
  Se  Se175  1  0.59381700  0.07363218  0.44210388  1
  Se  Se176  1  0.58203545  0.07218014  0.93670533  1
  Se  Se177  1  0.59178627  0.40405704  0.45381902  1
  Se  Se178  1  0.59104388  0.41147494  0.93863579  1
  Se  Se179  1  0.57729592  0.75006747  0.44851270  1
  Se  Se180  1  0.59604414  0.73925683  0.94018954  1
  Se  Se181  1  0.92343829  0.08893840  0.44234348  1
  Se  Se182  1  0.91406573  0.07836626  0.95028582  1
  Se  Se183  1  0.92400313  0.42122219  0.43342663  1
  Se  Se184  1  0.92264934  0.41114997  0.95146052  1
  Se  Se185  1  0.91126141  0.75960220  0.44700351  1
  Se  Se186  1  0.91411581  0.76128362  0.94832655  1
  Se  Se187  1  0.24487262  0.23237422  0.29131143  1
  Se  Se188  1  0.24384003  0.25494514  0.81148520  1
  Se  Se189  1  0.24060469  0.57213665  0.30784827  1
  Se  Se190  1  0.25667303  0.59590661  0.80261052  1
  Se  Se191  1  0.24303163  0.90780378  0.30790276  1
  Se  Se192  1  0.25020455  0.92412925  0.80354650  1
  Se  Se193  1  0.58310102  0.24053488  0.31494731  1
  Se  Se194  1  0.57404226  0.23524440  0.80208523  1
  Se  Se195  1  0.57246936  0.57975784  0.31253699  1
  Se  Se196  1  0.57253232  0.58327882  0.80592693  1
  Se  Se197  1  0.57359183  0.90390178  0.31177858  1
  Se  Se198  1  0.58334071  0.91206750  0.79319091  1
  Se  Se199  1  0.91584076  0.25788195  0.30293284  1
  Se  Se200  1  0.91168878  0.23752813  0.80876923  1
  Se  Se201  1  0.91822290  0.59378716  0.29877129  1
  Se  Se202  1  0.91999665  0.58527713  0.80659028  1
  Se  Se203  1  0.92128245  0.92583738  0.30260585  1
  Se  Se204  1  0.92208937  0.92075892  0.80695913  1
  Se  Se205  1  0.10067497  0.09895994  0.29680284  1
  Se  Se206  1  0.08501394  0.09178767  0.80485403  1
  Se  Se207  1  0.07722845  0.41274421  0.29738818  1
  Se  Se208  1  0.08984952  0.42781576  0.80507300  1
  Se  Se209  1  0.07192467  0.74594034  0.30278075  1
  Se  Se210  1  0.08432516  0.75395825  0.80414177  1
  Se  Se211  1  0.41676592  0.07386319  0.30741525  1
  Se  Se212  1  0.41144734  0.08117544  0.79821440  1
  Se  Se213  1  0.41939824  0.40158486  0.30477635  1
  Se  Se214  1  0.41669483  0.42691048  0.81204349  1
  Se  Se215  1  0.39689611  0.73443842  0.30812881  1
  Se  Se216  1  0.41079286  0.75697310  0.79576263  1
  Se  Se217  1  0.75646199  0.09582629  0.31250219  1
  Se  Se218  1  0.74672535  0.07343364  0.80535979  1
  Se  Se219  1  0.75578402  0.43064415  0.30897647  1
  Se  Se220  1  0.75672917  0.41368976  0.81031683  1
  Se  Se221  1  0.75854748  0.76801898  0.30765465  1
  Se  Se222  1  0.76251679  0.75264697  0.81363174  1
  Se  Se223  1  0.28075778  0.04230646  0.18967120  1
  Se  Se224  1  0.24774165  0.10191934  0.69840182  1
  Se  Se225  1  0.25364588  0.40696539  0.20055701  1
  Se  Se226  1  0.23874581  0.42823099  0.68729796  1
  Se  Se227  1  0.24581636  0.74465258  0.19981460  1
  Se  Se228  1  0.24987019  0.75835083  0.69422203  1
  Se  Se229  1  0.57351809  0.08542939  0.19164574  1
  Se  Se230  1  0.58706532  0.07391474  0.68931419  1
  Se  Se231  1  0.57259752  0.43415352  0.19753791  1
  Se  Se232  1  0.56737327  0.42071293  0.68853314  1
  Se  Se233  1  0.57891933  0.76130413  0.19783059  1
  Se  Se234  1  0.57520596  0.75528105  0.67879115  1
  Se  Se235  1  0.91647794  0.07788621  0.19796946  1
  Se  Se236  1  0.92195083  0.07580844  0.69660107  1
  Se  Se237  1  0.91439796  0.41668326  0.19911637  1
  Se  Se238  1  0.90989445  0.42367839  0.68703077  1
  Se  Se239  1  0.91750640  0.75332419  0.19181574  1
  Se  Se240  1  0.92228586  0.74967541  0.69525577  1
  Se  Se241  1  0.08115490  0.24168159  0.20253004  1
  Se  Se242  1  0.09321007  0.24060206  0.69324908  1
  Se  Se243  1  0.08476976  0.58201672  0.19440477  1
  Se  Se244  1  0.07636220  0.59074472  0.69945029  1
  Se  Se245  1  0.08062643  0.91696675  0.19754689  1
  Se  Se246  1  0.07980004  0.92126561  0.69989428  1
  Se  Se247  1  0.41892945  0.24597173  0.20435383  1
  Se  Se248  1  0.42031304  0.24334705  0.68112447  1
  Se  Se249  1  0.41847067  0.58252321  0.20674228  1
  Se  Se250  1  0.40604076  0.59111141  0.69449224  1
  Se  Se251  1  0.42843586  0.90034090  0.20547457  1
  Se  Se252  1  0.41256054  0.92125905  0.68511879  1
  Se  Se253  1  0.75331795  0.24677657  0.19248318  1
  Se  Se254  1  0.75621671  0.23426564  0.68881252  1
  Se  Se255  1  0.75858114  0.59237515  0.18745084  1
  Se  Se256  1  0.75548659  0.57891032  0.69567277  1
  Se  Se257  1  0.75374718  0.92206134  0.19151645  1
  Se  Se258  1  0.75487977  0.91085703  0.69842629  1
