# generated using pymatgen
data_In86Cu29Se144
_symmetry_space_group_name_H-M   'P 1'
_cell_length_a   17.57828625
_cell_length_b   17.58530357
_cell_length_c   23.43892694
_cell_angle_alpha   89.99907435
_cell_angle_beta   90.01688808
_cell_angle_gamma   89.97387396
_symmetry_Int_Tables_number   1
_chemical_formula_structural   In86Cu29Se144
_chemical_formula_sum   'In86 Cu29 Se144'
_cell_volume   7245.42830595
_cell_formula_units_Z   1
loop_
 _symmetry_equiv_pos_site_id
 _symmetry_equiv_pos_as_xyz
  1  'x, y, z'
loop_
 _atom_site_type_symbol
 _atom_site_label
 _atom_site_symmetry_multiplicity
 _atom_site_fract_x
 _atom_site_fract_y
 _atom_site_fract_z
 _atom_site_occupancy
  In  In0  1  -0.00834983  0.15561904  0.11477284  1
  In  In1  1  -0.01345558  0.16616735  0.62223460  1
  In  In2  1  0.01973334  0.50495125  0.12247769  1
  In  In3  1  0.02742230  0.51615298  0.61490937  1
  In  In4  1  0.00777316  0.83450686  0.12264247  1
  In  In5  1  0.04006270  0.80773974  0.66827474  1
  In  In6  1  0.33239176  0.16215515  0.11701149  1
  In  In7  1  0.33775216  0.17136237  0.63613195  1
  In  In8  1  0.32430607  0.51225314  0.13375505  1
  In  In9  1  0.32718922  0.50431565  0.62918526  1
  In  In10  1  0.32190945  0.84125975  0.12967692  1
  In  In11  1  0.31284774  0.83828209  0.63789425  1
  In  In12  1  0.66371043  0.15962141  0.12207946  1
  In  In13  1  0.67178145  0.15081634  0.62860288  1
  In  In14  1  0.65939405  0.50273311  0.13260112  1
  In  In15  1  0.66065352  0.51330375  0.62031314  1
  In  In16  1  0.68743658  0.83641226  0.12311746  1
  In  In17  1  0.67811767  0.84058494  0.62676690  1
  In  In18  1  0.15537717  -0.00957343  0.36473351  1
  In  In19  1  0.16514722  -0.00678470  0.86900988  1
  In  In20  1  0.17996876  0.33280185  0.37152209  1
  In  In21  1  0.18636990  0.32611326  0.88971320  1
  In  In22  1  0.16553753  0.66552550  0.37932116  1
  In  In23  1  0.15756267  0.67247168  0.87943125  1
  In  In24  1  0.49509582  -0.01386141  0.35519404  1
  In  In25  1  0.49836512  -0.00214275  0.87596878  1
  In  In26  1  0.49309208  0.34479707  0.37780655  1
  In  In27  1  0.46633974  0.32891724  0.88556389  1
  In  In28  1  0.46921389  0.66697316  0.37235227  1
  In  In29  1  0.48560197  0.67860010  0.87765866  1
  In  In30  1  0.83935459  0.00634260  0.36543588  1
  In  In31  1  0.83500344  0.00193597  0.88099115  1
  In  In32  1  0.82048138  0.32648498  0.37602121  1
  In  In33  1  0.82909755  0.32598376  0.88084659  1
  In  In34  1  0.84727062  0.66857429  0.37173809  1
  In  In35  1  0.87169218  0.67501486  0.87631908  1
  In  In36  1  -0.00428909  0.14840790  0.37123679  1
  In  In37  1  0.01654266  0.15367535  0.88872298  1
  In  In38  1  0.01081488  0.51707608  0.37350656  1
  In  In39  1  0.02987446  0.51839555  0.86302149  1
  In  In40  1  0.00569335  0.83611346  0.37487369  1
  In  In41  1  -0.00231924  0.83201458  0.88175479  1
  In  In42  1  0.32980774  0.16716242  0.36448575  1
  In  In43  1  0.33352433  0.16347203  0.88033442  1
  In  In44  1  0.32499231  0.50264450  0.37949151  1
  In  In45  1  0.30398017  0.49047959  0.85053174  1
  In  In46  1  0.32165496  0.82053905  0.35864857  1
  In  In47  1  0.30259911  0.81182550  0.85094477  1
  In  In48  1  0.67274638  0.15582802  0.37680138  1
  In  In49  1  0.67409623  0.15220739  0.88864057  1
  In  In50  1  0.65875398  0.48488668  0.37661763  1
  In  In51  1  0.66991725  0.49685126  0.87351921  1
  In  In52  1  0.65626286  0.84715220  0.36803197  1
  In  In53  1  0.66737353  0.85420214  0.87554670  1
  In  In54  1  0.16675353  -0.00115070  0.11936646  1
  In  In55  1  0.17477068  -0.00859343  0.63875645  1
  In  In56  1  0.18333752  0.33988482  0.10946109  1
  In  In57  1  0.17351191  0.34627700  0.62852841  1
  In  In58  1  0.16332572  0.67459239  0.12344354  1
  In  In59  1  0.16706071  0.66356110  0.63554076  1
  In  In60  1  0.48239879  0.00776819  0.13471650  1
  In  In61  1  0.50047171  0.00798659  0.63157216  1
  In  In62  1  0.49195035  0.31437396  0.11799880  1
  In  In63  1  0.48058787  0.33948972  0.62911502  1
  In  In64  1  0.49284900  0.65954173  0.12574013  1
  In  In65  1  0.49343128  0.65241483  0.61668975  1
  In  In66  1  0.84487642  0.00465097  0.12888326  1
  In  In67  1  0.83380052  -0.00239726  0.63018321  1
  In  In68  1  0.83454822  0.32261267  0.12292790  1
  In  In69  1  0.84613408  0.32034978  0.62194177  1
  In  In70  1  0.84602962  0.68678771  0.11578314  1
  In  In71  1  0.84186762  0.68407061  0.62574218  1
  In  In72  1  0.65945774  0.32656426  0.75768346  1
  In  In73  1  0.66788829  0.66907158  0.25141605  1
  In  In74  1  0.66438710  0.67751726  0.74594832  1
  In  In75  1  0.00469530  0.32848484  0.75174576  1
  In  In76  1  0.49477676  0.83107914  0.49214355  1
  In  In77  1  0.49848300  0.16676737  0.50343352  1
  In  In78  1  0.15901939  0.16509526  0.49699327  1
  In  In79  1  0.84371689  0.83662116  0.49930725  1
  In  In80  1  0.49620766  0.84546667  0.00048595  1
  In  In81  1  0.83600738  0.49367221  0.50746266  1
  In  In82  1  0.49296738  0.50040555  0.00257910  1
  In  In83  1  0.65816428  0.32824535  0.24352999  1
  In  In84  1  0.84147083  0.49177126  0.00009086  1
  In  In85  1  0.00319070  0.32215134  0.24518770  1
  Cu  Cu86  1  0.17223495  0.50722811  0.24845029  1
  Cu  Cu87  1  0.50182211  0.16519794  0.75760427  1
  Cu  Cu88  1  -0.00002628  -0.00359996  0.00079005  1
  Cu  Cu89  1  0.66318597  0.32525760  -0.00074102  1
  Cu  Cu90  1  0.49286233  0.16850156  0.24712574  1
  Cu  Cu91  1  0.84576064  0.83803625  0.24490748  1
  Cu  Cu92  1  0.32162345  -0.00693241  0.50011560  1
  Cu  Cu93  1  0.84824200  0.49995771  0.74458325  1
  Cu  Cu94  1  0.49625344  0.84237547  0.74903279  1
  Cu  Cu95  1  -0.00420733  0.33160882  0.49821716  1
  Cu  Cu96  1  0.32627959  0.34304809  0.50244932  1
  Cu  Cu97  1  0.16456528  0.83229095  0.24707822  1
  Cu  Cu98  1  0.49470696  0.50447357  0.75149438  1
  Cu  Cu99  1  0.65958793  0.32381884  0.49800251  1
  Cu  Cu100  1  0.84316879  0.50490022  0.24847331  1
  Cu  Cu101  1  0.66549738  0.65865571  0.49013920  1
  Cu  Cu102  1  0.48213309  0.50421388  0.25529651  1
  Cu  Cu103  1  0.32998065  -0.00575047  -0.00624632  1
  Cu  Cu104  1  0.83036432  0.84072446  0.75692585  1
  Cu  Cu105  1  0.83510602  0.15638698  0.75735282  1
  Cu  Cu106  1  0.32138588  0.66816219  -0.00138848  1
  Cu  Cu107  1  0.32666294  0.66704496  0.50257872  1
  Cu  Cu108  1  0.16818253  0.16760888  0.75836490  1
  Cu  Cu109  1  0.66726832  0.00372613  0.50073172  1
  Cu  Cu110  1  -0.00099801  -0.00679578  0.50056877  1
  Cu  Cu111  1  0.67870242  0.66889777  -0.00635247  1
  Cu  Cu112  1  0.16880157  0.16492373  0.24014265  1
  Cu  Cu113  1  0.66951429  0.00250952  0.00474476  1
  Cu  Cu114  1  0.00321243  0.33729547  0.00080303  1
  Se  Se115  1  0.08599104  0.08332565  0.04919179  1
  Se  Se116  1  0.07829918  0.07472929  0.56142260  1
  Se  Se117  1  0.08916875  0.42184934  0.04851900  1
  Se  Se118  1  0.08290113  0.40708971  0.55288947  1
  Se  Se119  1  0.08763334  0.75566610  0.05042448  1
  Se  Se120  1  0.08694023  0.75717341  0.57246386  1
  Se  Se121  1  0.41497777  0.07316032  0.04984620  1
  Se  Se122  1  0.40231303  0.07494160  0.55795105  1
  Se  Se123  1  0.40563528  0.41480276  0.06468565  1
  Se  Se124  1  0.41191927  0.42358574  0.55579943  1
  Se  Se125  1  0.41029153  0.74488926  0.05598952  1
  Se  Se126  1  0.40709494  0.75179478  0.56065285  1
  Se  Se127  1  0.75642556  0.08272492  0.05776786  1
  Se  Se128  1  0.75496903  0.07965477  0.55527741  1
  Se  Se129  1  0.73682858  0.41094893  0.06105146  1
  Se  Se130  1  0.73945510  0.40317419  0.56399435  1
  Se  Se131  1  0.75670707  0.75694121  0.04524667  1
  Se  Se132  1  0.74027408  0.74275461  0.55183197  1
  Se  Se133  1  0.25586453  0.24592620  0.04547932  1
  Se  Se134  1  0.25488733  0.24996877  0.55850949  1
  Se  Se135  1  0.24576393  0.58419813  0.05708770  1
  Se  Se136  1  0.24535548  0.58565693  0.55869237  1
  Se  Se137  1  0.24892231  0.91235796  0.05074873  1
  Se  Se138  1  0.24136149  0.91378605  0.55801445  1
  Se  Se139  1  0.58120734  0.24063880  0.05098654  1
  Se  Se140  1  0.58544705  0.25345577  0.56960872  1
  Se  Se141  1  0.59546349  0.59333358  0.05432332  1
  Se  Se142  1  0.57894794  0.57983001  0.54349846  1
  Se  Se143  1  0.58757889  0.92455049  0.06614939  1
  Se  Se144  1  0.58541076  0.92109529  0.55754836  1
  Se  Se145  1  0.91717568  0.25294316  0.04928546  1
  Se  Se146  1  0.91280316  0.24176333  0.54341681  1
  Se  Se147  1  0.92790524  0.58820402  0.05516314  1
  Se  Se148  1  0.92247892  0.59571765  0.55601051  1
  Se  Se149  1  0.91714057  0.91654311  0.05728199  1
  Se  Se150  1  0.92815469  0.91485607  0.56812774  1
  Se  Se151  1  0.07341903  0.25568326  0.43245693  1
  Se  Se152  1  0.08865128  0.25118410  0.95134465  1
  Se  Se153  1  0.09086957  0.57896643  0.45073471  1
  Se  Se154  1  0.08254390  0.58562995  0.95047542  1
  Se  Se155  1  0.08679284  0.91706096  0.44611789  1
  Se  Se156  1  0.08501409  0.91828020  0.94539080  1
  Se  Se157  1  0.40361174  0.25423385  0.44472102  1
  Se  Se158  1  0.40726856  0.24132486  0.95938068  1
  Se  Se159  1  0.41098247  0.58268632  0.45039896  1
  Se  Se160  1  0.40398357  0.58667965  0.94030217  1
  Se  Se161  1  0.40561813  0.92306462  0.43507743  1
  Se  Se162  1  0.39919739  0.90772665  0.93010977  1
  Se  Se163  1  0.74589358  0.24300755  0.44820608  1
  Se  Se164  1  0.75456810  0.24426172  0.95302899  1
  Se  Se165  1  0.75177667  0.58062231  0.43523928  1
  Se  Se166  1  0.75754622  0.58671808  0.93484419  1
  Se  Se167  1  0.74523472  0.92096284  0.44094441  1
  Se  Se168  1  0.75147187  0.91887298  0.95141001  1
  Se  Se169  1  0.25119107  0.07810277  0.43670445  1
  Se  Se170  1  0.24433984  0.07644577  0.94181196  1
  Se  Se171  1  0.23973981  0.41997349  0.44834197  1
  Se  Se172  1  0.25881824  0.43080670  0.94409636  1
  Se  Se173  1  0.25479492  0.75337748  0.44289148  1
  Se  Se174  1  0.24605505  0.75825033  0.94473025  1
  Se  Se175  1  0.57655103  0.07140074  0.44012934  1
  Se  Se176  1  0.57740138  0.07578202  0.95066272  1
  Se  Se177  1  0.57779717  0.41422532  0.45242994  1
  Se  Se178  1  0.58520617  0.40897684  0.93982876  1
  Se  Se179  1  0.58742798  0.74055532  0.43156780  1
  Se  Se180  1  0.58934531  0.75015141  0.94098957  1
  Se  Se181  1  0.91527809  0.07535069  0.44656212  1
  Se  Se182  1  0.91543566  0.08540618  0.95127861  1
  Se  Se183  1  0.91940960  0.41276194  0.43443090  1
  Se  Se184  1  0.93120338  0.41420910  0.93090894  1
  Se  Se185  1  0.93323027  0.73948449  0.44649477  1
  Se  Se186  1  0.91478609  0.75901393  0.95812343  1
  Se  Se187  1  0.24825240  0.25030940  0.29576912  1
  Se  Se188  1  0.25352190  0.24929113  0.80912798  1
  Se  Se189  1  0.25145839  0.58868794  0.30705596  1
  Se  Se190  1  0.25885557  0.61459525  0.80693537  1
  Se  Se191  1  0.24961460  0.92023249  0.29727773  1
  Se  Se192  1  0.25122544  0.92504301  0.79421112  1
  Se  Se193  1  0.57199482  0.24443523  0.31345186  1
  Se  Se194  1  0.57551330  0.24316533  0.82481048  1
  Se  Se195  1  0.57546533  0.57690272  0.31157929  1
  Se  Se196  1  0.57857822  0.58393534  0.80993086  1
  Se  Se197  1  0.59243443  0.92183216  0.28862964  1
  Se  Se198  1  0.58188893  0.92167559  0.80154329  1
  Se  Se199  1  0.90649605  0.24227342  0.30830633  1
  Se  Se200  1  0.91599781  0.23954451  0.81487720  1
  Se  Se201  1  0.92599749  0.58897066  0.29980815  1
  Se  Se202  1  0.92702522  0.58450322  0.79949466  1
  Se  Se203  1  0.92557842  0.91850125  0.30452041  1
  Se  Se204  1  0.91552334  0.91796534  0.81218880  1
  Se  Se205  1  0.08575365  0.08623457  0.29745857  1
  Se  Se206  1  0.07940391  0.08426605  0.80410542  1
  Se  Se207  1  0.08937340  0.42095491  0.30447274  1
  Se  Se208  1  0.10207214  0.41033064  0.80887641  1
  Se  Se209  1  0.08717798  0.75069466  0.30753452  1
  Se  Se210  1  0.07507098  0.75226036  0.80795006  1
  Se  Se211  1  0.41076681  0.08111562  0.29848997  1
  Se  Se212  1  0.41564583  0.08255853  0.80853541  1
  Se  Se213  1  0.40455302  0.41555564  0.30832588  1
  Se  Se214  1  0.41716973  0.41615854  0.80473336  1
  Se  Se215  1  0.43980433  0.77319056  0.30258988  1
  Se  Se216  1  0.41851605  0.75040528  0.79705818  1
  Se  Se217  1  0.74156498  0.07695708  0.30199412  1
  Se  Se218  1  0.74631420  0.07907062  0.80946864  1
  Se  Se219  1  0.75567852  0.42340439  0.30068577  1
  Se  Se220  1  0.76444430  0.42216354  0.80314653  1
  Se  Se221  1  0.76197800  0.76227590  0.30897075  1
  Se  Se222  1  0.75354692  0.75239409  0.81616795  1
  Se  Se223  1  0.25271732  0.07924902  0.18867556  1
  Se  Se224  1  0.25224545  0.08803469  0.70000582  1
  Se  Se225  1  0.24521751  0.41506531  0.19404273  1
  Se  Se226  1  0.26026434  0.41182417  0.70037322  1
  Se  Se227  1  0.25007707  0.74736747  0.19671199  1
  Se  Se228  1  0.25536351  0.73909914  0.70646177  1
  Se  Se229  1  0.57881934  0.08783349  0.19497599  1
  Se  Se230  1  0.58563221  0.08432593  0.70261360  1
  Se  Se231  1  0.56058793  0.42298611  0.19261940  1
  Se  Se232  1  0.58083261  0.42656186  0.69371050  1
  Se  Se233  1  0.58639954  0.75187386  0.18209531  1
  Se  Se234  1  0.57078799  0.76079965  0.68185354  1
  Se  Se235  1  0.92389151  0.09080664  0.19756358  1
  Se  Se236  1  0.91850537  0.08248445  0.69762328  1
  Se  Se237  1  0.91538585  0.42065086  0.18616154  1
  Se  Se238  1  0.92353033  0.41948975  0.68334078  1
  Se  Se239  1  0.92578626  0.74973300  0.19510879  1
  Se  Se240  1  0.91178687  0.75160972  0.70695406  1
  Se  Se241  1  0.09298551  0.24588569  0.17725576  1
  Se  Se242  1  0.09239886  0.23867157  0.68662985  1
  Se  Se243  1  0.08580003  0.58909807  0.19757225  1
  Se  Se244  1  0.08633345  0.57416129  0.70304888  1
  Se  Se245  1  0.08619341  0.91947867  0.19318553  1
  Se  Se246  1  0.06963670  0.94071280  0.70673872  1
  Se  Se247  1  0.40810041  0.24812897  0.19275755  1
  Se  Se248  1  0.42044284  0.25247673  0.70550558  1
  Se  Se249  1  0.40859363  0.59573071  0.20257016  1
  Se  Se250  1  0.41556606  0.58856749  0.69633344  1
  Se  Se251  1  0.42501586  0.90039704  0.19487204  1
  Se  Se252  1  0.41269049  0.92202916  0.69270630  1
  Se  Se253  1  0.75672790  0.23852954  0.19500416  1
  Se  Se254  1  0.75872938  0.24320047  0.69720893  1
  Se  Se255  1  0.76238617  0.58484434  0.18728579  1
  Se  Se256  1  0.75983596  0.58113682  0.69001411  1
  Se  Se257  1  0.75792701  0.92016213  0.19657199  1
  Se  Se258  1  0.74644810  0.92162063  0.70223186  1
