# generated using pymatgen
data_In86Cu29Se144
_symmetry_space_group_name_H-M   'P 1'
_cell_length_a   17.57896638
_cell_length_b   17.58286541
_cell_length_c   23.44585275
_cell_angle_alpha   89.98434744
_cell_angle_beta   90.00657568
_cell_angle_gamma   90.00932296
_symmetry_Int_Tables_number   1
_chemical_formula_structural   In86Cu29Se144
_chemical_formula_sum   'In86 Cu29 Se144'
_cell_volume   7246.84538415
_cell_formula_units_Z   1
loop_
 _symmetry_equiv_pos_site_id
 _symmetry_equiv_pos_as_xyz
  1  'x, y, z'
loop_
 _atom_site_type_symbol
 _atom_site_label
 _atom_site_symmetry_multiplicity
 _atom_site_fract_x
 _atom_site_fract_y
 _atom_site_fract_z
 _atom_site_occupancy
  In  In0  1  -0.00016599  0.18166944  0.12112932  1
  In  In1  1  -0.01286632  0.16550401  0.63110086  1
  In  In2  1  -0.00591453  0.49664065  0.11714114  1
  In  In3  1  0.00817321  0.51556208  0.63201904  1
  In  In4  1  0.00605518  0.82260204  0.11885058  1
  In  In5  1  0.00729710  0.82352310  0.63857800  1
  In  In6  1  0.34481378  0.15524116  0.12893360  1
  In  In7  1  0.34324718  0.15235403  0.62987773  1
  In  In8  1  0.33012294  0.49846875  0.11944314  1
  In  In9  1  0.34887161  0.49747889  0.63098179  1
  In  In10  1  0.35320837  0.85392241  0.10349527  1
  In  In11  1  0.32992814  0.83728326  0.63050576  1
  In  In12  1  0.65157060  0.15884018  0.11522646  1
  In  In13  1  0.65811814  0.17098505  0.63050891  1
  In  In14  1  0.66764642  0.50211161  0.12112731  1
  In  In15  1  0.65211494  0.50674041  0.62993948  1
  In  In16  1  0.65371390  0.84577305  0.13072951  1
  In  In17  1  0.66489196  0.83233909  0.63365071  1
  In  In18  1  0.17292076  -0.01389726  0.37754250  1
  In  In19  1  0.16706222  -0.00744583  0.87352611  1
  In  In20  1  0.16848593  0.33576841  0.36107633  1
  In  In21  1  0.17503613  0.34439264  0.87804712  1
  In  In22  1  0.18503836  0.67431358  0.37887359  1
  In  In23  1  0.17295831  0.66401910  0.86954026  1
  In  In24  1  0.50941085  0.01065178  0.36990139  1
  In  In25  1  0.49685854  -0.00300498  0.87257977  1
  In  In26  1  0.49303921  0.34385355  0.38409328  1
  In  In27  1  0.51010972  0.32387387  0.88364085  1
  In  In28  1  0.49970895  0.65604196  0.38299224  1
  In  In29  1  0.49939644  0.66596704  0.87680170  1
  In  In30  1  0.82797064  0.00856303  0.37196186  1
  In  In31  1  0.83449655  0.00458369  0.87413036  1
  In  In32  1  0.82859661  0.32115086  0.36721870  1
  In  In33  1  0.82171596  0.34738460  0.88435730  1
  In  In34  1  0.82546475  0.67499750  0.37614199  1
  In  In35  1  0.82120697  0.65611743  0.86817915  1
  In  In36  1  -0.01054976  0.17160844  0.36974774  1
  In  In37  1  -0.00202705  0.15074349  0.87596911  1
  In  In38  1  0.01177509  0.50080003  0.37019354  1
  In  In39  1  -0.00263434  0.50563422  0.87497439  1
  In  In40  1  0.01627413  0.83953680  0.37865035  1
  In  In41  1  0.00873985  0.83961425  0.87120094  1
  In  In42  1  0.34512129  0.17782294  0.36441481  1
  In  In43  1  0.34704530  0.16137482  0.87864127  1
  In  In44  1  0.36281787  0.49774554  0.37165569  1
  In  In45  1  0.32496719  0.51288115  0.88365254  1
  In  In46  1  0.32173861  0.82766434  0.37688563  1
  In  In47  1  0.34018487  0.83258897  0.87622028  1
  In  In48  1  0.66400367  0.15738426  0.37646441  1
  In  In49  1  0.66513334  0.16858520  0.87430861  1
  In  In50  1  0.64307659  0.50448039  0.37732762  1
  In  In51  1  0.66553913  0.49911483  0.87781996  1
  In  In52  1  0.65828777  0.83242858  0.36735122  1
  In  In53  1  0.65080203  0.82367292  0.86724182  1
  In  In54  1  0.18401334  -0.00054951  0.11935918  1
  In  In55  1  0.17903442  -0.01370426  0.63631811  1
  In  In56  1  0.16155643  0.33955813  0.12792437  1
  In  In57  1  0.17176708  0.34468321  0.62481302  1
  In  In58  1  0.17796837  0.67758684  0.11252555  1
  In  In59  1  0.16014435  0.67267642  0.64010742  1
  In  In60  1  0.49752805  0.00617592  0.12173106  1
  In  In61  1  0.50147617  0.00034157  0.62865092  1
  In  In62  1  0.49545046  0.33079798  0.12072646  1
  In  In63  1  0.51414789  0.34929152  0.60958731  1
  In  In64  1  0.50271737  0.67009276  0.12061272  1
  In  In65  1  0.50945726  0.65621345  0.63224260  1
  In  In66  1  0.81215239  -0.00061428  0.12080879  1
  In  In67  1  0.83212887  0.00275371  0.63753121  1
  In  In68  1  0.83871497  0.34025237  0.11720953  1
  In  In69  1  0.82370056  0.32120281  0.62567138  1
  In  In70  1  0.82711170  0.65455365  0.11958646  1
  In  In71  1  0.82668609  0.67171389  0.63756789  1
  In  In72  1  0.49798576  0.83290226  0.50460971  1
  In  In73  1  0.17138975  0.16248641  0.50337294  1
  In  In74  1  -0.00126684  0.00170251  0.25385059  1
  In  In75  1  0.66428436  0.33320660  0.24619203  1
  In  In76  1  0.82745429  0.83531253  0.50561070  1
  In  In77  1  0.82627996  0.49891715  0.50380646  1
  In  In78  1  -0.00468347  0.33198378  0.75611503  1
  In  In79  1  -0.00172964  0.66112347  0.24028333  1
  In  In80  1  0.33613597  0.66692248  0.25167872  1
  In  In81  1  0.34007390  0.33254123  0.75406791  1
  In  In82  1  0.17905398  0.50770839  0.50117598  1
  In  In83  1  0.82485889  0.16336486  0.49634169  1
  In  In84  1  0.83263164  0.83240889  -0.00789896  1
  In  In85  1  0.17132174  0.16741213  -0.00434989  1
  Cu  Cu86  1  0.17309399  0.83469962  0.24726462  1
  Cu  Cu87  1  0.50432185  0.49841362  0.75657273  1
  Cu  Cu88  1  0.17003390  0.16575984  0.24237529  1
  Cu  Cu89  1  -0.00284105  0.33657914  -0.00046298  1
  Cu  Cu90  1  0.83090512  0.49725969  0.24231034  1
  Cu  Cu91  1  0.34015441  -0.00022647  0.50397813  1
  Cu  Cu92  1  0.50241466  0.16506816  0.75293724  1
  Cu  Cu93  1  0.16892526  0.49291883  0.24418500  1
  Cu  Cu94  1  0.82089010  0.83210354  0.25053449  1
  Cu  Cu95  1  0.33563583  0.66580024  -0.00522121  1
  Cu  Cu96  1  0.17012460  0.83332526  0.75564405  1
  Cu  Cu97  1  0.83213315  0.16854338  0.24531656  1
  Cu  Cu98  1  0.33909952  0.33233982  0.49639412  1
  Cu  Cu99  1  0.00156246  0.33828531  0.49229071  1
  Cu  Cu100  1  0.16440009  0.16213359  0.75159318  1
  Cu  Cu101  1  0.49578439  0.83274274  0.75040401  1
  Cu  Cu102  1  0.00658079  0.67652337  0.50928316  1
  Cu  Cu103  1  0.66605194  0.66637180  -0.00393232  1
  Cu  Cu104  1  0.50221439  0.16321876  0.24646045  1
  Cu  Cu105  1  0.83411507  0.83414863  0.75717389  1
  Cu  Cu106  1  0.00608643  0.66200978  -0.00538708  1
  Cu  Cu107  1  0.33497413  0.33607649  0.00054016  1
  Cu  Cu108  1  0.49853870  0.83698737  0.24280818  1
  Cu  Cu109  1  0.82677266  0.49231707  0.75180020  1
  Cu  Cu110  1  -0.00203120  0.00072085  -0.00441069  1
  Cu  Cu111  1  0.82672524  0.16288511  0.75360015  1
  Cu  Cu112  1  0.00829892  -0.00727857  0.50695204  1
  Cu  Cu113  1  0.65651502  0.00422914  -0.00351547  1
  Cu  Cu114  1  0.66646834  0.33461127  0.00205397  1
  Se  Se115  1  0.07812771  0.07915905  0.05907642  1
  Se  Se116  1  0.08037072  0.07912060  0.56768134  1
  Se  Se117  1  0.08442415  0.41634165  0.05242227  1
  Se  Se118  1  0.07546410  0.41819967  0.55535427  1
  Se  Se119  1  0.08608791  0.75147970  0.04435770  1
  Se  Se120  1  0.09079087  0.75565924  0.56238686  1
  Se  Se121  1  0.40918917  0.07810709  0.05050476  1
  Se  Se122  1  0.42440991  0.08288621  0.55419845  1
  Se  Se123  1  0.41947853  0.42036437  0.05202914  1
  Se  Se124  1  0.41458800  0.42368462  0.54867174  1
  Se  Se125  1  0.42145879  0.74758919  0.04781141  1
  Se  Se126  1  0.41504445  0.74363236  0.56762329  1
  Se  Se127  1  0.74539537  0.08524420  0.04713669  1
  Se  Se128  1  0.74526906  0.07546780  0.56289075  1
  Se  Se129  1  0.75105623  0.42093601  0.05192819  1
  Se  Se130  1  0.73824867  0.40817171  0.56160505  1
  Se  Se131  1  0.74214972  0.75113840  0.05841070  1
  Se  Se132  1  0.73949507  0.73907494  0.56000109  1
  Se  Se133  1  0.25511316  0.25386755  0.06193813  1
  Se  Se134  1  0.26117062  0.25698105  0.56163050  1
  Se  Se135  1  0.25136931  0.58286745  0.04902484  1
  Se  Se136  1  0.25558108  0.59051020  0.57188958  1
  Se  Se137  1  0.23335889  0.89915789  0.05013100  1
  Se  Se138  1  0.25357592  0.91902107  0.55551583  1
  Se  Se139  1  0.57751083  0.25079307  0.04958119  1
  Se  Se140  1  0.57466231  0.23785418  0.55520871  1
  Se  Se141  1  0.58415548  0.58409245  0.05253076  1
  Se  Se142  1  0.57521770  0.57727116  0.55291311  1
  Se  Se143  1  0.57971053  0.91853017  0.05307983  1
  Se  Se144  1  0.59463841  0.92153939  0.55892715  1
  Se  Se145  1  0.91325566  0.24911508  0.04786857  1
  Se  Se146  1  0.92405812  0.25643090  0.55235830  1
  Se  Se147  1  0.91774547  0.58626567  0.04958034  1
  Se  Se148  1  0.92033802  0.59368775  0.56038104  1
  Se  Se149  1  0.91944346  0.92137384  0.05958874  1
  Se  Se150  1  0.92227792  0.91969029  0.56649654  1
  Se  Se151  1  0.08264202  0.25384516  0.43828236  1
  Se  Se152  1  0.07575956  0.25711770  0.93713133  1
  Se  Se153  1  0.07871984  0.59527566  0.44328137  1
  Se  Se154  1  0.09029056  0.58052599  0.94089376  1
  Se  Se155  1  0.09374760  0.91314613  0.45414525  1
  Se  Se156  1  0.08369349  0.91716259  0.94724022  1
  Se  Se157  1  0.41925128  0.24354090  0.44614890  1
  Se  Se158  1  0.41637304  0.24897204  0.94997387  1
  Se  Se159  1  0.38391253  0.60784564  0.44062890  1
  Se  Se160  1  0.42392233  0.57965270  0.94903109  1
  Se  Se161  1  0.41430043  0.92111157  0.43788747  1
  Se  Se162  1  0.42659193  0.90998352  0.94514074  1
  Se  Se163  1  0.73695430  0.26157759  0.44313434  1
  Se  Se164  1  0.74719807  0.25012918  0.94647938  1
  Se  Se165  1  0.74078552  0.58995128  0.44269587  1
  Se  Se166  1  0.75168983  0.58088587  0.94768318  1
  Se  Se167  1  0.74340894  0.92190794  0.43879651  1
  Se  Se168  1  0.73601603  0.92027114  0.93731007  1
  Se  Se169  1  0.26151729  0.07967062  0.43944115  1
  Se  Se170  1  0.26034379  0.07121212  0.94360450  1
  Se  Se171  1  0.25550156  0.41031737  0.43666146  1
  Se  Se172  1  0.24908949  0.42128401  0.95264047  1
  Se  Se173  1  0.24808492  0.75636369  0.45503892  1
  Se  Se174  1  0.25143990  0.74785946  0.94093747  1
  Se  Se175  1  0.58607536  0.07954039  0.44803474  1
  Se  Se176  1  0.57634409  0.08764641  0.94054936  1
  Se  Se177  1  0.58204942  0.41784034  0.45170596  1
  Se  Se178  1  0.58286200  0.41902778  0.94920911  1
  Se  Se179  1  0.59126699  0.74536876  0.44456778  1
  Se  Se180  1  0.58069396  0.75125945  0.94736362  1
  Se  Se181  1  0.92952542  0.07196332  0.44491715  1
  Se  Se182  1  0.91003727  0.08474251  0.95002598  1
  Se  Se183  1  0.91741140  0.41459069  0.43476529  1
  Se  Se184  1  0.91715560  0.42350884  0.94632953  1
  Se  Se185  1  0.92609917  0.74923541  0.44355059  1
  Se  Se186  1  0.92210019  0.74040278  0.93421126  1
  Se  Se187  1  0.25212255  0.25027610  0.29730564  1
  Se  Se188  1  0.24406788  0.24127416  0.81226314  1
  Se  Se189  1  0.24408649  0.57202329  0.30937538  1
  Se  Se190  1  0.25880572  0.58249345  0.80198214  1
  Se  Se191  1  0.25537564  0.91661839  0.30217157  1
  Se  Se192  1  0.25649488  0.91659188  0.80602131  1
  Se  Se193  1  0.57798407  0.24492376  0.30946836  1
  Se  Se194  1  0.58375458  0.25301924  0.80365125  1
  Se  Se195  1  0.57160252  0.58459084  0.30406389  1
  Se  Se196  1  0.58690509  0.58506892  0.80811739  1
  Se  Se197  1  0.58145384  0.91968116  0.29957101  1
  Se  Se198  1  0.58112992  0.91865859  0.80036812  1
  Se  Se199  1  0.91774595  0.25303336  0.29488694  1
  Se  Se200  1  0.90549012  0.24381768  0.81598913  1
  Se  Se201  1  0.90784730  0.57818018  0.30764759  1
  Se  Se202  1  0.91160947  0.57740610  0.80190015  1
  Se  Se203  1  0.90903745  0.90391278  0.31153516  1
  Se  Se204  1  0.91761398  0.91985105  0.80731684  1
  Se  Se205  1  0.09443458  0.09079502  0.31204285  1
  Se  Se206  1  0.08355394  0.07810541  0.80542430  1
  Se  Se207  1  0.07779803  0.41556724  0.29588694  1
  Se  Se208  1  0.09170089  0.42340046  0.80556604  1
  Se  Se209  1  0.09128292  0.75035328  0.30366616  1
  Se  Se210  1  0.08344155  0.74852067  0.80458233  1
  Se  Se211  1  0.41677294  0.08043534  0.30032341  1
  Se  Se212  1  0.41485227  0.08187377  0.80119086  1
  Se  Se213  1  0.41492205  0.40097389  0.30104329  1
  Se  Se214  1  0.42321304  0.42079802  0.81906642  1
  Se  Se215  1  0.42565540  0.75951810  0.31082496  1
  Se  Se216  1  0.41728235  0.74604691  0.80496840  1
  Se  Se217  1  0.74911127  0.08785481  0.30052806  1
  Se  Se218  1  0.74365963  0.07892308  0.80604577  1
  Se  Se219  1  0.75106300  0.42560215  0.30974422  1
  Se  Se220  1  0.74217361  0.41190995  0.80510629  1
  Se  Se221  1  0.74201559  0.74431966  0.30228472  1
  Se  Se222  1  0.74584462  0.74834470  0.80288275  1
  Se  Se223  1  0.25357214  0.07748232  0.19659403  1
  Se  Se224  1  0.25285235  0.08322412  0.69967585  1
  Se  Se225  1  0.25690429  0.41333672  0.19309828  1
  Se  Se226  1  0.24643637  0.42600644  0.69845733  1
  Se  Se227  1  0.25580018  0.75959032  0.18666938  1
  Se  Se228  1  0.25471455  0.75165306  0.70214134  1
  Se  Se229  1  0.58624739  0.07953876  0.19439234  1
  Se  Se230  1  0.58530237  0.07994686  0.69946749  1
  Se  Se231  1  0.57441033  0.42407564  0.19002665  1
  Se  Se232  1  0.57879394  0.41253582  0.69728622  1
  Se  Se233  1  0.58199296  0.74841407  0.19498531  1
  Se  Se234  1  0.58289956  0.74823047  0.70033847  1
  Se  Se235  1  0.91167548  0.08517281  0.18597232  1
  Se  Se236  1  0.91866526  0.08278210  0.70574002  1
  Se  Se237  1  0.91839916  0.41675130  0.19222022  1
  Se  Se238  1  0.90977336  0.41918661  0.68732870  1
  Se  Se239  1  0.90400493  0.75836600  0.18858396  1
  Se  Se240  1  0.91612792  0.74721493  0.70443123  1
  Se  Se241  1  0.08238154  0.25029183  0.19607472  1
  Se  Se242  1  0.09127015  0.24725081  0.69058838  1
  Se  Se243  1  0.09706719  0.58016472  0.18272519  1
  Se  Se244  1  0.08411129  0.58393651  0.70803805  1
  Se  Se245  1  0.08551191  0.91210761  0.19062504  1
  Se  Se246  1  0.08338238  0.91738136  0.70320602  1
  Se  Se247  1  0.41969223  0.24852651  0.19430838  1
  Se  Se248  1  0.42828527  0.24893499  0.68919598  1
  Se  Se249  1  0.42136874  0.57835497  0.18956153  1
  Se  Se250  1  0.42094470  0.58168327  0.70377078  1
  Se  Se251  1  0.41421563  0.91965933  0.19068286  1
  Se  Se252  1  0.41604739  0.91978469  0.69670919  1
  Se  Se253  1  0.75137015  0.24506821  0.18217453  1
  Se  Se254  1  0.74588786  0.24859186  0.70081120  1
  Se  Se255  1  0.74651034  0.58391445  0.19510183  1
  Se  Se256  1  0.74575616  0.57833422  0.69783478  1
  Se  Se257  1  0.74408086  0.92215069  0.19924717  1
  Se  Se258  1  0.74979159  0.91457872  0.70101302  1
