# generated using pymatgen
data_In86Cu29Se144
_symmetry_space_group_name_H-M   'P 1'
_cell_length_a   17.59284808
_cell_length_b   17.58907527
_cell_length_c   23.45087484
_cell_angle_alpha   89.97941576
_cell_angle_beta   90.02744441
_cell_angle_gamma   90.01523664
_symmetry_Int_Tables_number   1
_chemical_formula_structural   In86Cu29Se144
_chemical_formula_sum   'In86 Cu29 Se144'
_cell_volume   7256.68239369
_cell_formula_units_Z   1
loop_
 _symmetry_equiv_pos_site_id
 _symmetry_equiv_pos_as_xyz
  1  'x, y, z'
loop_
 _atom_site_type_symbol
 _atom_site_label
 _atom_site_symmetry_multiplicity
 _atom_site_fract_x
 _atom_site_fract_y
 _atom_site_fract_z
 _atom_site_occupancy
  In  In0  1  0.01214466  0.17926230  0.11042428  1
  In  In1  1  -0.00177145  0.15829979  0.61457982  1
  In  In2  1  -0.00719734  0.49625039  0.12004359  1
  In  In3  1  0.01306627  0.49048747  0.62818597  1
  In  In4  1  -0.00048248  0.82741227  0.10511583  1
  In  In5  1  -0.00735131  0.84667433  0.64057584  1
  In  In6  1  0.33218113  0.16408447  0.12777632  1
  In  In7  1  0.33175597  0.16897367  0.62372232  1
  In  In8  1  0.33186299  0.48036808  0.12610023  1
  In  In9  1  0.32104276  0.48753717  0.62019482  1
  In  In10  1  0.34713851  0.85380562  0.11105218  1
  In  In11  1  0.33677760  0.84299002  0.63168119  1
  In  In12  1  0.65907356  0.15989144  0.12067154  1
  In  In13  1  0.67174749  0.17328393  0.61425426  1
  In  In14  1  0.66712936  0.50165707  0.11951591  1
  In  In15  1  0.66199698  0.50326510  0.61997634  1
  In  In16  1  0.66898403  0.84246329  0.12385560  1
  In  In17  1  0.67051603  0.82269489  0.62642448  1
  In  In18  1  0.18081696  0.00806147  0.37022866  1
  In  In19  1  0.16905880  0.00194949  0.86962118  1
  In  In20  1  0.16709570  0.32635008  0.37624758  1
  In  In21  1  0.16397509  0.30590916  0.87897060  1
  In  In22  1  0.15362040  0.66381263  0.37658356  1
  In  In23  1  0.15787086  0.68805396  0.87397725  1
  In  In24  1  0.51422201  0.00896842  0.36131396  1
  In  In25  1  0.48821864  0.01363568  0.88227889  1
  In  In26  1  0.49809877  0.34136724  0.38539025  1
  In  In27  1  0.49541043  0.33759422  0.87860779  1
  In  In28  1  0.48792578  0.66085232  0.37522203  1
  In  In29  1  0.50464314  0.66371260  0.88397487  1
  In  In30  1  0.82358282  0.01162024  0.37979928  1
  In  In31  1  0.83885030  -0.00541056  0.87726180  1
  In  In32  1  0.82660819  0.31372264  0.37378233  1
  In  In33  1  0.85175067  0.32827037  0.89539422  1
  In  In34  1  0.84612476  0.66696214  0.37747011  1
  In  In35  1  0.84875052  0.66068374  0.88342031  1
  In  In36  1  -0.01217840  0.17952242  0.38832825  1
  In  In37  1  0.00792944  0.16476841  0.88118832  1
  In  In38  1  0.01753776  0.49200107  0.38289551  1
  In  In39  1  -0.01168860  0.49358982  0.87768087  1
  In  In40  1  -0.00519652  0.82283394  0.37585218  1
  In  In41  1  -0.00079468  0.83673054  0.86937750  1
  In  In42  1  0.33306854  0.16774114  0.37579912  1
  In  In43  1  0.33458052  0.16551205  0.87237793  1
  In  In44  1  0.34184172  0.48642069  0.38058598  1
  In  In45  1  0.34358144  0.49709600  0.87598185  1
  In  In46  1  0.32926118  0.84199891  0.36770765  1
  In  In47  1  0.31400628  0.85791209  0.88934124  1
  In  In48  1  0.67296240  0.15969942  0.38201560  1
  In  In49  1  0.66908454  0.16364824  0.88245156  1
  In  In50  1  0.65414382  0.48386364  0.37640249  1
  In  In51  1  0.67018594  0.49908755  0.88135072  1
  In  In52  1  0.66302733  0.85266993  0.37264362  1
  In  In53  1  0.67333605  0.82760161  0.88709772  1
  In  In54  1  0.17591510  0.01148561  0.11647570  1
  In  In55  1  0.15244076  0.00939654  0.64061778  1
  In  In56  1  0.17977389  0.32450019  0.13499907  1
  In  In57  1  0.16625420  0.34234550  0.61718849  1
  In  In58  1  0.15363553  0.67124058  0.11554321  1
  In  In59  1  0.16487674  0.65721546  0.62985072  1
  In  In60  1  0.49528601  0.00138381  0.13013206  1
  In  In61  1  0.48561813  0.00734677  0.62881055  1
  In  In62  1  0.49178234  0.32051195  0.12041175  1
  In  In63  1  0.48880942  0.31550550  0.61110330  1
  In  In64  1  0.50165338  0.67138287  0.11697378  1
  In  In65  1  0.50566663  0.66416880  0.62448272  1
  In  In66  1  0.82833763  -0.00402201  0.11865129  1
  In  In67  1  0.85077748  0.01393515  0.62085809  1
  In  In68  1  0.84406465  0.33769267  0.11459822  1
  In  In69  1  0.84876202  0.31551891  0.62125838  1
  In  In70  1  0.83564272  0.66807601  0.11481561  1
  In  In71  1  0.82608078  0.67841946  0.62625341  1
  In  In72  1  0.16567774  0.83360865  0.49977825  1
  In  In73  1  0.66473271  0.66627998  0.75690445  1
  In  In74  1  0.33180187  0.67029118  0.24721763  1
  In  In75  1  0.67079188  0.33408434  0.74194456  1
  In  In76  1  0.00428289  0.32765508  0.75389939  1
  In  In77  1  0.66325565  0.32430860  0.25022415  1
  In  In78  1  0.67229858  0.67213083  0.23932240  1
  In  In79  1  0.49909424  0.83457097  0.50166154  1
  In  In80  1  0.16915828  0.50104489  -0.00211372  1
  In  In81  1  0.83087361  0.49518565  0.50104177  1
  In  In82  1  0.32974808  0.67086985  0.75669009  1
  In  In83  1  -0.00003602  0.66555910  0.23801254  1
  In  In84  1  0.00218316  0.00412483  0.24363985  1
  In  In85  1  0.66858146  -0.00057876  0.75597250  1
  Cu  Cu86  1  0.82734901  0.84507472  0.24846311  1
  Cu  Cu87  1  0.84647816  0.48952336  0.24802453  1
  Cu  Cu88  1  0.17297674  0.16572543  0.74912907  1
  Cu  Cu89  1  0.17093896  0.49032110  0.25631675  1
  Cu  Cu90  1  0.66553192  0.66583049  0.50053483  1
  Cu  Cu91  1  0.33587149  0.32314014  0.00226161  1
  Cu  Cu92  1  0.16806345  0.49726648  0.74945355  1
  Cu  Cu93  1  0.33511507  0.00695834  0.49990915  1
  Cu  Cu94  1  0.83349881  0.49777409  0.75988229  1
  Cu  Cu95  1  0.65980548  0.00162390  0.00160935  1
  Cu  Cu96  1  0.84169995  0.83828008  0.74988043  1
  Cu  Cu97  1  -0.00284092  0.66878020  0.50436746  1
  Cu  Cu98  1  0.49776168  0.49683607  0.25273238  1
  Cu  Cu99  1  0.00221297  0.00130302  -0.00521269  1
  Cu  Cu100  1  0.67008980  -0.00246549  0.50020576  1
  Cu  Cu101  1  0.33672105  0.66594292  -0.00463164  1
  Cu  Cu102  1  0.16687038  0.16909166  0.24978255  1
  Cu  Cu103  1  0.49919734  0.17189489  0.74801209  1
  Cu  Cu104  1  0.66496913  0.66760652  0.00201977  1
  Cu  Cu105  1  0.83247244  0.16260288  0.25015622  1
  Cu  Cu106  1  0.48750315  0.48978804  0.74744752  1
  Cu  Cu107  1  0.17197007  0.84043773  0.23962394  1
  Cu  Cu108  1  0.49093811  0.16684664  0.24907873  1
  Cu  Cu109  1  0.66524910  0.33610858  0.00233104  1
  Cu  Cu110  1  0.32849589  0.33290018  0.49825971  1
  Cu  Cu111  1  -0.00024487  -0.00719392  0.50419420  1
  Cu  Cu112  1  0.49096750  0.84158175  0.76149097  1
  Cu  Cu113  1  0.33211907  0.00781111  -0.00039268  1
  Cu  Cu114  1  0.32865328  0.65498442  0.50041164  1
  Se  Se115  1  0.08777608  0.08518597  0.04684315  1
  Se  Se116  1  0.08991851  0.07322744  0.55326392  1
  Se  Se117  1  0.09062677  0.40992044  0.06386278  1
  Se  Se118  1  0.07377650  0.41333415  0.54897925  1
  Se  Se119  1  0.08664074  0.75009377  0.03923750  1
  Se  Se120  1  0.07748563  0.74941146  0.56470967  1
  Se  Se121  1  0.41675544  0.08524116  0.05754522  1
  Se  Se122  1  0.41941977  0.08969045  0.55282157  1
  Se  Se123  1  0.41727511  0.41293599  0.05190582  1
  Se  Se124  1  0.41333537  0.41666561  0.55223051  1
  Se  Se125  1  0.41706420  0.75216784  0.04954911  1
  Se  Se126  1  0.40442239  0.74204403  0.55950642  1
  Se  Se127  1  0.74754172  0.08411443  0.05218982  1
  Se  Se128  1  0.75405337  0.08078501  0.55353866  1
  Se  Se129  1  0.75129862  0.42032815  0.05296650  1
  Se  Se130  1  0.74724166  0.40464287  0.56465150  1
  Se  Se131  1  0.74593551  0.75344141  0.05546119  1
  Se  Se132  1  0.74869482  0.75192957  0.54940353  1
  Se  Se133  1  0.24880548  0.24565494  0.05662065  1
  Se  Se134  1  0.24772646  0.25020045  0.55465851  1
  Se  Se135  1  0.26145762  0.58762363  0.06150356  1
  Se  Se136  1  0.24168937  0.57941849  0.55557681  1
  Se  Se137  1  0.24557579  0.91869920  0.04684018  1
  Se  Se138  1  0.25570759  0.92387725  0.55857572  1
  Se  Se139  1  0.58207770  0.24873149  0.05221279  1
  Se  Se140  1  0.58548446  0.24812597  0.54688691  1
  Se  Se141  1  0.58107073  0.58148992  0.05255184  1
  Se  Se142  1  0.57909707  0.58371068  0.55028686  1
  Se  Se143  1  0.57817888  0.92014108  0.05808807  1
  Se  Se144  1  0.58848731  0.92353581  0.56507431  1
  Se  Se145  1  0.90473625  0.23728179  0.04958644  1
  Se  Se146  1  0.93354906  0.25415270  0.54635935  1
  Se  Se147  1  0.93643384  0.59940838  0.05550924  1
  Se  Se148  1  0.91698314  0.58668688  0.56416630  1
  Se  Se149  1  0.91516008  0.92060767  0.04802914  1
  Se  Se150  1  0.91706572  0.91003760  0.55778378  1
  Se  Se151  1  0.09442235  0.23905984  0.44721543  1
  Se  Se152  1  0.06433356  0.26509624  0.95124574  1
  Se  Se153  1  0.08296027  0.58600470  0.45340849  1
  Se  Se154  1  0.07986320  0.58837203  0.93734300  1
  Se  Se155  1  0.07839800  0.92286987  0.43490253  1
  Se  Se156  1  0.08438616  0.91964227  0.93856752  1
  Se  Se157  1  0.41422419  0.25022908  0.44633797  1
  Se  Se158  1  0.41923451  0.24495723  0.94393699  1
  Se  Se159  1  0.41834967  0.57759964  0.44860998  1
  Se  Se160  1  0.41981873  0.57753728  0.94858740  1
  Se  Se161  1  0.41256575  0.92388786  0.43963656  1
  Se  Se162  1  0.41931453  0.92011579  0.95146599  1
  Se  Se163  1  0.74056969  0.25448530  0.44914693  1
  Se  Se164  1  0.74785208  0.25176090  0.94949653  1
  Se  Se165  1  0.74231013  0.58604256  0.43629529  1
  Se  Se166  1  0.74990321  0.58774373  0.94622632  1
  Se  Se167  1  0.75260706  0.91433519  0.44653825  1
  Se  Se168  1  0.74839192  0.92346234  0.94837315  1
  Se  Se169  1  0.24848946  0.08736030  0.44748905  1
  Se  Se170  1  0.24869273  0.08643100  0.94171608  1
  Se  Se171  1  0.24494945  0.41741652  0.44519405  1
  Se  Se172  1  0.25618463  0.40348642  0.94005656  1
  Se  Se173  1  0.25818155  0.74223909  0.43831814  1
  Se  Se174  1  0.24965142  0.74943890  0.94730172  1
  Se  Se175  1  0.58245646  0.07517031  0.44553077  1
  Se  Se176  1  0.57868772  0.08891542  0.94959666  1
  Se  Se177  1  0.58464272  0.41555416  0.45590951  1
  Se  Se178  1  0.58223349  0.41798436  0.94601789  1
  Se  Se179  1  0.58759644  0.74560568  0.43717683  1
  Se  Se180  1  0.58015155  0.75263106  0.95185095  1
  Se  Se181  1  0.91702181  0.07794762  0.44935925  1
  Se  Se182  1  0.91552009  0.08459006  0.94494896  1
  Se  Se183  1  0.91579688  0.40867422  0.43688060  1
  Se  Se184  1  0.91448259  0.42985419  0.95864233  1
  Se  Se185  1  0.91404294  0.75220464  0.45195322  1
  Se  Se186  1  0.90295739  0.77259481  0.93938702  1
  Se  Se187  1  0.25191369  0.24979390  0.30455288  1
  Se  Se188  1  0.25372405  0.25135925  0.80209519  1
  Se  Se189  1  0.24618451  0.57998971  0.31233652  1
  Se  Se190  1  0.24101295  0.57728373  0.81523444  1
  Se  Se191  1  0.25054852  0.92232166  0.29630296  1
  Se  Se192  1  0.25559295  0.92043448  0.80222184  1
  Se  Se193  1  0.57336298  0.24118279  0.31375809  1
  Se  Se194  1  0.58298384  0.24765793  0.80789787  1
  Se  Se195  1  0.58240435  0.58090657  0.30464079  1
  Se  Se196  1  0.57103102  0.56859152  0.80663290  1
  Se  Se197  1  0.58145798  0.91278222  0.29574880  1
  Se  Se198  1  0.58021823  0.91272510  0.81954159  1
  Se  Se199  1  0.91671122  0.24467220  0.30315413  1
  Se  Se200  1  0.90955883  0.24440438  0.81258609  1
  Se  Se201  1  0.92101175  0.57458769  0.30780832  1
  Se  Se202  1  0.92039536  0.58366908  0.80495662  1
  Se  Se203  1  0.91391253  0.91588764  0.30959985  1
  Se  Se204  1  0.92070209  0.92745066  0.79988636  1
  Se  Se205  1  0.08355410  0.09196311  0.31061920  1
  Se  Se206  1  0.08442051  0.09053794  0.80452447  1
  Se  Se207  1  0.08216913  0.40998329  0.30590524  1
  Se  Se208  1  0.09286166  0.41799356  0.81537379  1
  Se  Se209  1  0.09160930  0.75971379  0.29992428  1
  Se  Se210  1  0.07972374  0.75547972  0.79749612  1
  Se  Se211  1  0.41077401  0.08161652  0.30440936  1
  Se  Se212  1  0.41862269  0.08498260  0.80103497  1
  Se  Se213  1  0.41948393  0.41049984  0.30567683  1
  Se  Se214  1  0.40912167  0.40709492  0.80301540  1
  Se  Se215  1  0.42597246  0.75967104  0.30509484  1
  Se  Se216  1  0.41816025  0.75549961  0.82075313  1
  Se  Se217  1  0.74536479  0.08345692  0.30285902  1
  Se  Se218  1  0.75887863  0.09310860  0.80915103  1
  Se  Se219  1  0.75573879  0.42062297  0.30631325  1
  Se  Se220  1  0.75701126  0.41172907  0.81503334  1
  Se  Se221  1  0.75933690  0.75443036  0.30923681  1
  Se  Se222  1  0.75920275  0.75755405  0.80898370  1
  Se  Se223  1  0.24731656  0.08188515  0.19737180  1
  Se  Se224  1  0.25721434  0.08272166  0.69611644  1
  Se  Se225  1  0.25860363  0.40984772  0.20538124  1
  Se  Se226  1  0.24662656  0.41102832  0.69643692  1
  Se  Se227  1  0.24568235  0.75437368  0.18096409  1
  Se  Se228  1  0.24306722  0.75752278  0.69259081  1
  Se  Se229  1  0.57995434  0.08812922  0.19712486  1
  Se  Se230  1  0.58377180  0.09172045  0.69082563  1
  Se  Se231  1  0.57847764  0.41947422  0.18991635  1
  Se  Se232  1  0.57193563  0.41909728  0.68542767  1
  Se  Se233  1  0.57221697  0.76005091  0.19114920  1
  Se  Se234  1  0.56943827  0.76085069  0.69980847  1
  Se  Se235  1  0.91290885  0.09179566  0.18354254  1
  Se  Se236  1  0.93155733  0.08284424  0.69527202  1
  Se  Se237  1  0.92509773  0.40722658  0.19285772  1
  Se  Se238  1  0.90886950  0.41816193  0.69439288  1
  Se  Se239  1  0.90833031  0.76501445  0.18833097  1
  Se  Se240  1  0.91539215  0.74432067  0.69804361  1
  Se  Se241  1  0.08024895  0.24704600  0.19501747  1
  Se  Se242  1  0.09091214  0.24418489  0.68792058  1
  Se  Se243  1  0.09760175  0.57038993  0.19065917  1
  Se  Se244  1  0.08052736  0.57958160  0.70069571  1
  Se  Se245  1  0.08418573  0.91128610  0.17975992  1
  Se  Se246  1  0.09327543  0.90779108  0.70504502  1
  Se  Se247  1  0.41064104  0.25312271  0.19734109  1
  Se  Se248  1  0.41486738  0.25314721  0.69398703  1
  Se  Se249  1  0.42225241  0.57682056  0.18895848  1
  Se  Se250  1  0.41471142  0.58065336  0.69028046  1
  Se  Se251  1  0.40691001  0.92020328  0.19618563  1
  Se  Se252  1  0.41452730  0.92395022  0.70346309  1
  Se  Se253  1  0.75639297  0.24504256  0.18671692  1
  Se  Se254  1  0.76309397  0.23582968  0.69320347  1
  Se  Se255  1  0.76655138  0.57294725  0.19055904  1
  Se  Se256  1  0.75367781  0.57419519  0.69567208  1
  Se  Se257  1  0.74511097  0.92720104  0.19591729  1
  Se  Se258  1  0.75534110  0.91323018  0.68972959  1
