# generated using pymatgen
data_In86Cu29Se144
_symmetry_space_group_name_H-M   'P 1'
_cell_length_a   17.58409110
_cell_length_b   17.58420204
_cell_length_c   23.44693958
_cell_angle_alpha   90.01403765
_cell_angle_beta   89.98622026
_cell_angle_gamma   89.99823432
_symmetry_Int_Tables_number   1
_chemical_formula_structural   In86Cu29Se144
_chemical_formula_sum   'In86 Cu29 Se144'
_cell_volume   7249.84511947
_cell_formula_units_Z   1
loop_
 _symmetry_equiv_pos_site_id
 _symmetry_equiv_pos_as_xyz
  1  'x, y, z'
loop_
 _atom_site_type_symbol
 _atom_site_label
 _atom_site_symmetry_multiplicity
 _atom_site_fract_x
 _atom_site_fract_y
 _atom_site_fract_z
 _atom_site_occupancy
  In  In0  1  -0.00899093  0.15737652  0.11875723  1
  In  In1  1  -0.00051215  0.17485135  0.62853666  1
  In  In2  1  -0.00136148  0.51717910  0.12495754  1
  In  In3  1  0.01234886  0.49052420  0.62999538  1
  In  In4  1  0.00859831  0.83151506  0.12875250  1
  In  In5  1  -0.01410388  0.83547123  0.62313033  1
  In  In6  1  0.33538594  0.16652516  0.12511466  1
  In  In7  1  0.33213958  0.16088646  0.63897960  1
  In  In8  1  0.31500310  0.50184318  0.13968753  1
  In  In9  1  0.32771664  0.50663325  0.62843829  1
  In  In10  1  0.32656883  0.84586800  0.13313927  1
  In  In11  1  0.33321477  0.83424029  0.62852068  1
  In  In12  1  0.66047921  0.16631656  0.12006017  1
  In  In13  1  0.67735857  0.17082438  0.61932494  1
  In  In14  1  0.67914754  0.50491474  0.12287959  1
  In  In15  1  0.65565278  0.49855746  0.62390995  1
  In  In16  1  0.66901060  0.83247927  0.14032480  1
  In  In17  1  0.67191762  0.82492599  0.61182624  1
  In  In18  1  0.16766773  0.00123278  0.36263281  1
  In  In19  1  0.17651943  -0.00973920  0.88499263  1
  In  In20  1  0.18120593  0.33419826  0.37679870  1
  In  In21  1  0.15661118  0.31804454  0.86373642  1
  In  In22  1  0.16390470  0.66043255  0.36818626  1
  In  In23  1  0.16818150  0.67271560  0.87246208  1
  In  In24  1  0.52054486  0.01301967  0.35834816  1
  In  In25  1  0.50095041  0.01540553  0.87958870  1
  In  In26  1  0.48763349  0.32672650  0.37485258  1
  In  In27  1  0.48649497  0.32391532  0.86673787  1
  In  In28  1  0.50904946  0.68024655  0.35322774  1
  In  In29  1  0.49300438  0.67487419  0.87483493  1
  In  In30  1  0.82816285  0.00007406  0.37063153  1
  In  In31  1  0.84850407  0.00434251  0.87836359  1
  In  In32  1  0.82283925  0.31902877  0.37672830  1
  In  In33  1  0.83555288  0.33184929  0.87404123  1
  In  In34  1  0.83840351  0.67241950  0.37041282  1
  In  In35  1  0.83418275  0.64720060  0.87946595  1
  In  In36  1  -0.00557621  0.15489377  0.36881946  1
  In  In37  1  -0.00745122  0.17321928  0.88420005  1
  In  In38  1  0.00448883  0.51326408  0.37375798  1
  In  In39  1  -0.00451861  0.48901226  0.86928450  1
  In  In40  1  -0.01028144  0.82697532  0.36941491  1
  In  In41  1  0.01473198  0.84156173  0.87455055  1
  In  In42  1  0.34315392  0.16986859  0.37196493  1
  In  In43  1  0.33248035  0.16585828  0.87750793  1
  In  In44  1  0.32878816  0.49825727  0.36823814  1
  In  In45  1  0.32659126  0.49693857  0.86868233  1
  In  In46  1  0.34576354  0.83914088  0.35750078  1
  In  In47  1  0.32540406  0.82517235  0.87048117  1
  In  In48  1  0.68395252  0.13094534  0.40303975  1
  In  In49  1  0.65549299  0.17475523  0.88418665  1
  In  In50  1  0.65881735  0.50059786  0.37164347  1
  In  In51  1  0.68502485  0.49751949  0.87863451  1
  In  In52  1  0.67446859  0.84268279  0.36500572  1
  In  In53  1  0.66251026  0.82780678  0.87928269  1
  In  In54  1  0.16756859  0.00282852  0.12463616  1
  In  In55  1  0.17903611  0.01262632  0.62893260  1
  In  In56  1  0.18279337  0.33361857  0.12509800  1
  In  In57  1  0.15747065  0.33642145  0.63540533  1
  In  In58  1  0.15051095  0.67256532  0.13121706  1
  In  In59  1  0.17596582  0.65570338  0.62703188  1
  In  In60  1  0.49010149  0.00646506  0.13611016  1
  In  In61  1  0.48886855  -0.00378358  0.62135233  1
  In  In62  1  0.49307679  0.32085633  0.12122366  1
  In  In63  1  0.50961273  0.32742719  0.63468663  1
  In  In64  1  0.49798801  0.67585426  0.13741731  1
  In  In65  1  0.49777797  0.66168469  0.62189665  1
  In  In66  1  0.82280610  0.01681142  0.13943916  1
  In  In67  1  0.83065910  -0.00229736  0.61229961  1
  In  In68  1  0.82905425  0.33288541  0.11497091  1
  In  In69  1  0.84219110  0.32352593  0.63090696  1
  In  In70  1  0.83591222  0.66945242  0.12891846  1
  In  In71  1  0.83617303  0.67725868  0.62110348  1
  In  In72  1  0.16168345  0.17232327  0.50842957  1
  In  In73  1  0.00995525  0.00473934  0.74805152  1
  In  In74  1  0.00297057  0.33088476  0.25420538  1
  In  In75  1  0.50702278  0.84276653  0.48367663  1
  In  In76  1  0.83689628  0.49646642  0.49364087  1
  In  In77  1  0.66462954  0.66178289  0.74361774  1
  In  In78  1  0.49847833  0.50378477  0.49932859  1
  In  In79  1  0.16038511  0.49652434  0.00032427  1
  In  In80  1  0.16267551  0.82795202  0.49164942  1
  In  In81  1  0.66066895  0.32999829  0.24895770  1
  In  In82  1  0.49976520  0.83712932  0.00698409  1
  In  In83  1  0.50197648  0.49551755  0.00735321  1
  In  In84  1  0.83843304  0.83655968  0.01168620  1
  In  In85  1  0.66592891  0.00370141  0.74787424  1
  Cu  Cu86  1  0.83959309  0.83827308  0.24867511  1
  Cu  Cu87  1  0.17062348  0.16594548  0.24660498  1
  Cu  Cu88  1  0.50087434  0.16924249  0.24955235  1
  Cu  Cu89  1  0.49854190  0.50204902  0.74824780  1
  Cu  Cu90  1  0.49825246  0.49749410  0.25009387  1
  Cu  Cu91  1  0.16894766  0.82615826  0.75034147  1
  Cu  Cu92  1  0.33557553  0.00261208  0.00667727  1
  Cu  Cu93  1  0.84100879  0.49372718  0.75103409  1
  Cu  Cu94  1  0.33817720  0.66766246  0.49486545  1
  Cu  Cu95  1  0.83403648  0.82413872  0.74576297  1
  Cu  Cu96  1  -0.00235049  0.33373630  -0.00501172  1
  Cu  Cu97  1  0.48951076  0.83984254  0.74901265  1
  Cu  Cu98  1  0.66546064  0.32574930  0.50594657  1
  Cu  Cu99  1  0.83854365  0.50506369  0.24820012  1
  Cu  Cu100  1  0.49668770  0.16844473  0.75395583  1
  Cu  Cu101  1  0.00225098  0.33222786  0.50556728  1
  Cu  Cu102  1  -0.00448861  0.67099474  0.00315311  1
  Cu  Cu103  1  0.32674053  0.66861718  -0.00260527  1
  Cu  Cu104  1  0.66862034  0.33466432  -0.00258853  1
  Cu  Cu105  1  0.67321098  0.00191591  0.00599634  1
  Cu  Cu106  1  0.00365055  0.66327217  0.49496195  1
  Cu  Cu107  1  0.33519099  0.33419763  0.49927929  1
  Cu  Cu108  1  -0.01192232  -0.00132825  0.49551046  1
  Cu  Cu109  1  0.16649066  0.50568541  0.75161783  1
  Cu  Cu110  1  0.00613791  0.00556940  0.00255761  1
  Cu  Cu111  1  0.16630423  0.83530225  0.24938556  1
  Cu  Cu112  1  0.33133103  0.00919660  0.50011264  1
  Cu  Cu113  1  0.83029082  0.17231053  0.75249510  1
  Cu  Cu114  1  0.33476993  0.32405851  -0.00310418  1
  Se  Se115  1  0.09080040  0.08983735  0.05366233  1
  Se  Se116  1  0.07153351  0.07025993  0.55986472  1
  Se  Se117  1  0.07264580  0.40831821  0.06377219  1
  Se  Se118  1  0.08952170  0.41364929  0.55457299  1
  Se  Se119  1  0.08333041  0.75235246  0.05233341  1
  Se  Se120  1  0.07906482  0.74355803  0.55989505  1
  Se  Se121  1  0.42255777  0.08442485  0.05684432  1
  Se  Se122  1  0.40847643  0.08925854  0.55941307  1
  Se  Se123  1  0.39900185  0.41356102  0.06151123  1
  Se  Se124  1  0.41545474  0.41239456  0.56277372  1
  Se  Se125  1  0.40590312  0.74445682  0.06076788  1
  Se  Se126  1  0.41639284  0.75269691  0.55221486  1
  Se  Se127  1  0.75586163  0.08812786  0.05623514  1
  Se  Se128  1  0.74310260  0.07836919  0.55011946  1
  Se  Se129  1  0.74995380  0.42159818  0.04856735  1
  Se  Se130  1  0.74730342  0.41143661  0.56029014  1
  Se  Se131  1  0.73941438  0.74827469  0.06117138  1
  Se  Se132  1  0.75482134  0.74416457  0.54606760  1
  Se  Se133  1  0.25044871  0.24510716  0.05305878  1
  Se  Se134  1  0.25741924  0.25831745  0.56468616  1
  Se  Se135  1  0.24935817  0.58818803  0.05929767  1
  Se  Se136  1  0.25681383  0.58548480  0.55019108  1
  Se  Se137  1  0.25017511  0.91705066  0.05514917  1
  Se  Se138  1  0.25180350  0.92121497  0.55398362  1
  Se  Se139  1  0.58293379  0.25304366  0.05020768  1
  Se  Se140  1  0.57774407  0.24666880  0.55785685  1
  Se  Se141  1  0.58392540  0.59383317  0.06358877  1
  Se  Se142  1  0.59630401  0.59749204  0.55128326  1
  Se  Se143  1  0.59262374  0.92354550  0.06621239  1
  Se  Se144  1  0.58952775  0.92618902  0.55514127  1
  Se  Se145  1  0.91651219  0.24981164  0.05115352  1
  Se  Se146  1  0.91733858  0.24692619  0.55377456  1
  Se  Se147  1  0.91087645  0.58751494  0.05334004  1
  Se  Se148  1  0.92608678  0.58172372  0.55821875  1
  Se  Se149  1  0.92391911  0.93157543  0.06745673  1
  Se  Se150  1  0.91023695  0.90822025  0.54645259  1
  Se  Se151  1  0.07637079  0.25307862  0.43737784  1
  Se  Se152  1  0.08759816  0.25135532  0.94796101  1
  Se  Se153  1  0.09205792  0.58159413  0.44710835  1
  Se  Se154  1  0.07308277  0.58924939  0.94020298  1
  Se  Se155  1  0.07623669  0.92618360  0.43675135  1
  Se  Se156  1  0.08546875  0.91470262  0.95344499  1
  Se  Se157  1  0.41623726  0.24568942  0.45066946  1
  Se  Se158  1  0.42351047  0.24414910  0.94697244  1
  Se  Se159  1  0.41992568  0.59267334  0.43217642  1
  Se  Se160  1  0.40896953  0.58477730  0.94351047  1
  Se  Se161  1  0.40606875  0.93123441  0.43530909  1
  Se  Se162  1  0.41154280  0.92107952  0.94119806  1
  Se  Se163  1  0.75250309  0.24406824  0.45467717  1
  Se  Se164  1  0.75329299  0.25018630  0.94517815  1
  Se  Se165  1  0.74541209  0.58616364  0.43736491  1
  Se  Se166  1  0.74142883  0.59023673  0.95137815  1
  Se  Se167  1  0.74340513  0.92172488  0.44083050  1
  Se  Se168  1  0.74700679  0.92222865  0.94185614  1
  Se  Se169  1  0.24540388  0.08409496  0.44076378  1
  Se  Se170  1  0.25309190  0.08356621  0.94930157  1
  Se  Se171  1  0.25576937  0.42069578  0.44736934  1
  Se  Se172  1  0.25144432  0.40803614  0.94086712  1
  Se  Se173  1  0.26219010  0.74991156  0.43321902  1
  Se  Se174  1  0.24429150  0.75392207  0.94660548  1
  Se  Se175  1  0.55888692  0.08702535  0.44820047  1
  Se  Se176  1  0.58534143  0.08278964  0.95404784  1
  Se  Se177  1  0.58938961  0.40573112  0.44336720  1
  Se  Se178  1  0.58356318  0.41096956  0.93686324  1
  Se  Se179  1  0.59290975  0.74160769  0.43432256  1
  Se  Se180  1  0.58757118  0.73863534  0.94917142  1
  Se  Se181  1  0.91042012  0.08589646  0.44271891  1
  Se  Se182  1  0.91532787  0.08583849  0.95413674  1
  Se  Se183  1  0.92695480  0.40432720  0.43483653  1
  Se  Se184  1  0.91386946  0.41915675  0.94496404  1
  Se  Se185  1  0.91813810  0.74751687  0.44625008  1
  Se  Se186  1  0.91951072  0.75242811  0.93877714  1
  Se  Se187  1  0.25102398  0.24634493  0.30535384  1
  Se  Se188  1  0.27222178  0.26647182  0.80998678  1
  Se  Se189  1  0.25891546  0.59229030  0.30185510  1
  Se  Se190  1  0.25058260  0.58952353  0.80404568  1
  Se  Se191  1  0.25369715  0.92142575  0.29619536  1
  Se  Se192  1  0.24650501  0.91465105  0.80424871  1
  Se  Se193  1  0.58211990  0.24094388  0.31531329  1
  Se  Se194  1  0.58601158  0.24939805  0.80425294  1
  Se  Se195  1  0.58874488  0.57988918  0.29609362  1
  Se  Se196  1  0.57869794  0.57828271  0.81238178  1
  Se  Se197  1  0.55897795  0.89093066  0.30591407  1
  Se  Se198  1  0.57633800  0.91066358  0.80978492  1
  Se  Se199  1  0.90245824  0.23958165  0.30228236  1
  Se  Se200  1  0.92058944  0.24884795  0.80516871  1
  Se  Se201  1  0.92125760  0.58757984  0.30228917  1
  Se  Se202  1  0.91867895  0.58298176  0.80337365  1
  Se  Se203  1  0.92026507  0.92254265  0.30342952  1
  Se  Se204  1  0.91210345  0.91047886  0.80313415  1
  Se  Se205  1  0.08250837  0.08509493  0.29740177  1
  Se  Se206  1  0.08645633  0.08360024  0.82172159  1
  Se  Se207  1  0.09263654  0.42235076  0.31094008  1
  Se  Se208  1  0.08430497  0.41568037  0.80052884  1
  Se  Se209  1  0.08393336  0.75243836  0.30469873  1
  Se  Se210  1  0.07949531  0.74993455  0.80301013  1
  Se  Se211  1  0.41505952  0.08272395  0.30004453  1
  Se  Se212  1  0.41556946  0.08186201  0.80591903  1
  Se  Se213  1  0.41706312  0.41357292  0.30386424  1
  Se  Se214  1  0.41468746  0.41925125  0.80158066  1
  Se  Se215  1  0.39403281  0.72754397  0.29580513  1
  Se  Se216  1  0.41353364  0.74827306  0.80082381  1
  Se  Se217  1  0.73744744  0.08471730  0.30833236  1
  Se  Se218  1  0.75527671  0.08789943  0.81328353  1
  Se  Se219  1  0.75883136  0.42160083  0.30655958  1
  Se  Se220  1  0.75269856  0.41464966  0.80305971  1
  Se  Se221  1  0.75541314  0.75203772  0.30035943  1
  Se  Se222  1  0.75253407  0.75032397  0.80872472  1
  Se  Se223  1  0.25496383  0.08143503  0.19414779  1
  Se  Se224  1  0.23806473  0.09253777  0.70736754  1
  Se  Se225  1  0.24602337  0.40856795  0.20560182  1
  Se  Se226  1  0.24830912  0.42126505  0.69677972  1
  Se  Se227  1  0.24522237  0.75113403  0.19332860  1
  Se  Se228  1  0.25353594  0.74637146  0.69373194  1
  Se  Se229  1  0.58607807  0.08743302  0.19593179  1
  Se  Se230  1  0.57440138  0.09034470  0.68873164  1
  Se  Se231  1  0.57625937  0.42127458  0.18432167  1
  Se  Se232  1  0.58759733  0.41918948  0.70082312  1
  Se  Se233  1  0.58697910  0.74773891  0.20516662  1
  Se  Se234  1  0.57491528  0.76239521  0.68905998  1
  Se  Se235  1  0.92580797  0.08387484  0.19996052  1
  Se  Se236  1  0.90393476  0.08443889  0.69181159  1
  Se  Se237  1  0.91196907  0.41826872  0.18903219  1
  Se  Se238  1  0.92408737  0.41016043  0.69633541  1
  Se  Se239  1  0.92062692  0.75173407  0.19573205  1
  Se  Se240  1  0.92228976  0.74380972  0.69645821  1
  Se  Se241  1  0.08781582  0.24460189  0.18720843  1
  Se  Se242  1  0.09599628  0.23111537  0.69778033  1
  Se  Se243  1  0.08745429  0.57517232  0.19891212  1
  Se  Se244  1  0.08264810  0.58676029  0.69628023  1
  Se  Se245  1  0.08505028  0.92118709  0.19591708  1
  Se  Se246  1  0.09358578  0.90716251  0.68578420  1
  Se  Se247  1  0.41423904  0.25146902  0.19801945  1
  Se  Se248  1  0.41539906  0.25373152  0.70001682  1
  Se  Se249  1  0.41569956  0.57984529  0.19549320  1
  Se  Se250  1  0.41761610  0.58784491  0.69507011  1
  Se  Se251  1  0.43201582  0.90060884  0.19786048  1
  Se  Se252  1  0.40773716  0.92466959  0.69697996  1
  Se  Se253  1  0.75492732  0.24628616  0.18922648  1
  Se  Se254  1  0.74593006  0.25176953  0.69689440  1
  Se  Se255  1  0.75083937  0.58669213  0.19757474  1
  Se  Se256  1  0.76173520  0.57245596  0.68731692  1
  Se  Se257  1  0.74861674  0.92295246  0.20425368  1
  Se  Se258  1  0.75365058  0.90723276  0.68915106  1
