# generated using pymatgen
data_In86Cu29Se144
_symmetry_space_group_name_H-M   'P 1'
_cell_length_a   17.60110908
_cell_length_b   17.60163134
_cell_length_c   23.46600482
_cell_angle_alpha   89.98665903
_cell_angle_beta   90.01291787
_cell_angle_gamma   90.00921920
_symmetry_Int_Tables_number   1
_chemical_formula_structural   In86Cu29Se144
_chemical_formula_sum   'In86 Cu29 Se144'
_cell_volume   7269.96101813
_cell_formula_units_Z   1
loop_
 _symmetry_equiv_pos_site_id
 _symmetry_equiv_pos_as_xyz
  1  'x, y, z'
loop_
 _atom_site_type_symbol
 _atom_site_label
 _atom_site_symmetry_multiplicity
 _atom_site_fract_x
 _atom_site_fract_y
 _atom_site_fract_z
 _atom_site_occupancy
  In  In0  1  0.02015236  0.17928806  0.11925557  1
  In  In1  1  -0.01615129  0.18781909  0.63559437  1
  In  In2  1  -0.00049111  0.50009008  0.12268940  1
  In  In3  1  -0.00598836  0.50246974  0.62458012  1
  In  In4  1  -0.00622386  0.82639932  0.10711779  1
  In  In5  1  -0.00577046  0.82538782  0.65160096  1
  In  In6  1  0.30876824  0.17517170  0.12319819  1
  In  In7  1  0.34110423  0.18150700  0.62392919  1
  In  In8  1  0.34600201  0.50101999  0.11522211  1
  In  In9  1  0.32029937  0.49304063  0.61869397  1
  In  In10  1  0.32159536  0.82014267  0.11630988  1
  In  In11  1  0.34640115  0.81983683  0.63029765  1
  In  In12  1  0.67959698  0.17526606  0.12447992  1
  In  In13  1  0.68178200  0.16475051  0.62234924  1
  In  In14  1  0.66322940  0.50086650  0.12139794  1
  In  In15  1  0.66563218  0.50009890  0.62772398  1
  In  In16  1  0.66667715  0.82412884  0.11306792  1
  In  In17  1  0.65868777  0.82722456  0.63121620  1
  In  In18  1  0.16120561  0.00372021  0.37446346  1
  In  In19  1  0.14809762  0.00769487  0.89210264  1
  In  In20  1  0.16693047  0.34276544  0.37329691  1
  In  In21  1  0.16088513  0.33786970  0.87723761  1
  In  In22  1  0.15693087  0.65267154  0.36208067  1
  In  In23  1  0.16302406  0.66495152  0.87870657  1
  In  In24  1  0.49255563  -0.01065372  0.37469779  1
  In  In25  1  0.49429038  -0.00498749  0.87668181  1
  In  In26  1  0.51228773  0.33479548  0.37791366  1
  In  In27  1  0.50940268  0.34558383  0.86565482  1
  In  In28  1  0.49652542  0.66942943  0.38242102  1
  In  In29  1  0.50079993  0.66159878  0.87418284  1
  In  In30  1  0.84990103  0.00851134  0.37525861  1
  In  In31  1  0.84293103  -0.02499403  0.87656471  1
  In  In32  1  0.83385048  0.34044840  0.37661369  1
  In  In33  1  0.84520981  0.34723967  0.86569059  1
  In  In34  1  0.83349901  0.65389216  0.37578871  1
  In  In35  1  0.83273432  0.66330559  0.87001606  1
  In  In36  1  -0.01183643  0.17066270  0.37970562  1
  In  In37  1  0.00691389  0.17576023  0.86785680  1
  In  In38  1  -0.00153045  0.50206814  0.37549883  1
  In  In39  1  0.00266573  0.49480613  0.87525478  1
  In  In40  1  0.01224502  0.83318047  0.37363860  1
  In  In41  1  0.00046828  0.82890424  0.87261639  1
  In  In42  1  0.32719534  0.17239141  0.37380834  1
  In  In43  1  0.31618130  0.17118923  0.88302147  1
  In  In44  1  0.32299021  0.51055243  0.37870870  1
  In  In45  1  0.32886389  0.49275831  0.88014534  1
  In  In46  1  0.34468494  0.82836267  0.37605572  1
  In  In47  1  0.33472673  0.82943386  0.88496424  1
  In  In48  1  0.66704693  0.18769776  0.37321025  1
  In  In49  1  0.66277354  0.17589245  0.87097484  1
  In  In50  1  0.68249438  0.48875292  0.38615242  1
  In  In51  1  0.66510899  0.50345223  0.87040771  1
  In  In52  1  0.66632617  0.81678194  0.37794230  1
  In  In53  1  0.67386982  0.81642703  0.87045684  1
  In  In54  1  0.16120900  0.00113547  0.11193436  1
  In  In55  1  0.15780040  -0.00593930  0.63117218  1
  In  In56  1  0.16144553  0.32486860  0.11045954  1
  In  In57  1  0.13432659  0.38041072  0.66456140  1
  In  In58  1  0.16710820  0.66139998  0.12298393  1
  In  In59  1  0.16321881  0.65269291  0.63273016  1
  In  In60  1  0.50911309  -0.00790877  0.12100093  1
  In  In61  1  0.51371504  -0.00895710  0.62387135  1
  In  In62  1  0.49827572  0.35165939  0.12445078  1
  In  In63  1  0.48348391  0.34846221  0.63409386  1
  In  In64  1  0.49002286  0.65658430  0.11742192  1
  In  In65  1  0.50910536  0.67143921  0.62281814  1
  In  In66  1  0.85722020  -0.00263091  0.11569306  1
  In  In67  1  0.83709692  0.01474816  0.62172177  1
  In  In68  1  0.82822499  0.34593298  0.12970490  1
  In  In69  1  0.83487845  0.33227377  0.62502605  1
  In  In70  1  0.84528013  0.67394244  0.11637467  1
  In  In71  1  0.85330679  0.64919720  0.64453697  1
  In  In72  1  0.67136231  0.00287669  0.75645048  1
  In  In73  1  0.00365985  0.00596875  0.23743984  1
  In  In74  1  0.33130043  0.00291915  0.75213904  1
  In  In75  1  0.49391552  0.16520676  0.00208783  1
  In  In76  1  0.83278319  0.16151738  -0.00570770  1
  In  In77  1  0.51141245  0.16430054  0.50052735  1
  In  In78  1  0.17428412  0.82178927  0.50992612  1
  In  In79  1  0.67005200  0.00149499  0.24312850  1
  In  In80  1  0.82684085  0.83076622  0.50857960  1
  In  In81  1  0.66997381  0.65629945  0.25242123  1
  In  In82  1  0.32727901  0.33979877  0.24831977  1
  In  In83  1  0.33082064  -0.00527966  0.23950103  1
  In  In84  1  0.16787781  0.17376017  0.49900351  1
  In  In85  1  0.32965278  0.65884155  0.76008786  1
  Cu  Cu86  1  0.66768554  -0.01158752  -0.00435371  1
  Cu  Cu87  1  0.66894966  -0.00650868  0.50059910  1
  Cu  Cu88  1  0.33410550  0.66584799  -0.00177154  1
  Cu  Cu89  1  0.49966517  0.81999541  0.25185064  1
  Cu  Cu90  1  0.00001878  0.66543071  0.50246397  1
  Cu  Cu91  1  0.49534403  0.17524560  0.25093528  1
  Cu  Cu92  1  0.33522995  0.66297254  0.50264048  1
  Cu  Cu93  1  0.16742623  0.83627326  0.76145183  1
  Cu  Cu94  1  0.33042291  0.33949040  0.50235957  1
  Cu  Cu95  1  0.49847654  0.50942277  0.74987938  1
  Cu  Cu96  1  0.84324536  0.49738293  0.25267082  1
  Cu  Cu97  1  0.83019710  0.49537627  0.75117549  1
  Cu  Cu98  1  0.66349213  0.66381680  0.50712772  1
  Cu  Cu99  1  0.66720382  0.66166262  -0.00581227  1
  Cu  Cu100  1  0.66503491  0.34409368  -0.00355407  1
  Cu  Cu101  1  0.66894599  0.33480861  0.50431092  1
  Cu  Cu102  1  0.83725383  0.16552090  0.74897683  1
  Cu  Cu103  1  0.34202244  -0.01055169  0.50149405  1
  Cu  Cu104  1  -0.00099164  0.66074482  -0.00565191  1
  Cu  Cu105  1  0.49906381  0.17440436  0.75055119  1
  Cu  Cu106  1  0.84188325  0.83152955  0.23790191  1
  Cu  Cu107  1  0.83292450  0.18187558  0.25211627  1
  Cu  Cu108  1  -0.00201062  0.00202307  0.50650924  1
  Cu  Cu109  1  0.33200723  -0.00399385  -0.00153737  1
  Cu  Cu110  1  -0.00315571  0.33452902  -0.00453624  1
  Cu  Cu111  1  0.16874785  0.16873006  0.75654093  1
  Cu  Cu112  1  0.17038250  0.82431919  0.24533146  1
  Cu  Cu113  1  0.50160460  0.50271839  0.24867608  1
  Cu  Cu114  1  0.16452243  0.50142703  0.24548811  1
  Se  Se115  1  0.05934991  0.07061323  0.05277287  1
  Se  Se116  1  0.08088175  0.08275068  0.56185515  1
  Se  Se117  1  0.07902104  0.41752452  0.05043721  1
  Se  Se118  1  0.08838329  0.41978128  0.56528801  1
  Se  Se119  1  0.08556062  0.74047626  0.04956452  1
  Se  Se120  1  0.06967540  0.74864669  0.56758118  1
  Se  Se121  1  0.40509966  0.07530982  0.06555252  1
  Se  Se122  1  0.41563095  0.07537532  0.56100281  1
  Se  Se123  1  0.41825635  0.41060369  0.04639715  1
  Se  Se124  1  0.41751370  0.42194842  0.55208796  1
  Se  Se125  1  0.41889539  0.75117689  0.05022986  1
  Se  Se126  1  0.41939133  0.74919947  0.55193818  1
  Se  Se127  1  0.74249832  0.07026995  0.05779247  1
  Se  Se128  1  0.75162532  0.08269745  0.54671589  1
  Se  Se129  1  0.75049789  0.42029590  0.05376524  1
  Se  Se130  1  0.74984342  0.41815608  0.55897982  1
  Se  Se131  1  0.75237577  0.74464203  0.04753874  1
  Se  Se132  1  0.74848334  0.73547341  0.56976783  1
  Se  Se133  1  0.25796343  0.25786863  0.04327879  1
  Se  Se134  1  0.24953529  0.26372517  0.56283627  1
  Se  Se135  1  0.25311530  0.58226630  0.05339432  1
  Se  Se136  1  0.24377257  0.58675480  0.55405649  1
  Se  Se137  1  0.24707408  0.91313575  0.05085388  1
  Se  Se138  1  0.26196644  0.91995797  0.56689508  1
  Se  Se139  1  0.59149949  0.25581909  0.05581547  1
  Se  Se140  1  0.58587590  0.25805780  0.56651757  1
  Se  Se141  1  0.58269373  0.58269353  0.05119044  1
  Se  Se142  1  0.57959134  0.57714263  0.55589994  1
  Se  Se143  1  0.58076407  0.90897355  0.04866916  1
  Se  Se144  1  0.58803004  0.90874076  0.55216545  1
  Se  Se145  1  0.91442727  0.25576464  0.05782412  1
  Se  Se146  1  0.91143622  0.24728690  0.55373923  1
  Se  Se147  1  0.91565641  0.57923209  0.05060922  1
  Se  Se148  1  0.91159236  0.58774783  0.55515818  1
  Se  Se149  1  0.91595750  0.91280299  0.03995499  1
  Se  Se150  1  0.92738985  0.91266901  0.56604789  1
  Se  Se151  1  0.07513992  0.26233812  0.44240945  1
  Se  Se152  1  0.08148085  0.24789961  0.94686755  1
  Se  Se153  1  0.08298999  0.58799298  0.44439728  1
  Se  Se154  1  0.08509816  0.57584721  0.94595206  1
  Se  Se155  1  0.08339537  0.92158813  0.45090766  1
  Se  Se156  1  0.09316383  0.89325162  0.94535265  1
  Se  Se157  1  0.41133152  0.25439351  0.44502802  1
  Se  Se158  1  0.42064108  0.25490024  0.93447149  1
  Se  Se159  1  0.41680885  0.57948182  0.44762144  1
  Se  Se160  1  0.41425690  0.58344337  0.94179896  1
  Se  Se161  1  0.42461488  0.90645886  0.44945304  1
  Se  Se162  1  0.42052679  0.91502018  0.95021111  1
  Se  Se163  1  0.75087148  0.25376756  0.44735258  1
  Se  Se164  1  0.74699971  0.26098740  0.93921032  1
  Se  Se165  1  0.75040383  0.58777013  0.45131618  1
  Se  Se166  1  0.75142569  0.58044036  0.94048243  1
  Se  Se167  1  0.75019997  0.92106618  0.43428124  1
  Se  Se168  1  0.74824825  0.90549872  0.94205016  1
  Se  Se169  1  0.26108643  0.07102955  0.44474339  1
  Se  Se170  1  0.24587075  0.08401915  0.95371214  1
  Se  Se171  1  0.24729311  0.41950159  0.44551291  1
  Se  Se172  1  0.24555314  0.41331716  0.94910881  1
  Se  Se173  1  0.25327547  0.73934217  0.43781983  1
  Se  Se174  1  0.24640790  0.74755071  0.94777157  1
  Se  Se175  1  0.59378666  0.07281426  0.43338624  1
  Se  Se176  1  0.59140618  0.07739517  0.94153863  1
  Se  Se177  1  0.58399751  0.41720139  0.45117016  1
  Se  Se178  1  0.58041153  0.42422170  0.94276942  1
  Se  Se179  1  0.58360692  0.74843403  0.45193298  1
  Se  Se180  1  0.58427994  0.74603016  0.94135637  1
  Se  Se181  1  0.91635684  0.08587425  0.45352667  1
  Se  Se182  1  0.92368098  0.07761781  0.93415061  1
  Se  Se183  1  0.90203459  0.43620436  0.44285957  1
  Se  Se184  1  0.91217378  0.42016010  0.94701529  1
  Se  Se185  1  0.92222195  0.75074686  0.44226611  1
  Se  Se186  1  0.91594064  0.74436600  0.94108140  1
  Se  Se187  1  0.23705364  0.24182931  0.30320232  1
  Se  Se188  1  0.24859975  0.25398467  0.80849966  1
  Se  Se189  1  0.25375703  0.58192494  0.29683063  1
  Se  Se190  1  0.23379884  0.56658621  0.80828615  1
  Se  Se191  1  0.24306201  0.90856060  0.30864233  1
  Se  Se192  1  0.24693708  0.91776868  0.81841336  1
  Se  Se193  1  0.58276499  0.25718140  0.29988649  1
  Se  Se194  1  0.58865113  0.25600421  0.79808047  1
  Se  Se195  1  0.58083008  0.57274647  0.31661848  1
  Se  Se196  1  0.58563036  0.59070608  0.80031516  1
  Se  Se197  1  0.58237531  0.90572012  0.30472030  1
  Se  Se198  1  0.57868062  0.91070449  0.80940798  1
  Se  Se199  1  0.91909865  0.25770641  0.30720738  1
  Se  Se200  1  0.91849457  0.25303880  0.80029509  1
  Se  Se201  1  0.92077818  0.58893999  0.30267581  1
  Se  Se202  1  0.91666367  0.57540931  0.80524230  1
  Se  Se203  1  0.91624042  0.91324364  0.30252691  1
  Se  Se204  1  0.92431939  0.91337883  0.79949027  1
  Se  Se205  1  0.08348126  0.09328312  0.30832615  1
  Se  Se206  1  0.08790806  0.07999262  0.80649052  1
  Se  Se207  1  0.08423260  0.42262840  0.30446132  1
  Se  Se208  1  0.06965080  0.40244788  0.80392713  1
  Se  Se209  1  0.08071381  0.74995899  0.30029042  1
  Se  Se210  1  0.08505858  0.74351462  0.80446313  1
  Se  Se211  1  0.41952549  0.08790109  0.30623591  1
  Se  Se212  1  0.42107359  0.09584629  0.81244682  1
  Se  Se213  1  0.42134717  0.42174933  0.31117977  1
  Se  Se214  1  0.41608633  0.42555908  0.80373161  1
  Se  Se215  1  0.41545730  0.74031042  0.30479686  1
  Se  Se216  1  0.41942163  0.75874611  0.80812199  1
  Se  Se217  1  0.75690928  0.09081671  0.30777787  1
  Se  Se218  1  0.76390995  0.08953727  0.81647642  1
  Se  Se219  1  0.75052628  0.41946143  0.30338545  1
  Se  Se220  1  0.74303087  0.41267603  0.80209009  1
  Se  Se221  1  0.76255676  0.75792307  0.30353651  1
  Se  Se222  1  0.76612089  0.75669999  0.79735505  1
  Se  Se223  1  0.23163657  0.08659686  0.19356988  1
  Se  Se224  1  0.24525351  0.09460074  0.68850548  1
  Se  Se225  1  0.24390961  0.42508881  0.18245586  1
  Se  Se226  1  0.26752125  0.41213597  0.70131284  1
  Se  Se227  1  0.25407929  0.74139763  0.19427623  1
  Se  Se228  1  0.24269524  0.75659142  0.69636419  1
  Se  Se229  1  0.57443303  0.09624813  0.18928433  1
  Se  Se230  1  0.57889074  0.09204541  0.69251018  1
  Se  Se231  1  0.58612612  0.42042192  0.19639264  1
  Se  Se232  1  0.57974318  0.42055631  0.69825645  1
  Se  Se233  1  0.58325722  0.74643649  0.18997668  1
  Se  Se234  1  0.57302159  0.75413977  0.70059871  1
  Se  Se235  1  0.90792715  0.10181725  0.18747580  1
  Se  Se236  1  0.92164941  0.08093851  0.69754552  1
  Se  Se237  1  0.92401573  0.41451508  0.19645838  1
  Se  Se238  1  0.91471502  0.41557923  0.69496640  1
  Se  Se239  1  0.92792411  0.74957796  0.18919851  1
  Se  Se240  1  0.88771241  0.76383985  0.71040952  1
  Se  Se241  1  0.08840416  0.26029365  0.19347017  1
  Se  Se242  1  0.08553963  0.24957611  0.70100101  1
  Se  Se243  1  0.08026400  0.58464959  0.19288955  1
  Se  Se244  1  0.06360374  0.59376129  0.69721949  1
  Se  Se245  1  0.09106525  0.90607012  0.18554854  1
  Se  Se246  1  0.08394897  0.91754743  0.70601983  1
  Se  Se247  1  0.41603003  0.24693939  0.18587954  1
  Se  Se248  1  0.41058376  0.25633434  0.70252588  1
  Se  Se249  1  0.41579511  0.58096166  0.19445647  1
  Se  Se250  1  0.41494509  0.58296614  0.68667839  1
  Se  Se251  1  0.42573946  0.90142157  0.18828314  1
  Se  Se252  1  0.42645821  0.91325655  0.69668873  1
  Se  Se253  1  0.74569992  0.25976013  0.19855081  1
  Se  Se254  1  0.75197968  0.24751070  0.69602047  1
  Se  Se255  1  0.76461074  0.57760984  0.18904886  1
  Se  Se256  1  0.74532120  0.58152681  0.70043040  1
  Se  Se257  1  0.75972870  0.91293134  0.18262595  1
  Se  Se258  1  0.75275454  0.92232006  0.68580102  1
