# generated using pymatgen
data_In86Cu29Se144
_symmetry_space_group_name_H-M   'P 1'
_cell_length_a   17.58198064
_cell_length_b   17.57893153
_cell_length_c   23.44508313
_cell_angle_alpha   90.00603415
_cell_angle_beta   89.98378067
_cell_angle_gamma   90.01653976
_symmetry_Int_Tables_number   1
_chemical_formula_structural   In86Cu29Se144
_chemical_formula_sum   'In86 Cu29 Se144'
_cell_volume   7246.22827318
_cell_formula_units_Z   1
loop_
 _symmetry_equiv_pos_site_id
 _symmetry_equiv_pos_as_xyz
  1  'x, y, z'
loop_
 _atom_site_type_symbol
 _atom_site_label
 _atom_site_symmetry_multiplicity
 _atom_site_fract_x
 _atom_site_fract_y
 _atom_site_fract_z
 _atom_site_occupancy
  In  In0  1  -0.01204776  0.16550239  0.12560368  1
  In  In1  1  -0.00264679  0.16894241  0.61213279  1
  In  In2  1  0.00207791  0.50538877  0.12050197  1
  In  In3  1  0.00593527  0.51619429  0.62893305  1
  In  In4  1  -0.00190967  0.83203721  0.12713952  1
  In  In5  1  -0.01077761  0.82309540  0.61943183  1
  In  In6  1  0.33183065  0.15001615  0.12653465  1
  In  In7  1  0.32171355  0.17257802  0.61823605  1
  In  In8  1  0.35011926  0.52424520  0.11629553  1
  In  In9  1  0.33495343  0.49637462  0.62153299  1
  In  In10  1  0.33337267  0.83303142  0.12917671  1
  In  In11  1  0.33885196  0.83135556  0.60902704  1
  In  In12  1  0.67054808  0.17332116  0.11534562  1
  In  In13  1  0.67330960  0.15491690  0.63612970  1
  In  In14  1  0.67309288  0.51489330  0.12303155  1
  In  In15  1  0.66326141  0.50254913  0.63810265  1
  In  In16  1  0.65493050  0.81814087  0.11763414  1
  In  In17  1  0.67284126  0.83482342  0.62460400  1
  In  In18  1  0.16493125  -0.00638107  0.37466821  1
  In  In19  1  0.15556066  -0.00520820  0.87467290  1
  In  In20  1  0.15676533  0.32937893  0.38269633  1
  In  In21  1  0.17718102  0.34046790  0.87300871  1
  In  In22  1  0.17946500  0.68411946  0.36243120  1
  In  In23  1  0.15982541  0.67119198  0.88288863  1
  In  In24  1  0.48288770  -0.01100987  0.36720434  1
  In  In25  1  0.51153834  -0.01412762  0.88347216  1
  In  In26  1  0.50293981  0.33427864  0.37399442  1
  In  In27  1  0.50775245  0.32677637  0.88316750  1
  In  In28  1  0.50765269  0.67419447  0.36708306  1
  In  In29  1  0.50930498  0.65978923  0.88403991  1
  In  In30  1  0.84174428  -0.01469458  0.37991087  1
  In  In31  1  0.82592480  0.00943077  0.88429115  1
  In  In32  1  0.82976584  0.32775225  0.38317789  1
  In  In33  1  0.82316380  0.34363395  0.88110620  1
  In  In34  1  0.84282865  0.67074532  0.36125144  1
  In  In35  1  0.83310855  0.66913318  0.87763239  1
  In  In36  1  0.01286207  0.15404096  0.38812275  1
  In  In37  1  -0.00419561  0.15416465  0.87410591  1
  In  In38  1  -0.00929853  0.51448414  0.36791950  1
  In  In39  1  -0.01562690  0.51300459  0.88669676  1
  In  In40  1  -0.00057380  0.83428107  0.37052426  1
  In  In41  1  0.00554370  0.82669262  0.88434634  1
  In  In42  1  0.33671967  0.14987391  0.37460277  1
  In  In43  1  0.33552686  0.18024646  0.87387790  1
  In  In44  1  0.33012809  0.50669245  0.36664880  1
  In  In45  1  0.33208424  0.50476964  0.88717910  1
  In  In46  1  0.32821032  0.82832611  0.37689815  1
  In  In47  1  0.33720517  0.82787800  0.88408452  1
  In  In48  1  0.66925217  0.17308507  0.37995232  1
  In  In49  1  0.66821368  0.16471460  0.87468888  1
  In  In50  1  0.67153948  0.51559766  0.36561454  1
  In  In51  1  0.66735837  0.50392982  0.87573833  1
  In  In52  1  0.67872683  0.81340000  0.39086106  1
  In  In53  1  0.67051136  0.83326888  0.87730219  1
  In  In54  1  0.17417830  -0.01313180  0.13445494  1
  In  In55  1  0.16758269  -0.00202903  0.61800001  1
  In  In56  1  0.15448331  0.33741701  0.12402818  1
  In  In57  1  0.16495884  0.32826198  0.61543734  1
  In  In58  1  0.16442701  0.67090795  0.12655449  1
  In  In59  1  0.15923395  0.66480281  0.62259501  1
  In  In60  1  0.49212555  -0.01208221  0.11719349  1
  In  In61  1  0.51413571  -0.00004312  0.62719947  1
  In  In62  1  0.50870372  0.34318591  0.11258378  1
  In  In63  1  0.50380167  0.34251861  0.62843294  1
  In  In64  1  0.49704158  0.66430445  0.12960621  1
  In  In65  1  0.51373449  0.67936704  0.61885912  1
  In  In66  1  0.83799508  0.00552743  0.12233504  1
  In  In67  1  0.82945236  -0.00826110  0.61922564  1
  In  In68  1  0.83094750  0.33408256  0.11499426  1
  In  In69  1  0.83084194  0.31989819  0.62631878  1
  In  In70  1  0.82861264  0.66472309  0.12761548  1
  In  In71  1  0.82078207  0.68236257  0.63422525  1
  In  In72  1  0.67116360  0.34277747  0.24217575  1
  In  In73  1  0.33087332  0.33419151  0.25008778  1
  In  In74  1  -0.00199175  0.33815666  0.74368219  1
  In  In75  1  -0.00275711  0.33426615  0.24911005  1
  In  In76  1  0.16661761  0.16560346  -0.00406178  1
  In  In77  1  0.49859420  0.16030569  0.49955507  1
  In  In78  1  0.16805864  0.50118571  0.49833681  1
  In  In79  1  0.83718821  0.50218164  0.49450399  1
  In  In80  1  0.33956623  0.00099208  0.74243880  1
  In  In81  1  0.50149123  0.50378870  0.49875548  1
  In  In82  1  0.33461482  0.33549701  0.74451694  1
  In  In83  1  -0.00577964  -0.00223132  0.75095736  1
  In  In84  1  0.66423277  -0.00541188  0.24669878  1
  In  In85  1  0.34013480  0.66566602  0.74131952  1
  Cu  Cu86  1  0.16543371  0.15255020  0.25678690  1
  Cu  Cu87  1  0.16578416  0.83295586  0.75331303  1
  Cu  Cu88  1  0.15878668  0.50973972  0.75345880  1
  Cu  Cu89  1  0.82937194  0.16794535  0.75234958  1
  Cu  Cu90  1  0.32591574  -0.00506850  0.49394910  1
  Cu  Cu91  1  -0.00037196  0.67363507  0.49489417  1
  Cu  Cu92  1  0.83114460  0.82898838  0.24935329  1
  Cu  Cu93  1  0.33225867  0.33791311  0.00023612  1
  Cu  Cu94  1  0.49793965  0.83250787  0.24741844  1
  Cu  Cu95  1  0.49798601  0.16579613  0.24316258  1
  Cu  Cu96  1  0.16733859  0.50660372  0.24351395  1
  Cu  Cu97  1  0.67029235  0.33126104  0.50387168  1
  Cu  Cu98  1  0.32947825  0.67330179  0.00720200  1
  Cu  Cu99  1  0.50601559  0.16413325  0.75605523  1
  Cu  Cu100  1  0.00122017  -0.00509042  0.00308985  1
  Cu  Cu101  1  0.51360330  0.82801776  0.75188495  1
  Cu  Cu102  1  0.66497172  -0.00371067  0.50323506  1
  Cu  Cu103  1  0.84079487  0.15745184  0.25365339  1
  Cu  Cu104  1  0.66352599  0.33475125  -0.00589590  1
  Cu  Cu105  1  0.83048083  0.83312658  0.75149323  1
  Cu  Cu106  1  0.66953166  0.66804847  -0.00021248  1
  Cu  Cu107  1  0.50654341  0.49848668  0.75803221  1
  Cu  Cu108  1  0.16310186  0.83271914  0.25072269  1
  Cu  Cu109  1  0.00001257  -0.00320140  0.49724957  1
  Cu  Cu110  1  -0.00354440  0.33484282  0.00086121  1
  Cu  Cu111  1  0.83172377  0.50605362  0.75855827  1
  Cu  Cu112  1  0.67013452  0.00052162  0.00037246  1
  Cu  Cu113  1  0.33753373  -0.00257982  0.00321305  1
  Cu  Cu114  1  -0.00184914  0.66831761  0.00629007  1
  Se  Se115  1  0.08306727  0.07839822  0.06240761  1
  Se  Se116  1  0.08312288  0.08036554  0.55114328  1
  Se  Se117  1  0.08193898  0.41840016  0.05084133  1
  Se  Se118  1  0.06975956  0.41810674  0.55812890  1
  Se  Se119  1  0.08331953  0.75379170  0.05596275  1
  Se  Se120  1  0.08421896  0.75114695  0.55256143  1
  Se  Se121  1  0.41955025  0.08602563  0.05201119  1
  Se  Se122  1  0.40684938  0.06982520  0.56055160  1
  Se  Se123  1  0.41620465  0.42355197  0.05080434  1
  Se  Se124  1  0.41041303  0.40326141  0.55276196  1
  Se  Se125  1  0.41785469  0.75195805  0.06016785  1
  Se  Se126  1  0.41721084  0.73744961  0.55024692  1
  Se  Se127  1  0.75405511  0.08540245  0.05253474  1
  Se  Se128  1  0.74557593  0.08297376  0.55616877  1
  Se  Se129  1  0.74083519  0.41702792  0.05432083  1
  Se  Se130  1  0.74555746  0.41830129  0.56173115  1
  Se  Se131  1  0.75419110  0.75005966  0.05353371  1
  Se  Se132  1  0.75675172  0.75606771  0.55397738  1
  Se  Se133  1  0.25437516  0.25419858  0.06114842  1
  Se  Se134  1  0.25042988  0.25461674  0.54634240  1
  Se  Se135  1  0.24380253  0.58560790  0.05493564  1
  Se  Se136  1  0.26079778  0.59247261  0.55665341  1
  Se  Se137  1  0.25209479  0.91667821  0.05694504  1
  Se  Se138  1  0.24428910  0.91140552  0.54910022  1
  Se  Se139  1  0.58137216  0.24858473  0.04758914  1
  Se  Se140  1  0.58752855  0.25107373  0.56217114  1
  Se  Se141  1  0.58225768  0.58893251  0.05514121  1
  Se  Se142  1  0.60088119  0.58597399  0.55570591  1
  Se  Se143  1  0.58538870  0.91530022  0.05152604  1
  Se  Se144  1  0.58138820  0.91255896  0.55519984  1
  Se  Se145  1  0.91564743  0.24663510  0.05132882  1
  Se  Se146  1  0.91472876  0.25760208  0.55096074  1
  Se  Se147  1  0.91139142  0.58354032  0.05521682  1
  Se  Se148  1  0.92003997  0.59582483  0.55816972  1
  Se  Se149  1  0.91550756  0.91467352  0.05628872  1
  Se  Se150  1  0.91629669  0.91400794  0.55156633  1
  Se  Se151  1  0.08056061  0.25081094  0.45367819  1
  Se  Se152  1  0.07583414  0.25815805  0.93620719  1
  Se  Se153  1  0.08119094  0.59228604  0.43649428  1
  Se  Se154  1  0.08164724  0.58407290  0.95104898  1
  Se  Se155  1  0.08153725  0.91154090  0.44378713  1
  Se  Se156  1  0.08821095  0.91458154  0.95094570  1
  Se  Se157  1  0.41207608  0.25303312  0.43896190  1
  Se  Se158  1  0.41456739  0.25066625  0.94948384  1
  Se  Se159  1  0.41130215  0.58912700  0.43772520  1
  Se  Se160  1  0.41405104  0.59069993  0.95174786  1
  Se  Se161  1  0.41466014  0.91282876  0.44569362  1
  Se  Se162  1  0.42032358  0.91159746  0.95059022  1
  Se  Se163  1  0.75246211  0.24380290  0.45406672  1
  Se  Se164  1  0.74948301  0.24834179  0.94539735  1
  Se  Se165  1  0.74901488  0.59598697  0.43922817  1
  Se  Se166  1  0.75172279  0.58308807  0.94592359  1
  Se  Se167  1  0.75078638  0.91493794  0.44997608  1
  Se  Se168  1  0.75333220  0.91432165  0.94898812  1
  Se  Se169  1  0.24491532  0.08265798  0.44415594  1
  Se  Se170  1  0.25951838  0.07422117  0.93719254  1
  Se  Se171  1  0.26029237  0.41210710  0.43845148  1
  Se  Se172  1  0.24428508  0.41971381  0.95062680  1
  Se  Se173  1  0.24186394  0.75072679  0.44664955  1
  Se  Se174  1  0.24608419  0.75263492  0.94968531  1
  Se  Se175  1  0.58548600  0.06991421  0.43637006  1
  Se  Se176  1  0.58570276  0.08329222  0.94589100  1
  Se  Se177  1  0.59807202  0.41232040  0.43938333  1
  Se  Se178  1  0.58056451  0.42425274  0.94569555  1
  Se  Se179  1  0.57128581  0.75063880  0.44851107  1
  Se  Se180  1  0.58531179  0.75337100  0.94785656  1
  Se  Se181  1  0.91134069  0.08035768  0.44762810  1
  Se  Se182  1  0.92044302  0.08343474  0.95150693  1
  Se  Se183  1  0.93204792  0.41187814  0.43926022  1
  Se  Se184  1  0.90991967  0.41918812  0.95104033  1
  Se  Se185  1  0.91341809  0.75040283  0.43847168  1
  Se  Se186  1  0.91501172  0.74999813  0.94993199  1
  Se  Se187  1  0.24173455  0.24273542  0.31124252  1
  Se  Se188  1  0.23971753  0.24297087  0.80022890  1
  Se  Se189  1  0.25202972  0.58842949  0.29647299  1
  Se  Se190  1  0.25053607  0.58305187  0.80913279  1
  Se  Se191  1  0.24938453  0.91360087  0.30541484  1
  Se  Se192  1  0.25130949  0.91151768  0.80874019  1
  Se  Se193  1  0.58064788  0.24340554  0.30208860  1
  Se  Se194  1  0.58516263  0.25261010  0.80732864  1
  Se  Se195  1  0.57404447  0.57663074  0.30043628  1
  Se  Se196  1  0.58631057  0.58947058  0.80566982  1
  Se  Se197  1  0.58267132  0.90446808  0.31133653  1
  Se  Se198  1  0.58973646  0.91734787  0.80526488  1
  Se  Se199  1  0.91550227  0.24191015  0.31403033  1
  Se  Se200  1  0.91244099  0.24834454  0.80986520  1
  Se  Se201  1  0.91015205  0.57779254  0.29166561  1
  Se  Se202  1  0.91937970  0.58913197  0.80615761  1
  Se  Se203  1  0.91419975  0.91548166  0.29986167  1
  Se  Se204  1  0.90977715  0.91074258  0.81576256  1
  Se  Se205  1  0.07556078  0.07530158  0.30745977  1
  Se  Se206  1  0.09306089  0.09180372  0.80186265  1
  Se  Se207  1  0.09286610  0.42451239  0.30712668  1
  Se  Se208  1  0.08188605  0.42564628  0.81195136  1
  Se  Se209  1  0.07578857  0.74704599  0.29939955  1
  Se  Se210  1  0.08405397  0.75134351  0.80824338  1
  Se  Se211  1  0.41643850  0.08236367  0.29671306  1
  Se  Se212  1  0.42214838  0.08502745  0.81319247  1
  Se  Se213  1  0.42791326  0.42322295  0.30425012  1
  Se  Se214  1  0.41727167  0.42212209  0.81284738  1
  Se  Se215  1  0.41367247  0.75260440  0.30401382  1
  Se  Se216  1  0.42456477  0.75235823  0.80876903  1
  Se  Se217  1  0.75146595  0.08472989  0.31135126  1
  Se  Se218  1  0.75056202  0.07994564  0.80520911  1
  Se  Se219  1  0.76415562  0.42012181  0.30919946  1
  Se  Se220  1  0.74742644  0.41811991  0.80489468  1
  Se  Se221  1  0.74314828  0.75122049  0.30304454  1
  Se  Se222  1  0.74953175  0.74886635  0.80664805  1
  Se  Se223  1  0.25302980  0.07680981  0.20149283  1
  Se  Se224  1  0.24070487  0.09001442  0.69192078  1
  Se  Se225  1  0.24633278  0.42291721  0.18552389  1
  Se  Se226  1  0.23455575  0.42748098  0.69096223  1
  Se  Se227  1  0.24830625  0.75086506  0.19687857  1
  Se  Se228  1  0.24701877  0.76054122  0.68840451  1
  Se  Se229  1  0.58094330  0.08821473  0.18398009  1
  Se  Se230  1  0.58611527  0.07620655  0.70430146  1
  Se  Se231  1  0.57412298  0.42936977  0.18961482  1
  Se  Se232  1  0.58569998  0.41075805  0.70397474  1
  Se  Se233  1  0.58346250  0.74775241  0.19793662  1
  Se  Se234  1  0.59456655  0.74696850  0.69575287  1
  Se  Se235  1  0.92196366  0.07620777  0.19861382  1
  Se  Se236  1  0.91048789  0.09182570  0.68943207  1
  Se  Se237  1  0.90813822  0.42007762  0.18778350  1
  Se  Se238  1  0.90471992  0.43070666  0.68828270  1
  Se  Se239  1  0.91566011  0.74748293  0.19520929  1
  Se  Se240  1  0.91899085  0.75129938  0.70075688  1
  Se  Se241  1  0.09100988  0.23692158  0.19517810  1
  Se  Se242  1  0.08666496  0.24311722  0.68840889  1
  Se  Se243  1  0.07823781  0.58628811  0.19384214  1
  Se  Se244  1  0.08014149  0.59787743  0.70222751  1
  Se  Se245  1  0.07778544  0.91637841  0.19907243  1
  Se  Se246  1  0.08616554  0.91026713  0.69041669  1
  Se  Se247  1  0.42213243  0.25042973  0.18437335  1
  Se  Se248  1  0.42557625  0.23661119  0.68991275  1
  Se  Se249  1  0.41072211  0.58959858  0.20150419  1
  Se  Se250  1  0.43323299  0.57150017  0.68734737  1
  Se  Se251  1  0.41638554  0.92042240  0.19732998  1
  Se  Se252  1  0.42711570  0.90072358  0.69028026  1
  Se  Se253  1  0.76227331  0.24003878  0.19350543  1
  Se  Se254  1  0.74526574  0.25277746  0.70090283  1
  Se  Se255  1  0.74879651  0.58467945  0.20026632  1
  Se  Se256  1  0.74961403  0.58749255  0.70101582  1
  Se  Se257  1  0.75257000  0.90694506  0.18505561  1
  Se  Se258  1  0.75202951  0.91951183  0.69646093  1
