# generated using pymatgen
data_In86Cu29Se144
_symmetry_space_group_name_H-M   'P 1'
_cell_length_a   17.54220551
_cell_length_b   17.54228855
_cell_length_c   23.39980623
_cell_angle_alpha   90.00336997
_cell_angle_beta   90.01721348
_cell_angle_gamma   90.00856703
_symmetry_Int_Tables_number   1
_chemical_formula_structural   In86Cu29Se144
_chemical_formula_sum   'In86 Cu29 Se144'
_cell_volume   7200.83203718
_cell_formula_units_Z   1
loop_
 _symmetry_equiv_pos_site_id
 _symmetry_equiv_pos_as_xyz
  1  'x, y, z'
loop_
 _atom_site_type_symbol
 _atom_site_label
 _atom_site_symmetry_multiplicity
 _atom_site_fract_x
 _atom_site_fract_y
 _atom_site_fract_z
 _atom_site_occupancy
  In  In0  1  -0.00865539  0.14528694  0.10781270  1
  In  In1  1  -0.00748266  0.17809944  0.63780575  1
  In  In2  1  -0.01068471  0.50375098  0.12707678  1
  In  In3  1  -0.01035375  0.48837683  0.61678034  1
  In  In4  1  -0.01407911  0.83928289  0.12151804  1
  In  In5  1  -0.00612555  0.84886074  0.63128171  1
  In  In6  1  0.33757963  0.16123762  0.12442841  1
  In  In7  1  0.33077763  0.15524549  0.62615639  1
  In  In8  1  0.33066756  0.49630159  0.14273951  1
  In  In9  1  0.33959495  0.50571527  0.60860999  1
  In  In10  1  0.34736814  0.83629869  0.13560900  1
  In  In11  1  0.34289663  0.83913407  0.62314569  1
  In  In12  1  0.64411011  0.14903744  0.08431566  1
  In  In13  1  0.66699558  0.16182784  0.62854764  1
  In  In14  1  0.67885599  0.50440792  0.12643656  1
  In  In15  1  0.66313727  0.49249012  0.61915641  1
  In  In16  1  0.66510834  0.83325808  0.12359402  1
  In  In17  1  0.66720801  0.83935672  0.62099451  1
  In  In18  1  0.17152272  -0.01136063  0.37489528  1
  In  In19  1  0.17788060  0.01465914  0.87484626  1
  In  In20  1  0.18218217  0.34006975  0.36952885  1
  In  In21  1  0.14590218  0.31955993  0.86672717  1
  In  In22  1  0.17619826  0.65025548  0.37420786  1
  In  In23  1  0.17237889  0.66574021  0.87740050  1
  In  In24  1  0.49875136  0.00298877  0.37849917  1
  In  In25  1  0.50395269  0.00432655  0.87771841  1
  In  In26  1  0.49639816  0.33846828  0.38138377  1
  In  In27  1  0.50249321  0.31408330  0.87547840  1
  In  In28  1  0.50157268  0.67015407  0.36910616  1
  In  In29  1  0.51935892  0.68079963  0.87625666  1
  In  In30  1  0.82548797  0.00046302  0.38104532  1
  In  In31  1  0.83040768  0.00104530  0.87649573  1
  In  In32  1  0.83314807  0.33179517  0.38238007  1
  In  In33  1  0.83033326  0.32594350  0.87580835  1
  In  In34  1  0.81657561  0.68095198  0.37853459  1
  In  In35  1  0.82145845  0.67338067  0.88189731  1
  In  In36  1  -0.01186383  0.15989458  0.37766882  1
  In  In37  1  -0.00585897  0.16178159  0.87792291  1
  In  In38  1  0.00200639  0.49889795  0.38431497  1
  In  In39  1  -0.00634979  0.47671552  0.86901355  1
  In  In40  1  -0.00937368  0.82767868  0.37488371  1
  In  In41  1  -0.02383358  0.84045422  0.88242222  1
  In  In42  1  0.34136361  0.17621132  0.36670458  1
  In  In43  1  0.35712370  0.13717764  0.90065067  1
  In  In44  1  0.33567086  0.50262456  0.36781108  1
  In  In45  1  0.33445262  0.49888600  0.87879229  1
  In  In46  1  0.35409188  0.84716904  0.35652691  1
  In  In47  1  0.33168651  0.86371159  0.88737212  1
  In  In48  1  0.66267256  0.16447444  0.38401661  1
  In  In49  1  0.66569059  0.16290755  0.87617458  1
  In  In50  1  0.66008421  0.50786855  0.38290846  1
  In  In51  1  0.68248288  0.49904082  0.87510618  1
  In  In52  1  0.67336232  0.82468854  0.37424056  1
  In  In53  1  0.64668303  0.86373957  0.90069663  1
  In  In54  1  0.17271153  0.01141031  0.11596552  1
  In  In55  1  0.16305044  0.00930843  0.63776865  1
  In  In56  1  0.17761606  0.32732085  0.12995747  1
  In  In57  1  0.15841623  0.33199344  0.62404855  1
  In  In58  1  0.17707446  0.67007299  0.13013528  1
  In  In59  1  0.18207574  0.66685315  0.61621590  1
  In  In60  1  0.49286527  -0.01470126  0.09994824  1
  In  In61  1  0.49910572  0.00048182  0.62527139  1
  In  In62  1  0.49379816  0.31879443  0.12220759  1
  In  In63  1  0.50970179  0.33942962  0.61914615  1
  In  In64  1  0.49805195  0.69103545  0.14981542  1
  In  In65  1  0.50427969  0.66996535  0.61254020  1
  In  In66  1  0.80867814  -0.01288423  0.08916776  1
  In  In67  1  0.82749510  0.00212348  0.62805419  1
  In  In68  1  0.81067720  0.33154377  0.11394996  1
  In  In69  1  0.83497379  0.32817381  0.62790559  1
  In  In70  1  0.82998560  0.66386874  0.12814545  1
  In  In71  1  0.83133243  0.66523022  0.61782259  1
  In  In72  1  -0.00020119  0.67071905  0.74985836  1
  In  In73  1  0.16275243  0.83567110  0.00991010  1
  In  In74  1  0.50684284  0.49957450  0.00572705  1
  In  In75  1  0.16407995  0.17372663  0.50132750  1
  In  In76  1  0.33121105  0.32091402  0.75110260  1
  In  In77  1  0.67071379  0.67215362  0.74341299  1
  In  In78  1  0.00105496  0.00122936  0.24654223  1
  In  In79  1  0.65799628  -0.00627026  0.23268412  1
  In  In80  1  0.16314926  0.82783516  0.49765483  1
  In  In81  1  0.33684044  0.67567090  0.74245495  1
  In  In82  1  0.01005812  0.66324187  0.24756467  1
  In  In83  1  0.00309812  0.33018504  0.25345543  1
  In  In84  1  0.66439892  0.32994162  0.24241530  1
  In  In85  1  0.16026725  0.49375031  0.00257734  1
  Cu  Cu86  1  0.15976029  0.84929257  0.75849586  1
  Cu  Cu87  1  0.84096445  0.48669059  0.75095955  1
  Cu  Cu88  1  -0.01086028  0.65483515  0.00174597  1
  Cu  Cu89  1  0.34580874  0.67336561  0.01172099  1
  Cu  Cu90  1  0.82164770  0.15704375  0.24021764  1
  Cu  Cu91  1  0.82100763  0.84566944  0.75627135  1
  Cu  Cu92  1  0.50847226  0.48931348  0.74495429  1
  Cu  Cu93  1  0.66507174  0.66151562  0.49671688  1
  Cu  Cu94  1  0.50443099  0.15847334  0.75415408  1
  Cu  Cu95  1  0.16387361  0.49654293  0.74052238  1
  Cu  Cu96  1  0.66108086  -0.00355102  0.50278196  1
  Cu  Cu97  1  0.49348286  0.84664762  0.75453994  1
  Cu  Cu98  1  -0.00588005  0.66810089  0.49446569  1
  Cu  Cu99  1  0.17628120  0.83651250  0.24865547  1
  Cu  Cu100  1  0.83372014  0.50320820  0.25543856  1
  Cu  Cu101  1  0.33814206  0.66529714  0.49062718  1
  Cu  Cu102  1  -0.00104241  0.33559091  0.50469308  1
  Cu  Cu103  1  0.34272488  0.33758305  0.49150355  1
  Cu  Cu104  1  -0.00645860  0.32868742  -0.00679432  1
  Cu  Cu105  1  0.49543495  0.16485847  0.24588335  1
  Cu  Cu106  1  0.33633932  -0.00168365  0.49928483  1
  Cu  Cu107  1  0.66542296  0.67236711  0.00540813  1
  Cu  Cu108  1  -0.01709010  0.00420192  0.50675590  1
  Cu  Cu109  1  0.50180313  0.49913790  0.25684291  1
  Cu  Cu110  1  0.17075875  0.16609978  0.75969631  1
  Cu  Cu111  1  0.67569944  0.32381462  0.50452380  1
  Cu  Cu112  1  0.32473958  0.32475909  0.00443901  1
  Cu  Cu113  1  0.17121635  0.16525274  0.24225852  1
  Cu  Cu114  1  0.83192503  0.16403123  0.75475954  1
  Se  Se115  1  0.08299484  0.07152909  0.04229554  1
  Se  Se116  1  0.07489941  0.08195082  0.56088323  1
  Se  Se117  1  0.07129306  0.40331447  0.06274240  1
  Se  Se118  1  0.08912686  0.41873110  0.55126411  1
  Se  Se119  1  0.07094036  0.73326742  0.06301237  1
  Se  Se120  1  0.06975804  0.74519484  0.56325909  1
  Se  Se121  1  0.43470426  0.10353043  0.05204879  1
  Se  Se122  1  0.41601695  0.08361949  0.55424091  1
  Se  Se123  1  0.40215773  0.41524757  0.05965877  1
  Se  Se124  1  0.42653779  0.41894090  0.54813304  1
  Se  Se125  1  0.42847809  0.75482012  0.06360844  1
  Se  Se126  1  0.41226582  0.75175117  0.55031830  1
  Se  Se127  1  0.77274014  0.11191411  0.03436764  1
  Se  Se128  1  0.74689615  0.08104432  0.55498138  1
  Se  Se129  1  0.73899004  0.42383323  0.04682146  1
  Se  Se130  1  0.75606064  0.41288052  0.55655265  1
  Se  Se131  1  0.75423374  0.75155460  0.05818909  1
  Se  Se132  1  0.74296145  0.74711607  0.55429817  1
  Se  Se133  1  0.24398047  0.23950409  0.05685014  1
  Se  Se134  1  0.26303964  0.26149608  0.55779748  1
  Se  Se135  1  0.25951631  0.58424073  0.05807086  1
  Se  Se136  1  0.24985372  0.58283123  0.54127975  1
  Se  Se137  1  0.26717870  0.91893244  0.05936640  1
  Se  Se138  1  0.24555619  0.92727317  0.55887764  1
  Se  Se139  1  0.59993891  0.28219981  0.05297109  1
  Se  Se140  1  0.58607733  0.24453305  0.55632943  1
  Se  Se141  1  0.58276545  0.59720948  0.06875912  1
  Se  Se142  1  0.58211209  0.57675566  0.54977551  1
  Se  Se143  1  0.62426736  0.94609689  0.05704430  1
  Se  Se144  1  0.57439461  0.91260335  0.55392510  1
  Se  Se145  1  0.91773841  0.25752805  0.06070435  1
  Se  Se146  1  0.91926743  0.24656445  0.55636396  1
  Se  Se147  1  0.90391690  0.57527089  0.05574900  1
  Se  Se148  1  0.91535272  0.58208739  0.55122653  1
  Se  Se149  1  0.93632714  0.93550844  0.04920547  1
  Se  Se150  1  0.90589515  0.91257983  0.55712241  1
  Se  Se151  1  0.07603254  0.26100776  0.43515694  1
  Se  Se152  1  0.08163160  0.24426845  0.94761768  1
  Se  Se153  1  0.08582719  0.58739575  0.44852006  1
  Se  Se154  1  0.07168495  0.58351519  0.93796652  1
  Se  Se155  1  0.06800998  0.92722297  0.44550348  1
  Se  Se156  1  0.08648950  0.91607829  0.93532688  1
  Se  Se157  1  0.42082592  0.24225325  0.44630957  1
  Se  Se158  1  0.41962326  0.25152015  0.95364066  1
  Se  Se159  1  0.42200100  0.58091768  0.43774029  1
  Se  Se160  1  0.41758187  0.59453591  0.94180888  1
  Se  Se161  1  0.41555705  0.91317583  0.44447325  1
  Se  Se162  1  0.43735822  0.91211006  0.95176323  1
  Se  Se163  1  0.75662504  0.24075542  0.44845277  1
  Se  Se164  1  0.75336659  0.24068727  0.94643700  1
  Se  Se165  1  0.75626744  0.58127318  0.44759472  1
  Se  Se166  1  0.74484567  0.58592858  0.95136004  1
  Se  Se167  1  0.74482293  0.91403306  0.44724756  1
  Se  Se168  1  0.77521567  0.89708412  0.94536499  1
  Se  Se169  1  0.25335280  0.08068918  0.44109938  1
  Se  Se170  1  0.24847048  0.07740485  0.95890458  1
  Se  Se171  1  0.25510191  0.42113878  0.44321455  1
  Se  Se172  1  0.24832978  0.40431483  0.93948282  1
  Se  Se173  1  0.25945488  0.75294939  0.43267999  1
  Se  Se174  1  0.25996340  0.74620066  0.94767481  1
  Se  Se175  1  0.57793714  0.08340331  0.45122372  1
  Se  Se176  1  0.57510964  0.09492111  0.94857003  1
  Se  Se177  1  0.59398391  0.40666954  0.44708002  1
  Se  Se178  1  0.58580917  0.41410903  0.93600950  1
  Se  Se179  1  0.58396984  0.74790097  0.44257445  1
  Se  Se180  1  0.57697863  0.75805682  0.95947295  1
  Se  Se181  1  0.90426783  0.08813908  0.45006755  1
  Se  Se182  1  0.89965926  0.09392791  0.94775528  1
  Se  Se183  1  0.91435660  0.41758132  0.44946801  1
  Se  Se184  1  0.90928722  0.41615060  0.94612620  1
  Se  Se185  1  0.90860203  0.75555709  0.44840942  1
  Se  Se186  1  0.91117024  0.74639603  0.95180861  1
  Se  Se187  1  0.25008435  0.24999513  0.29858972  1
  Se  Se188  1  0.25733177  0.23502499  0.82360625  1
  Se  Se189  1  0.25047327  0.57974316  0.29716490  1
  Se  Se190  1  0.24573773  0.57547575  0.80190817  1
  Se  Se191  1  0.25574007  0.92739575  0.29770489  1
  Se  Se192  1  0.25544037  0.92529657  0.80474834  1
  Se  Se193  1  0.57764925  0.24239051  0.30777231  1
  Se  Se194  1  0.58795860  0.24768230  0.80132570  1
  Se  Se195  1  0.58958310  0.58266713  0.30406949  1
  Se  Se196  1  0.58085533  0.57905747  0.80518382  1
  Se  Se197  1  0.58263204  0.91464898  0.30935260  1
  Se  Se198  1  0.58700910  0.91885366  0.80853902  1
  Se  Se199  1  0.90033626  0.23720982  0.30272514  1
  Se  Se200  1  0.91769451  0.24849794  0.80579646  1
  Se  Se201  1  0.91528563  0.58437988  0.31353768  1
  Se  Se202  1  0.90808886  0.58069015  0.81089903  1
  Se  Se203  1  0.90732201  0.91453848  0.30752541  1
  Se  Se204  1  0.91635003  0.92251424  0.80288581  1
  Se  Se205  1  0.09145876  0.09173641  0.30996106  1
  Se  Se206  1  0.08126675  0.08285079  0.80783062  1
  Se  Se207  1  0.08883261  0.42914366  0.30707925  1
  Se  Se208  1  0.08277978  0.41292461  0.79426814  1
  Se  Se209  1  0.09558517  0.75888715  0.31090294  1
  Se  Se210  1  0.08714930  0.75919283  0.81532429  1
  Se  Se211  1  0.41825765  0.08083988  0.30431382  1
  Se  Se212  1  0.41491908  0.08180355  0.80779225  1
  Se  Se213  1  0.41873513  0.40983449  0.30392253  1
  Se  Se214  1  0.42190819  0.41970492  0.80768349  1
  Se  Se215  1  0.41265233  0.74013214  0.29706958  1
  Se  Se216  1  0.41735338  0.76070486  0.81438861  1
  Se  Se217  1  0.74176556  0.08263046  0.30528728  1
  Se  Se218  1  0.74651996  0.07979393  0.80573053  1
  Se  Se219  1  0.75126706  0.41722695  0.30952732  1
  Se  Se220  1  0.74995239  0.41029874  0.80311118  1
  Se  Se221  1  0.74880842  0.75107719  0.29577765  1
  Se  Se222  1  0.74094099  0.76383414  0.81469525  1
  Se  Se223  1  0.25438664  0.07761726  0.19420376  1
  Se  Se224  1  0.25472561  0.08495085  0.70447465  1
  Se  Se225  1  0.24260411  0.41261551  0.20370190  1
  Se  Se226  1  0.25631690  0.42263751  0.68569867  1
  Se  Se227  1  0.25932218  0.74989302  0.19887273  1
  Se  Se228  1  0.23553675  0.76788522  0.69210261  1
  Se  Se229  1  0.57566007  0.09556014  0.17816696  1
  Se  Se230  1  0.58537553  0.07561522  0.69689542  1
  Se  Se231  1  0.57303671  0.42370563  0.18642792  1
  Se  Se232  1  0.59418417  0.40806841  0.69538553  1
  Se  Se233  1  0.60900601  0.75135287  0.20640847  1
  Se  Se234  1  0.56726471  0.75968602  0.69288334  1
  Se  Se235  1  0.90300860  0.07605683  0.18321038  1
  Se  Se236  1  0.91485467  0.08145351  0.69810499  1
  Se  Se237  1  0.90416938  0.41438298  0.19384134  1
  Se  Se238  1  0.92644515  0.40791763  0.69624788  1
  Se  Se239  1  0.91371763  0.75600659  0.19763860  1
  Se  Se240  1  0.89877750  0.75893027  0.69662865  1
  Se  Se241  1  0.07772975  0.23418488  0.18606583  1
  Se  Se242  1  0.09236925  0.24991161  0.70137815  1
  Se  Se243  1  0.09749361  0.56666298  0.19049358  1
  Se  Se244  1  0.08803330  0.58419583  0.68346563  1
  Se  Se245  1  0.09292666  0.90974867  0.18621703  1
  Se  Se246  1  0.07480719  0.92691328  0.70255795  1
  Se  Se247  1  0.40960661  0.25184847  0.19761069  1
  Se  Se248  1  0.42836196  0.24083212  0.68965365  1
  Se  Se249  1  0.42028142  0.58371793  0.20106178  1
  Se  Se250  1  0.42819219  0.57623399  0.68849828  1
  Se  Se251  1  0.44013947  0.92427285  0.19113280  1
  Se  Se252  1  0.40935993  0.92494700  0.69747218  1
  Se  Se253  1  0.73913714  0.23105860  0.17937064  1
  Se  Se254  1  0.75114519  0.24648186  0.69646233  1
  Se  Se255  1  0.75007849  0.58575853  0.20237435  1
  Se  Se256  1  0.76112329  0.57177232  0.69260013  1
  Se  Se257  1  0.76993293  0.91673887  0.18485961  1
  Se  Se258  1  0.73838419  0.92174070  0.69610926  1
