# generated using pymatgen
data_In86Cu29Se144
_symmetry_space_group_name_H-M   'P 1'
_cell_length_a   17.58375264
_cell_length_b   17.58554552
_cell_length_c   23.44984424
_cell_angle_alpha   89.97217311
_cell_angle_beta   90.00389978
_cell_angle_gamma   90.00237490
_symmetry_Int_Tables_number   1
_chemical_formula_structural   In86Cu29Se144
_chemical_formula_sum   'In86 Cu29 Se144'
_cell_volume   7251.15720358
_cell_formula_units_Z   1
loop_
 _symmetry_equiv_pos_site_id
 _symmetry_equiv_pos_as_xyz
  1  'x, y, z'
loop_
 _atom_site_type_symbol
 _atom_site_label
 _atom_site_symmetry_multiplicity
 _atom_site_fract_x
 _atom_site_fract_y
 _atom_site_fract_z
 _atom_site_occupancy
  In  In0  1  0.00173418  0.17337956  0.11967550  1
  In  In1  1  -0.00675685  0.17236348  0.63296454  1
  In  In2  1  0.00220223  0.49710271  0.13610553  1
  In  In3  1  0.00168190  0.49969286  0.62986539  1
  In  In4  1  -0.01118624  0.82967227  0.12543173  1
  In  In5  1  -0.00514333  0.83248459  0.62565803  1
  In  In6  1  0.34094203  0.15672514  0.12293755  1
  In  In7  1  0.33368169  0.15958553  0.63007807  1
  In  In8  1  0.34247842  0.50424007  0.12550653  1
  In  In9  1  0.35397738  0.50518398  0.62354259  1
  In  In10  1  0.34290020  0.82464758  0.13419939  1
  In  In11  1  0.33322736  0.82783162  0.62617271  1
  In  In12  1  0.65097308  0.15627133  0.10599311  1
  In  In13  1  0.66852680  0.15932257  0.64434378  1
  In  In14  1  0.65822167  0.50011304  0.11711222  1
  In  In15  1  0.65108356  0.51519079  0.63972654  1
  In  In16  1  0.66966212  0.83427503  0.11949451  1
  In  In17  1  0.66644215  0.83173894  0.62297499  1
  In  In18  1  0.16844528  -0.01550832  0.37917432  1
  In  In19  1  0.17110040  0.00592474  0.86744612  1
  In  In20  1  0.15861048  0.34697641  0.37380681  1
  In  In21  1  0.16953866  0.34050172  0.87223668  1
  In  In22  1  0.17391317  0.67150030  0.36831885  1
  In  In23  1  0.16767489  0.66581173  0.86425402  1
  In  In24  1  0.48611232  -0.02982237  0.35579634  1
  In  In25  1  0.49932962  -0.00427104  0.87188790  1
  In  In26  1  0.50985803  0.33765151  0.37498270  1
  In  In27  1  0.53727121  0.30811819  0.91638827  1
  In  In28  1  0.48460279  0.68888154  0.39247583  1
  In  In29  1  0.50153992  0.66973719  0.87332459  1
  In  In30  1  0.82145713  -0.00032154  0.37430667  1
  In  In31  1  0.82744158  -0.00054656  0.87306983  1
  In  In32  1  0.83804204  0.32981504  0.37175397  1
  In  In33  1  0.81699346  0.31784787  0.86892139  1
  In  In34  1  0.84240727  0.66854196  0.37924723  1
  In  In35  1  0.83638235  0.67162712  0.86857733  1
  In  In36  1  -0.00887257  0.17425164  0.37185049  1
  In  In37  1  -0.01094039  0.15618533  0.86781045  1
  In  In38  1  0.00505969  0.50145059  0.36245010  1
  In  In39  1  0.00172604  0.49880942  0.86434213  1
  In  In40  1  0.01187763  0.82776410  0.38821175  1
  In  In41  1  -0.01366915  0.82493221  0.86769250  1
  In  In42  1  0.35073832  0.15980246  0.37012729  1
  In  In43  1  0.37825627  0.17367468  0.86838091  1
  In  In44  1  0.33436019  0.53075624  0.36895583  1
  In  In45  1  0.33817617  0.50678849  0.87558341  1
  In  In46  1  0.33205660  0.82745076  0.37552726  1
  In  In47  1  0.34573469  0.84608403  0.86554925  1
  In  In48  1  0.68054118  0.15600358  0.37490064  1
  In  In49  1  0.66456161  0.16545572  0.87356338  1
  In  In50  1  0.65875211  0.50890457  0.38358331  1
  In  In51  1  0.64905827  0.48775627  0.86697922  1
  In  In52  1  0.65845702  0.84216970  0.38826339  1
  In  In53  1  0.66563386  0.83413222  0.87250759  1
  In  In54  1  0.17750249  0.01142978  0.12695073  1
  In  In55  1  0.17695557  -0.01596344  0.63135570  1
  In  In56  1  0.15823703  0.32748276  0.12701184  1
  In  In57  1  0.15990357  0.32949256  0.62559745  1
  In  In58  1  0.16562194  0.66287268  0.13891001  1
  In  In59  1  0.15440882  0.67816838  0.63155205  1
  In  In60  1  0.50040295  -0.00570384  0.12018754  1
  In  In61  1  0.51919299  -0.01556932  0.64510744  1
  In  In62  1  0.49341903  0.33207057  0.10438640  1
  In  In63  1  0.50184111  0.34250528  0.63031506  1
  In  In64  1  0.49667214  0.67072609  0.12316363  1
  In  In65  1  0.50289752  0.66625593  0.62698278  1
  In  In66  1  0.82235583  -0.01130502  0.11275125  1
  In  In67  1  0.83564798  -0.00340927  0.63162924  1
  In  In68  1  0.84108112  0.33086990  0.11720361  1
  In  In69  1  0.83274317  0.33191799  0.63244365  1
  In  In70  1  0.83252088  0.67496766  0.12678266  1
  In  In71  1  0.81766913  0.68347002  0.63307883  1
  In  In72  1  0.83509612  0.16450166  0.50743432  1
  In  In73  1  0.32800300  0.33447489  0.24007222  1
  In  In74  1  0.00379854  -0.00248471  0.25021351  1
  In  In75  1  0.66218258  0.67393742  0.24747824  1
  In  In76  1  0.66978308  0.33031295  0.24012815  1
  In  In77  1  0.17147529  0.50084963  -0.00122873  1
  In  In78  1  0.50597391  0.15771839  0.50633660  1
  In  In79  1  0.33959299  0.33477136  0.75417486  1
  In  In80  1  0.83323386  0.50351359  0.49820623  1
  In  In81  1  0.17459698  0.16711077  0.00124055  1
  In  In82  1  0.82618009  0.50049431  -0.00423946  1
  In  In83  1  0.17046390  0.50565171  0.49766867  1
  In  In84  1  0.16545273  0.16126181  0.49719139  1
  In  In85  1  0.16807931  0.83732915  -0.00204772  1
  Cu  Cu86  1  0.00047011  -0.00388583  0.50890042  1
  Cu  Cu87  1  0.17096037  0.49962298  0.74810139  1
  Cu  Cu88  1  0.16771469  0.17123962  0.24930836  1
  Cu  Cu89  1  0.83283139  0.49658866  0.25101519  1
  Cu  Cu90  1  0.66314894  0.67228122  -0.00344100  1
  Cu  Cu91  1  0.66577393  -0.00430865  -0.00696626  1
  Cu  Cu92  1  0.83225780  0.16959669  0.75593673  1
  Cu  Cu93  1  0.16006137  0.83268940  0.74904152  1
  Cu  Cu94  1  0.49437261  0.50485535  0.24837774  1
  Cu  Cu95  1  0.65918604  -0.00722962  0.50000923  1
  Cu  Cu96  1  0.50066369  0.82901534  0.74931043  1
  Cu  Cu97  1  -0.00291524  0.67137614  0.50426839  1
  Cu  Cu98  1  0.50143066  0.50196054  0.75365371  1
  Cu  Cu99  1  0.33689855  0.33946424  0.50233913  1
  Cu  Cu100  1  0.34446038  0.00158225  -0.00356459  1
  Cu  Cu101  1  0.16380868  0.16797423  0.75004483  1
  Cu  Cu102  1  0.83623215  0.50116247  0.75113460  1
  Cu  Cu103  1  0.83635821  0.83163679  0.24913917  1
  Cu  Cu104  1  0.82945963  0.83907349  0.74940202  1
  Cu  Cu105  1  0.51068853  0.15489529  0.24407861  1
  Cu  Cu106  1  0.83510938  0.16197076  0.24552730  1
  Cu  Cu107  1  0.34055278  -0.01364991  0.50168395  1
  Cu  Cu108  1  0.17221116  0.83354162  0.25422670  1
  Cu  Cu109  1  -0.00541596  0.67033810  -0.00178012  1
  Cu  Cu110  1  0.33557964  0.67114334  0.50184792  1
  Cu  Cu111  1  0.33878005  0.67686762  -0.00268890  1
  Cu  Cu112  1  0.66434833  0.34200305  0.50572460  1
  Cu  Cu113  1  -0.00942380  -0.00444006  -0.00700322  1
  Cu  Cu114  1  -0.00724178  0.32835607  -0.00596858  1
  Se  Se115  1  0.07684367  0.07101704  0.05330328  1
  Se  Se116  1  0.07928516  0.08046862  0.56614085  1
  Se  Se117  1  0.07183622  0.41032610  0.05415142  1
  Se  Se118  1  0.07842064  0.41348635  0.55389653  1
  Se  Se119  1  0.08154798  0.74287603  0.05888872  1
  Se  Se120  1  0.08296509  0.75525370  0.55443849  1
  Se  Se121  1  0.42590227  0.08677772  0.04994807  1
  Se  Se122  1  0.41449988  0.06826149  0.56389871  1
  Se  Se123  1  0.41336547  0.42928650  0.04965311  1
  Se  Se124  1  0.42580315  0.41702380  0.55321734  1
  Se  Se125  1  0.41901939  0.75897995  0.05330114  1
  Se  Se126  1  0.42020604  0.75049425  0.55704694  1
  Se  Se127  1  0.75025867  0.08086738  0.04555094  1
  Se  Se128  1  0.73596809  0.07782315  0.56054827  1
  Se  Se129  1  0.73946355  0.40530933  0.05405298  1
  Se  Se130  1  0.74636389  0.41903929  0.56491822  1
  Se  Se131  1  0.75163152  0.74699752  0.05255319  1
  Se  Se132  1  0.75103766  0.75399215  0.55257259  1
  Se  Se133  1  0.26001555  0.26037698  0.06226923  1
  Se  Se134  1  0.25856184  0.25471140  0.55730946  1
  Se  Se135  1  0.25398671  0.59983461  0.05737292  1
  Se  Se136  1  0.25521529  0.59197629  0.56377079  1
  Se  Se137  1  0.25955446  0.92573902  0.05751113  1
  Se  Se138  1  0.25026533  0.90938897  0.55368565  1
  Se  Se139  1  0.58434460  0.25466148  0.04113700  1
  Se  Se140  1  0.59422681  0.25156487  0.56498448  1
  Se  Se141  1  0.58135238  0.59110081  0.05347925  1
  Se  Se142  1  0.57686108  0.57517048  0.55828329  1
  Se  Se143  1  0.58446134  0.91367694  0.05052085  1
  Se  Se144  1  0.57576500  0.91550049  0.55757870  1
  Se  Se145  1  0.91384657  0.24176594  0.04676270  1
  Se  Se146  1  0.92521812  0.26333429  0.55616966  1
  Se  Se147  1  0.92161104  0.58352378  0.05909053  1
  Se  Se148  1  0.91831582  0.59135689  0.56408750  1
  Se  Se149  1  0.91640047  0.90884721  0.05023419  1
  Se  Se150  1  0.91012481  0.91650371  0.55713724  1
  Se  Se151  1  0.07576303  0.25706988  0.44342692  1
  Se  Se152  1  0.08057701  0.25124404  0.93772536  1
  Se  Se153  1  0.07377861  0.59157414  0.44025901  1
  Se  Se154  1  0.07649615  0.59020778  0.94055550  1
  Se  Se155  1  0.08857468  0.91718379  0.45619408  1
  Se  Se156  1  0.07698658  0.92129448  0.93462215  1
  Se  Se157  1  0.41693058  0.25409621  0.44442120  1
  Se  Se158  1  0.40858004  0.25504237  0.95431811  1
  Se  Se159  1  0.41656360  0.58145039  0.45107619  1
  Se  Se160  1  0.41810441  0.58905377  0.94533983  1
  Se  Se161  1  0.42192498  0.90830769  0.44316752  1
  Se  Se162  1  0.42248881  0.91097283  0.94602846  1
  Se  Se163  1  0.74322358  0.25938280  0.44567018  1
  Se  Se164  1  0.74792380  0.24406521  0.94632928  1
  Se  Se165  1  0.74059011  0.59996797  0.44717512  1
  Se  Se166  1  0.74017317  0.59056305  0.93480760  1
  Se  Se167  1  0.75571246  0.91847484  0.45146219  1
  Se  Se168  1  0.75237235  0.91167376  0.94350115  1
  Se  Se169  1  0.26652069  0.07479281  0.44253770  1
  Se  Se170  1  0.26273167  0.08193386  0.93737391  1
  Se  Se171  1  0.26314119  0.41657109  0.43711647  1
  Se  Se172  1  0.26182643  0.40765729  0.94451020  1
  Se  Se173  1  0.24728558  0.74723243  0.44594364  1
  Se  Se174  1  0.25450558  0.74843652  0.93515049  1
  Se  Se175  1  0.58509184  0.07302048  0.43548131  1
  Se  Se176  1  0.58129845  0.07852947  0.94122590  1
  Se  Se177  1  0.57971326  0.41966897  0.44977230  1
  Se  Se178  1  0.58296264  0.43619045  0.95642300  1
  Se  Se179  1  0.58854991  0.74854351  0.45367099  1
  Se  Se180  1  0.58001457  0.75541702  0.94332211  1
  Se  Se181  1  0.92559028  0.07595162  0.44369135  1
  Se  Se182  1  0.91030292  0.08409609  0.94357050  1
  Se  Se183  1  0.92431152  0.41445250  0.43857266  1
  Se  Se184  1  0.91836867  0.41323236  0.93463140  1
  Se  Se185  1  0.91380230  0.75547888  0.45139554  1
  Se  Se186  1  0.91068315  0.75138477  0.94573019  1
  Se  Se187  1  0.24854459  0.24661286  0.31342430  1
  Se  Se188  1  0.25055869  0.23911179  0.81305771  1
  Se  Se189  1  0.22662305  0.56576721  0.30234460  1
  Se  Se190  1  0.25482465  0.58033427  0.80188110  1
  Se  Se191  1  0.25440713  0.91870188  0.30571353  1
  Se  Se192  1  0.24605730  0.91427420  0.80145409  1
  Se  Se193  1  0.58306652  0.23919938  0.30699366  1
  Se  Se194  1  0.57308292  0.25679648  0.81803041  1
  Se  Se195  1  0.57540526  0.58238269  0.30858531  1
  Se  Se196  1  0.58624941  0.59012831  0.80234567  1
  Se  Se197  1  0.60527051  0.92165135  0.30492481  1
  Se  Se198  1  0.58343869  0.91492794  0.80167858  1
  Se  Se199  1  0.91349244  0.25031521  0.29730122  1
  Se  Se200  1  0.91998901  0.25552291  0.80355591  1
  Se  Se201  1  0.91041125  0.58436820  0.30411072  1
  Se  Se202  1  0.92009713  0.58748893  0.80108840  1
  Se  Se203  1  0.91542308  0.91031777  0.31271789  1
  Se  Se204  1  0.91500414  0.92106739  0.80266209  1
  Se  Se205  1  0.09243243  0.08914678  0.31293426  1
  Se  Se206  1  0.08011698  0.08128220  0.80063499  1
  Se  Se207  1  0.07402685  0.40523668  0.29735114  1
  Se  Se208  1  0.08780992  0.41436622  0.79938078  1
  Se  Se209  1  0.08208700  0.75666071  0.30704287  1
  Se  Se210  1  0.07759873  0.74732433  0.80162054  1
  Se  Se211  1  0.42060678  0.07795056  0.29641186  1
  Se  Se212  1  0.40135087  0.06206639  0.80312036  1
  Se  Se213  1  0.41748094  0.41931419  0.30824887  1
  Se  Se214  1  0.42924288  0.41772909  0.81615642  1
  Se  Se215  1  0.41577112  0.74565071  0.30709587  1
  Se  Se216  1  0.41469216  0.74667845  0.80189128  1
  Se  Se217  1  0.75115951  0.07915655  0.29714215  1
  Se  Se218  1  0.74657932  0.08273107  0.80316661  1
  Se  Se219  1  0.74686078  0.42348556  0.31096589  1
  Se  Se220  1  0.75143994  0.41968746  0.80522800  1
  Se  Se221  1  0.75431942  0.75558695  0.31177186  1
  Se  Se222  1  0.74860498  0.75186879  0.80202131  1
  Se  Se223  1  0.25514245  0.09023120  0.19933943  1
  Se  Se224  1  0.24535841  0.08344917  0.69647740  1
  Se  Se225  1  0.23655292  0.42943764  0.18723246  1
  Se  Se226  1  0.25118658  0.42078850  0.68595877  1
  Se  Se227  1  0.25329040  0.74759515  0.20099870  1
  Se  Se228  1  0.24811964  0.74956993  0.69811921  1
  Se  Se229  1  0.59162423  0.07596153  0.18727419  1
  Se  Se230  1  0.57191377  0.09162566  0.70769739  1
  Se  Se231  1  0.56914523  0.41949134  0.18856448  1
  Se  Se232  1  0.58558480  0.41299977  0.70413513  1
  Se  Se233  1  0.57227718  0.76641355  0.19224477  1
  Se  Se234  1  0.58667892  0.74900908  0.69527846  1
  Se  Se235  1  0.91489560  0.08071259  0.18480994  1
  Se  Se236  1  0.91279429  0.08616114  0.69872795  1
  Se  Se237  1  0.90941844  0.41126514  0.19442744  1
  Se  Se238  1  0.91871687  0.41624929  0.69732990  1
  Se  Se239  1  0.91961501  0.74494838  0.20008474  1
  Se  Se240  1  0.91496536  0.75259229  0.69876873  1
  Se  Se241  1  0.07787702  0.24702112  0.19732816  1
  Se  Se242  1  0.08141272  0.25393054  0.69906269  1
  Se  Se243  1  0.06784630  0.59361764  0.20062740  1
  Se  Se244  1  0.08360223  0.58263749  0.69775590  1
  Se  Se245  1  0.09466317  0.90923972  0.18752207  1
  Se  Se246  1  0.07695824  0.91698135  0.69543129  1
  Se  Se247  1  0.43229181  0.24625195  0.18968908  1
  Se  Se248  1  0.42639663  0.24099663  0.69375435  1
  Se  Se249  1  0.41420460  0.59178594  0.19638504  1
  Se  Se250  1  0.41865336  0.58645651  0.70061038  1
  Se  Se251  1  0.40366308  0.93362244  0.19104056  1
  Se  Se252  1  0.41207628  0.91148306  0.69814194  1
  Se  Se253  1  0.75378891  0.23607643  0.18095628  1
  Se  Se254  1  0.74879760  0.25479804  0.70302706  1
  Se  Se255  1  0.75103285  0.57380240  0.18981901  1
  Se  Se256  1  0.75137013  0.58618922  0.70070765  1
  Se  Se257  1  0.75477143  0.91096482  0.19203972  1
  Se  Se258  1  0.74295268  0.91912077  0.69518388  1
