# generated using pymatgen
data_In86Cu29Se144
_symmetry_space_group_name_H-M   'P 1'
_cell_length_a   17.57872916
_cell_length_b   17.57544525
_cell_length_c   23.44037229
_cell_angle_alpha   89.97739359
_cell_angle_beta   89.97485532
_cell_angle_gamma   89.98404482
_symmetry_Int_Tables_number   1
_chemical_formula_structural   In86Cu29Se144
_chemical_formula_sum   'In86 Cu29 Se144'
_cell_volume   7241.99504592
_cell_formula_units_Z   1
loop_
 _symmetry_equiv_pos_site_id
 _symmetry_equiv_pos_as_xyz
  1  'x, y, z'
loop_
 _atom_site_type_symbol
 _atom_site_label
 _atom_site_symmetry_multiplicity
 _atom_site_fract_x
 _atom_site_fract_y
 _atom_site_fract_z
 _atom_site_occupancy
  In  In0  1  0.01105856  0.18258173  0.11486053  1
  In  In1  1  0.00287173  0.16781138  0.62270057  1
  In  In2  1  -0.00481307  0.47379109  0.12713455  1
  In  In3  1  0.00847686  0.48683499  0.63527785  1
  In  In4  1  -0.00257218  0.84378563  0.11633653  1
  In  In5  1  -0.01294595  0.84880154  0.63727881  1
  In  In6  1  0.31877705  0.17964368  0.13416483  1
  In  In7  1  0.33988947  0.18238412  0.62705506  1
  In  In8  1  0.33394017  0.50027443  0.12023257  1
  In  In9  1  0.31814445  0.49765472  0.62072013  1
  In  In10  1  0.34251347  0.81912461  0.13106132  1
  In  In11  1  0.33791051  0.84012217  0.62506785  1
  In  In12  1  0.68061399  0.16844400  0.11820517  1
  In  In13  1  0.66729155  0.14894653  0.62872041  1
  In  In14  1  0.66599936  0.51252426  0.13383686  1
  In  In15  1  0.67895779  0.50529356  0.62816128  1
  In  In16  1  0.65619335  0.82438660  0.11334831  1
  In  In17  1  0.68358960  0.81648862  0.64393701  1
  In  In18  1  0.17806484  0.00746398  0.37222726  1
  In  In19  1  0.17097400  0.01653670  0.87614621  1
  In  In20  1  0.16668243  0.33131675  0.37364251  1
  In  In21  1  0.16467199  0.33196075  0.87737611  1
  In  In22  1  0.16230681  0.65425161  0.37482616  1
  In  In23  1  0.15397942  0.66570602  0.87650697  1
  In  In24  1  0.49652406  0.01171814  0.36912086  1
  In  In25  1  0.49714713  -0.01817193  0.87853253  1
  In  In26  1  0.50084782  0.33411503  0.36214682  1
  In  In27  1  0.50233266  0.34959922  0.87959695  1
  In  In28  1  0.50036831  0.66699642  0.36877950  1
  In  In29  1  0.50565175  0.66434931  0.87704872  1
  In  In30  1  0.83722112  -0.00139232  0.38279440  1
  In  In31  1  0.83032128  0.00287679  0.87095969  1
  In  In32  1  0.82746528  0.32601177  0.36721530  1
  In  In33  1  0.83081327  0.31106253  0.87678803  1
  In  In34  1  0.83041802  0.67599477  0.37705502  1
  In  In35  1  0.83867623  0.67568694  0.87090709  1
  In  In36  1  -0.00170553  0.17001902  0.37972394  1
  In  In37  1  0.00117548  0.16692528  0.87114491  1
  In  In38  1  0.01471876  0.50220305  0.37702105  1
  In  In39  1  0.00609523  0.50441934  0.87156198  1
  In  In40  1  -0.01237235  0.82305136  0.38010160  1
  In  In41  1  -0.01213577  0.82638207  0.86781222  1
  In  In42  1  0.32566316  0.16611775  0.36176355  1
  In  In43  1  0.31139451  0.15768775  0.88211950  1
  In  In44  1  0.31924180  0.48522530  0.36407155  1
  In  In45  1  0.34183638  0.49083560  0.88521439  1
  In  In46  1  0.33792519  0.83525270  0.36408232  1
  In  In47  1  0.35061170  0.84417540  0.88350262  1
  In  In48  1  0.66798405  0.17395928  0.37313219  1
  In  In49  1  0.68370105  0.17651999  0.87625370  1
  In  In50  1  0.67411905  0.50155172  0.36123532  1
  In  In51  1  0.65031601  0.49834304  0.87819956  1
  In  In52  1  0.67772144  0.82985660  0.37732149  1
  In  In53  1  0.66498250  0.83746538  0.87145294  1
  In  In54  1  0.17052453  0.01856945  0.11987765  1
  In  In55  1  0.15137811  -0.00076571  0.62579945  1
  In  In56  1  0.16248289  0.33344465  0.12411235  1
  In  In57  1  0.16964345  0.33133096  0.62348211  1
  In  In58  1  0.18344063  0.66473164  0.12458089  1
  In  In59  1  0.16767513  0.64965573  0.62391042  1
  In  In60  1  0.49526267  -0.01374019  0.11814958  1
  In  In61  1  0.51477527  0.00518074  0.64000486  1
  In  In62  1  0.49528054  0.34222128  0.12550085  1
  In  In63  1  0.49441153  0.31408062  0.63505583  1
  In  In64  1  0.50295773  0.66300629  0.12142900  1
  In  In65  1  0.51914784  0.67317984  0.62873529  1
  In  In66  1  0.83688150  -0.00007854  0.11261527  1
  In  In67  1  0.83581187  0.00097260  0.62487209  1
  In  In68  1  0.84351862  0.33085091  0.13571571  1
  In  In69  1  0.85037368  0.33843858  0.62476293  1
  In  In70  1  0.81637223  0.66047622  0.12376958  1
  In  In71  1  0.82559635  0.67711343  0.63315503  1
  In  In72  1  0.83190218  0.49540832  0.00477429  1
  In  In73  1  0.15411012  0.83009364  0.49715283  1
  In  In74  1  0.33088266  0.66250785  0.75226483  1
  In  In75  1  0.33320883  0.00500980  0.75569580  1
  In  In76  1  0.16966500  0.83607047  -0.00335438  1
  In  In77  1  -0.00374665  0.66048677  0.25239766  1
  In  In78  1  0.00425950  0.00649704  0.25369095  1
  In  In79  1  0.84039169  0.50249503  0.49382497  1
  In  In80  1  0.49546733  0.16442199  -0.00017793  1
  In  In81  1  0.66042977  -0.00293067  0.24604435  1
  In  In82  1  0.66896417  0.33814813  0.75305412  1
  In  In83  1  0.49885249  0.49709032  0.50228245  1
  In  In84  1  0.49960914  0.16558268  0.50222195  1
  In  In85  1  0.50355503  0.83524091  0.50452755  1
  Cu  Cu86  1  -0.00079470  0.32710787  -0.00090361  1
  Cu  Cu87  1  0.83910419  0.16460236  0.74741318  1
  Cu  Cu88  1  0.16671965  0.48952709  0.75008146  1
  Cu  Cu89  1  -0.00009965  0.66106868  -0.00429589  1
  Cu  Cu90  1  0.83851246  0.16688792  0.24755076  1
  Cu  Cu91  1  0.00919174  0.33005034  0.50307790  1
  Cu  Cu92  1  0.49505188  0.50372824  0.75361553  1
  Cu  Cu93  1  0.17080188  0.83654720  0.24785374  1
  Cu  Cu94  1  0.50150827  0.82440174  0.24219036  1
  Cu  Cu95  1  0.32606952  0.33219948  0.49482761  1
  Cu  Cu96  1  0.33073252  0.00691235  0.49811425  1
  Cu  Cu97  1  -0.00822405  0.66823691  0.50634368  1
  Cu  Cu98  1  0.82539831  0.82701261  0.24597068  1
  Cu  Cu99  1  0.67715626  -0.00518132  0.50483162  1
  Cu  Cu100  1  -0.00325637  0.00533424  0.50429271  1
  Cu  Cu101  1  0.16333834  0.83062156  0.75253220  1
  Cu  Cu102  1  0.16211341  0.17185950  0.74959996  1
  Cu  Cu103  1  0.34217518  0.66439953  0.00203800  1
  Cu  Cu104  1  0.33240839  0.66068013  0.49572499  1
  Cu  Cu105  1  0.16915893  0.49764709  0.24761808  1
  Cu  Cu106  1  0.67113862  0.32990498  0.49221417  1
  Cu  Cu107  1  0.49640930  0.50584523  0.24483349  1
  Cu  Cu108  1  0.32636322  0.33248416  0.00518644  1
  Cu  Cu109  1  0.82899649  0.84009560  0.75231289  1
  Cu  Cu110  1  -0.00841597  0.00196368  -0.00739529  1
  Cu  Cu111  1  0.49561209  0.16743310  0.24422873  1
  Cu  Cu112  1  0.83614871  0.50600441  0.75292193  1
  Cu  Cu113  1  0.67165830  -0.00122991  -0.00462894  1
  Cu  Cu114  1  0.66576530  0.66959737  -0.00134258  1
  Se  Se115  1  0.07527463  0.08053683  0.04956419  1
  Se  Se116  1  0.08725939  0.08606521  0.55126984  1
  Se  Se117  1  0.08122669  0.41445151  0.05004101  1
  Se  Se118  1  0.08648011  0.41909347  0.55623513  1
  Se  Se119  1  0.08085898  0.74194786  0.05785683  1
  Se  Se120  1  0.07377862  0.74678871  0.56795157  1
  Se  Se121  1  0.40594079  0.08558540  0.06645128  1
  Se  Se122  1  0.41394658  0.07269500  0.56495212  1
  Se  Se123  1  0.41604080  0.41724379  0.05001056  1
  Se  Se124  1  0.41182164  0.40101551  0.56025338  1
  Se  Se125  1  0.42299931  0.75176258  0.05290973  1
  Se  Se126  1  0.40935223  0.73752435  0.55909041  1
  Se  Se127  1  0.75420904  0.08479778  0.04600345  1
  Se  Se128  1  0.75508223  0.08687227  0.55405656  1
  Se  Se129  1  0.74640368  0.41238014  0.07007929  1
  Se  Se130  1  0.74748952  0.41065587  0.55523796  1
  Se  Se131  1  0.75383701  0.75061082  0.04972899  1
  Se  Se132  1  0.74491357  0.74919871  0.55894822  1
  Se  Se133  1  0.24198823  0.24693577  0.05365972  1
  Se  Se134  1  0.25117996  0.24618309  0.55317947  1
  Se  Se135  1  0.25098187  0.58286843  0.04851557  1
  Se  Se136  1  0.24528775  0.57883211  0.54604705  1
  Se  Se137  1  0.25451122  0.91382563  0.06628649  1
  Se  Se138  1  0.25187931  0.92044695  0.55442796  1
  Se  Se139  1  0.58482244  0.25456200  0.05895153  1
  Se  Se140  1  0.59325022  0.25640810  0.55961364  1
  Se  Se141  1  0.58919599  0.58146050  0.05350863  1
  Se  Se142  1  0.59524680  0.58804483  0.55511701  1
  Se  Se143  1  0.58378858  0.91737492  0.04639443  1
  Se  Se144  1  0.59249231  0.92259994  0.56613623  1
  Se  Se145  1  0.90874011  0.25235909  0.05382331  1
  Se  Se146  1  0.91849274  0.25069378  0.55271523  1
  Se  Se147  1  0.92505687  0.58575581  0.06412309  1
  Se  Se148  1  0.91977666  0.58240924  0.56855956  1
  Se  Se149  1  0.91230653  0.91176173  0.04274288  1
  Se  Se150  1  0.91680055  0.91565749  0.55429893  1
  Se  Se151  1  0.08910274  0.24760872  0.44590580  1
  Se  Se152  1  0.08304914  0.24454119  0.94471702  1
  Se  Se153  1  0.07912203  0.58972439  0.45247313  1
  Se  Se154  1  0.08621830  0.57654987  0.94903407  1
  Se  Se155  1  0.07195937  0.92782218  0.43582807  1
  Se  Se156  1  0.07560710  0.92010899  0.93468360  1
  Se  Se157  1  0.41554558  0.25551951  0.43817687  1
  Se  Se158  1  0.40541592  0.25643410  0.93972682  1
  Se  Se159  1  0.41032844  0.58024262  0.43568726  1
  Se  Se160  1  0.42504549  0.58113632  0.94693937  1
  Se  Se161  1  0.41262077  0.92531391  0.44123278  1
  Se  Se162  1  0.41056266  0.92988161  0.95904142  1
  Se  Se163  1  0.75593099  0.24421715  0.44453717  1
  Se  Se164  1  0.74154238  0.26150447  0.95482251  1
  Se  Se165  1  0.73961534  0.58746604  0.44184254  1
  Se  Se166  1  0.74820172  0.58766908  0.93973926  1
  Se  Se167  1  0.75539220  0.91121732  0.44838646  1
  Se  Se168  1  0.75367213  0.91476384  0.94082810  1
  Se  Se169  1  0.25421818  0.09206583  0.44315442  1
  Se  Se170  1  0.24707832  0.07415367  0.95855117  1
  Se  Se171  1  0.24435037  0.41985529  0.44553981  1
  Se  Se172  1  0.24559117  0.41632029  0.94793207  1
  Se  Se173  1  0.25595397  0.74852621  0.43877068  1
  Se  Se174  1  0.26107602  0.74136512  0.93804717  1
  Se  Se175  1  0.59391868  0.07268567  0.44370129  1
  Se  Se176  1  0.59048477  0.08139609  0.93723988  1
  Se  Se177  1  0.58840865  0.41151130  0.43748396  1
  Se  Se178  1  0.58629162  0.41573015  0.95405553  1
  Se  Se179  1  0.58739489  0.74273063  0.44333208  1
  Se  Se180  1  0.58427378  0.75355631  0.94343048  1
  Se  Se181  1  0.91434041  0.08759112  0.44818128  1
  Se  Se182  1  0.91176976  0.08911048  0.93960978  1
  Se  Se183  1  0.92728034  0.40538775  0.43863434  1
  Se  Se184  1  0.91981312  0.41018129  0.93861177  1
  Se  Se185  1  0.90753920  0.75054910  0.45451208  1
  Se  Se186  1  0.91818036  0.74881865  0.94727798  1
  Se  Se187  1  0.26665851  0.27396809  0.30382989  1
  Se  Se188  1  0.24715057  0.24686643  0.80773032  1
  Se  Se189  1  0.24800703  0.58630570  0.30118109  1
  Se  Se190  1  0.24330179  0.57223071  0.81287620  1
  Se  Se191  1  0.25188113  0.92133180  0.30152621  1
  Se  Se192  1  0.24517755  0.90710273  0.81385550  1
  Se  Se193  1  0.58356037  0.24338909  0.29952469  1
  Se  Se194  1  0.57937775  0.25156495  0.81401355  1
  Se  Se195  1  0.58241521  0.58482412  0.30054344  1
  Se  Se196  1  0.58370478  0.58397027  0.80268142  1
  Se  Se197  1  0.57447455  0.90512092  0.30993814  1
  Se  Se198  1  0.58592735  0.92454231  0.80347432  1
  Se  Se199  1  0.92074299  0.24661647  0.30417936  1
  Se  Se200  1  0.91888355  0.25118286  0.80047808  1
  Se  Se201  1  0.90813974  0.57430901  0.31539703  1
  Se  Se202  1  0.92150065  0.58850235  0.80525343  1
  Se  Se203  1  0.90774486  0.90763769  0.30473525  1
  Se  Se204  1  0.91714888  0.92229108  0.80201895  1
  Se  Se205  1  0.09558430  0.09934523  0.30678368  1
  Se  Se206  1  0.08404557  0.08232764  0.80155565  1
  Se  Se207  1  0.08499149  0.41812892  0.30370000  1
  Se  Se208  1  0.08078725  0.41125753  0.80545871  1
  Se  Se209  1  0.08775366  0.75910833  0.30877765  1
  Se  Se210  1  0.07948970  0.74553629  0.80286365  1
  Se  Se211  1  0.41346074  0.08182205  0.29643261  1
  Se  Se212  1  0.41979196  0.09000555  0.81981296  1
  Se  Se213  1  0.41605586  0.41841525  0.29745175  1
  Se  Se214  1  0.41476218  0.41778017  0.80510824  1
  Se  Se215  1  0.41581240  0.74554620  0.29920500  1
  Se  Se216  1  0.41995458  0.75531094  0.80841613  1
  Se  Se217  1  0.75775883  0.08202031  0.30558585  1
  Se  Se218  1  0.74963304  0.08931805  0.80126173  1
  Se  Se219  1  0.73841088  0.40015587  0.30022393  1
  Se  Se220  1  0.75873824  0.42500051  0.81614651  1
  Se  Se221  1  0.74521241  0.74539100  0.30153290  1
  Se  Se222  1  0.74866392  0.75124907  0.80371794  1
  Se  Se223  1  0.24412896  0.08522920  0.19923400  1
  Se  Se224  1  0.24335985  0.08891776  0.68906681  1
  Se  Se225  1  0.25031393  0.41802331  0.18914110  1
  Se  Se226  1  0.25370700  0.41195352  0.69569274  1
  Se  Se227  1  0.25203580  0.74586317  0.20087513  1
  Se  Se228  1  0.24323677  0.75652979  0.68881493  1
  Se  Se229  1  0.57666650  0.08838335  0.18263328  1
  Se  Se230  1  0.56752143  0.11142059  0.70294073  1
  Se  Se231  1  0.58136680  0.42029146  0.19517516  1
  Se  Se232  1  0.57522723  0.42476442  0.68877805  1
  Se  Se233  1  0.58941814  0.74463951  0.19165500  1
  Se  Se234  1  0.57525144  0.75899844  0.70484431  1
  Se  Se235  1  0.91495204  0.08641405  0.18583115  1
  Se  Se236  1  0.92230220  0.08281110  0.69208180  1
  Se  Se237  1  0.91418456  0.41909589  0.20706771  1
  Se  Se238  1  0.91668502  0.41525407  0.70444629  1
  Se  Se239  1  0.91530441  0.75561256  0.18733794  1
  Se  Se240  1  0.91464703  0.75264257  0.70172894  1
  Se  Se241  1  0.07753122  0.25501992  0.19431931  1
  Se  Se242  1  0.08160136  0.25368459  0.69253239  1
  Se  Se243  1  0.08750439  0.57810791  0.18740408  1
  Se  Se244  1  0.08660499  0.58089186  0.70004251  1
  Se  Se245  1  0.08874586  0.91359186  0.18898081  1
  Se  Se246  1  0.08276413  0.92048675  0.70325077  1
  Se  Se247  1  0.41535355  0.25706658  0.19492460  1
  Se  Se248  1  0.41063014  0.24771002  0.70870513  1
  Se  Se249  1  0.41277979  0.58723376  0.18993171  1
  Se  Se250  1  0.42060601  0.57840131  0.68463396  1
  Se  Se251  1  0.41862931  0.91478245  0.19628880  1
  Se  Se252  1  0.42462185  0.90978431  0.69842763  1
  Se  Se253  1  0.74904660  0.24590368  0.19664018  1
  Se  Se254  1  0.75706392  0.24904970  0.68832663  1
  Se  Se255  1  0.75748020  0.58241936  0.20364400  1
  Se  Se256  1  0.74819757  0.58726168  0.70259137  1
  Se  Se257  1  0.75309659  0.91222579  0.18429879  1
  Se  Se258  1  0.74898972  0.92723039  0.69781020  1
