# generated using pymatgen
data_In86Cu29Se144
_symmetry_space_group_name_H-M   'P 1'
_cell_length_a   17.58068612
_cell_length_b   17.58514959
_cell_length_c   23.43930715
_cell_angle_alpha   90.00759281
_cell_angle_beta   89.96770240
_cell_angle_gamma   89.98954466
_symmetry_Int_Tables_number   1
_chemical_formula_structural   In86Cu29Se144
_chemical_formula_sum   'In86 Cu29 Se144'
_cell_volume   7246.47131385
_cell_formula_units_Z   1
loop_
 _symmetry_equiv_pos_site_id
 _symmetry_equiv_pos_as_xyz
  1  'x, y, z'
loop_
 _atom_site_type_symbol
 _atom_site_label
 _atom_site_symmetry_multiplicity
 _atom_site_fract_x
 _atom_site_fract_y
 _atom_site_fract_z
 _atom_site_occupancy
  In  In0  1  0.00460751  0.18360299  0.12322485  1
  In  In1  1  -0.00614288  0.16135271  0.62373788  1
  In  In2  1  -0.00655763  0.51395108  0.13282014  1
  In  In3  1  0.02107582  0.50732012  0.62474224  1
  In  In4  1  -0.00831449  0.82284995  0.12144864  1
  In  In5  1  -0.00789176  0.82021742  0.61978877  1
  In  In6  1  0.36239380  0.18035553  0.10969050  1
  In  In7  1  0.34510434  0.15291425  0.64401657  1
  In  In8  1  0.33404244  0.48475450  0.12526756  1
  In  In9  1  0.31391103  0.49635117  0.62895900  1
  In  In10  1  0.33934803  0.84666351  0.10753970  1
  In  In11  1  0.34180799  0.84154284  0.61536755  1
  In  In12  1  0.67778417  0.18717110  0.10336331  1
  In  In13  1  0.66342044  0.18254519  0.62998166  1
  In  In14  1  0.66920856  0.49776145  0.11768454  1
  In  In15  1  0.66249918  0.50222575  0.63268855  1
  In  In16  1  0.66420868  0.83043715  0.12229905  1
  In  In17  1  0.65719690  0.82210203  0.62001615  1
  In  In18  1  0.16680725  -0.00824108  0.37888445  1
  In  In19  1  0.16672376  -0.00607935  0.86821207  1
  In  In20  1  0.17516476  0.34268794  0.36819741  1
  In  In21  1  0.17079243  0.32718127  0.86725236  1
  In  In22  1  0.16221419  0.67070011  0.37815683  1
  In  In23  1  0.16755410  0.67741681  0.86878740  1
  In  In24  1  0.49835318  0.00040323  0.38720108  1
  In  In25  1  0.48553373  0.00628365  0.88239643  1
  In  In26  1  0.49597811  0.32843647  0.36746852  1
  In  In27  1  0.50239903  0.33848879  0.88035182  1
  In  In28  1  0.50963858  0.67232363  0.37432340  1
  In  In29  1  0.50908448  0.66024966  0.87999989  1
  In  In30  1  0.82063298  -0.00197150  0.37710211  1
  In  In31  1  0.83022161  0.00364959  0.88616818  1
  In  In32  1  0.83660854  0.34212887  0.36139410  1
  In  In33  1  0.79739446  0.35869388  0.90473106  1
  In  In34  1  0.83469010  0.66450065  0.37171815  1
  In  In35  1  0.83171742  0.66651600  0.87381816  1
  In  In36  1  -0.00730257  0.17485373  0.37014070  1
  In  In37  1  -0.00689188  0.16453290  0.87749042  1
  In  In38  1  0.01368000  0.51271815  0.35888430  1
  In  In39  1  -0.01757179  0.49487971  0.87599574  1
  In  In40  1  0.00598555  0.81478717  0.37757936  1
  In  In41  1  0.00276451  0.82432823  0.87690490  1
  In  In42  1  0.33537375  0.17228473  0.37778662  1
  In  In43  1  0.33849300  0.17971113  0.86222944  1
  In  In44  1  0.33561020  0.48490881  0.37387549  1
  In  In45  1  0.34678806  0.50784397  0.87498591  1
  In  In46  1  0.33802918  0.83297051  0.38897981  1
  In  In47  1  0.32576239  0.84029837  0.88275507  1
  In  In48  1  0.65793001  0.16606905  0.37239904  1
  In  In49  1  0.64461197  0.18659938  0.89610311  1
  In  In50  1  0.67053325  0.50593206  0.36419550  1
  In  In51  1  0.65989880  0.50163194  0.87614066  1
  In  In52  1  0.67218449  0.82154548  0.38886157  1
  In  In53  1  0.67434772  0.82554390  0.87942228  1
  In  In54  1  0.18545529  -0.00537462  0.12136680  1
  In  In55  1  0.20488553  -0.00616043  0.62798937  1
  In  In56  1  0.16672619  0.34948865  0.14048513  1
  In  In57  1  0.16956484  0.34267646  0.62947824  1
  In  In58  1  0.15331590  0.66657958  0.12770137  1
  In  In59  1  0.15468054  0.65681617  0.62051009  1
  In  In60  1  0.50078763  0.01199844  0.11247210  1
  In  In61  1  0.48514719  -0.00241860  0.62160070  1
  In  In62  1  0.50255425  0.33510418  0.12160274  1
  In  In63  1  0.50518068  0.32439930  0.62873105  1
  In  In64  1  0.51649729  0.67937012  0.11989579  1
  In  In65  1  0.50318242  0.67455578  0.62691710  1
  In  In66  1  0.83224033  -0.00288058  0.11521202  1
  In  In67  1  0.84488059  -0.00768821  0.62709261  1
  In  In68  1  0.82572958  0.34250042  0.11596168  1
  In  In69  1  0.82770750  0.32676168  0.63080463  1
  In  In70  1  0.83232414  0.66693678  0.12491128  1
  In  In71  1  0.82259357  0.67616304  0.63452269  1
  In  In72  1  0.16773993  0.50745168  0.00195367  1
  In  In73  1  0.33042811  0.66174129  0.24626808  1
  In  In74  1  0.16860100  0.16474891  -0.00209419  1
  In  In75  1  0.82894619  0.16157490  0.49847615  1
  In  In76  1  0.66519079  0.00002929  0.75703463  1
  In  In77  1  0.33739934  0.00557380  0.24662994  1
  In  In78  1  0.00528144  -0.00307902  0.75012618  1
  In  In79  1  0.17364116  0.15819782  0.50692202  1
  In  In80  1  0.83557864  0.50352763  0.49337554  1
  In  In81  1  0.66289742  0.00005107  0.24622585  1
  In  In82  1  0.33469157  0.66518093  0.74772403  1
  In  In83  1  -0.00471840  0.33673209  0.75221757  1
  In  In84  1  0.49862871  0.50386700  0.50218469  1
  In  In85  1  0.00451766  0.00072577  0.25280942  1
  Cu  Cu86  1  -0.00359472  0.66282778  0.49706907  1
  Cu  Cu87  1  0.50639435  0.50154457  0.24481680  1
  Cu  Cu88  1  0.49818879  0.83299539  0.74864172  1
  Cu  Cu89  1  0.66329516  -0.00586772  -0.00312369  1
  Cu  Cu90  1  0.83197703  0.17552469  0.23632943  1
  Cu  Cu91  1  0.16825385  0.83139445  0.74546376  1
  Cu  Cu92  1  0.00357901  -0.01528890  0.50024946  1
  Cu  Cu93  1  0.83093706  0.82774373  0.75280611  1
  Cu  Cu94  1  0.50616285  0.83416664  0.25016295  1
  Cu  Cu95  1  0.32781674  0.66282719  0.50567949  1
  Cu  Cu96  1  0.83769733  0.82266676  0.25327266  1
  Cu  Cu97  1  0.34125445  0.66759818  -0.00269077  1
  Cu  Cu98  1  0.82435974  0.17644054  0.76216544  1
  Cu  Cu99  1  0.66317320  0.33489739  0.49952869  1
  Cu  Cu100  1  0.50275937  0.16948177  0.75851896  1
  Cu  Cu101  1  0.82695883  0.49736880  0.24151305  1
  Cu  Cu102  1  0.83183212  0.50149805  0.75615398  1
  Cu  Cu103  1  0.67262120  0.66738619  0.00069938  1
  Cu  Cu104  1  0.00490006  -0.00734114  -0.00165371  1
  Cu  Cu105  1  -0.00831480  0.33825287  0.00377798  1
  Cu  Cu106  1  0.50543978  0.17797042  0.24447886  1
  Cu  Cu107  1  0.00935379  0.33615926  0.49615263  1
  Cu  Cu108  1  0.66305643  -0.00334824  0.50443268  1
  Cu  Cu109  1  0.33580318  0.33234851  -0.00183717  1
  Cu  Cu110  1  -0.00501989  0.66812304  0.00079413  1
  Cu  Cu111  1  0.16665295  0.82734952  0.25009158  1
  Cu  Cu112  1  0.17735555  0.17727550  0.25010345  1
  Cu  Cu113  1  0.50197850  0.49010433  0.75266333  1
  Cu  Cu114  1  0.33475389  0.32882454  0.49817570  1
  Se  Se115  1  0.07925011  0.07569511  0.06182604  1
  Se  Se116  1  0.07687385  0.06758587  0.56228349  1
  Se  Se117  1  0.07924120  0.41522637  0.06105551  1
  Se  Se118  1  0.08883560  0.41590898  0.55374601  1
  Se  Se119  1  0.08292637  0.74868689  0.05237450  1
  Se  Se120  1  0.08140866  0.74588757  0.55049565  1
  Se  Se121  1  0.38092152  0.05459422  0.05679865  1
  Se  Se122  1  0.41235365  0.09332796  0.55829990  1
  Se  Se123  1  0.41878758  0.41744090  0.05033662  1
  Se  Se124  1  0.41094211  0.41154711  0.56197832  1
  Se  Se125  1  0.42346897  0.75161107  0.05143193  1
  Se  Se126  1  0.41744911  0.74343165  0.55388829  1
  Se  Se127  1  0.74799250  0.07893341  0.04883643  1
  Se  Se128  1  0.74282108  0.07650015  0.56677666  1
  Se  Se129  1  0.73103074  0.40436882  0.04364224  1
  Se  Se130  1  0.74633829  0.41248066  0.55798712  1
  Se  Se131  1  0.75344034  0.75293168  0.05515234  1
  Se  Se132  1  0.75732436  0.75547553  0.55651153  1
  Se  Se133  1  0.24863851  0.26242881  0.06111374  1
  Se  Se134  1  0.25847031  0.25313522  0.56464533  1
  Se  Se135  1  0.26100348  0.59330996  0.06278208  1
  Se  Se136  1  0.24359190  0.57646498  0.55294674  1
  Se  Se137  1  0.23820555  0.90870668  0.04296847  1
  Se  Se138  1  0.24295470  0.90542461  0.54795693  1
  Se  Se139  1  0.55064332  0.22366501  0.05664033  1
  Se  Se140  1  0.58283404  0.24878119  0.55161078  1
  Se  Se141  1  0.58509888  0.58516980  0.05153084  1
  Se  Se142  1  0.59422476  0.59199328  0.55742083  1
  Se  Se143  1  0.58151550  0.91498160  0.05513987  1
  Se  Se144  1  0.57829501  0.91731736  0.55919349  1
  Se  Se145  1  0.91221631  0.24922444  0.05394195  1
  Se  Se146  1  0.92206304  0.25927466  0.55375061  1
  Se  Se147  1  0.91480018  0.58276858  0.05466343  1
  Se  Se148  1  0.91909543  0.58704521  0.56286753  1
  Se  Se149  1  0.91843996  0.91208885  0.05197569  1
  Se  Se150  1  0.91226455  0.90928662  0.55200740  1
  Se  Se151  1  0.08532588  0.24666547  0.44143322  1
  Se  Se152  1  0.07553286  0.26241957  0.94336844  1
  Se  Se153  1  0.08045914  0.57958155  0.44352239  1
  Se  Se154  1  0.07570235  0.59016610  0.93797322  1
  Se  Se155  1  0.08548113  0.90545325  0.44326626  1
  Se  Se156  1  0.08565461  0.91518136  0.93940490  1
  Se  Se157  1  0.42295318  0.25113800  0.44527938  1
  Se  Se158  1  0.41476742  0.24767779  0.94250269  1
  Se  Se159  1  0.40783855  0.58976929  0.43858139  1
  Se  Se160  1  0.42495438  0.57907803  0.95074334  1
  Se  Se161  1  0.41733252  0.91851918  0.45377967  1
  Se  Se162  1  0.42487154  0.90388879  0.94709615  1
  Se  Se163  1  0.74862693  0.25995986  0.43792293  1
  Se  Se164  1  0.76716723  0.22788070  0.94741653  1
  Se  Se165  1  0.73671388  0.59194620  0.44279664  1
  Se  Se166  1  0.74951587  0.58333589  0.94265570  1
  Se  Se167  1  0.75034860  0.91738026  0.45145445  1
  Se  Se168  1  0.75205126  0.91129407  0.94923188  1
  Se  Se169  1  0.26259857  0.07114472  0.44235283  1
  Se  Se170  1  0.25501125  0.08452251  0.93116400  1
  Se  Se171  1  0.25066637  0.41382839  0.44782126  1
  Se  Se172  1  0.25326820  0.41307658  0.94005429  1
  Se  Se173  1  0.24811197  0.74662701  0.44794508  1
  Se  Se174  1  0.24948814  0.74313053  0.94563323  1
  Se  Se175  1  0.58894488  0.08568805  0.44853273  1
  Se  Se176  1  0.57480494  0.08035691  0.95201694  1
  Se  Se177  1  0.58788335  0.41728659  0.43790916  1
  Se  Se178  1  0.60204105  0.40234040  0.94792455  1
  Se  Se179  1  0.56700680  0.75984414  0.45003035  1
  Se  Se180  1  0.58557980  0.74922266  0.94810401  1
  Se  Se181  1  0.92764491  0.07226258  0.44117131  1
  Se  Se182  1  0.92179659  0.08193877  0.95106261  1
  Se  Se183  1  0.92623500  0.41190193  0.43652332  1
  Se  Se184  1  0.90919310  0.42752030  0.95655730  1
  Se  Se185  1  0.91101419  0.74600463  0.44542780  1
  Se  Se186  1  0.91231188  0.75104359  0.94506826  1
  Se  Se187  1  0.26222590  0.25529843  0.30546904  1
  Se  Se188  1  0.24733192  0.25203445  0.79413235  1
  Se  Se189  1  0.24622351  0.57679618  0.31213862  1
  Se  Se190  1  0.24498581  0.57542357  0.80813677  1
  Se  Se191  1  0.25030142  0.90828961  0.30632944  1
  Se  Se192  1  0.25176309  0.91070975  0.80144694  1
  Se  Se193  1  0.59117962  0.25543909  0.30065336  1
  Se  Se194  1  0.58567850  0.25419258  0.80927883  1
  Se  Se195  1  0.58164396  0.58902678  0.30071854  1
  Se  Se196  1  0.58073737  0.58167110  0.80245523  1
  Se  Se197  1  0.58079879  0.91429206  0.31409538  1
  Se  Se198  1  0.57490850  0.90947355  0.81469843  1
  Se  Se199  1  0.91588688  0.25105241  0.29607515  1
  Se  Se200  1  0.90540068  0.25786781  0.81924037  1
  Se  Se201  1  0.90836061  0.57930410  0.29986570  1
  Se  Se202  1  0.91823386  0.58613800  0.80389422  1
  Se  Se203  1  0.91150064  0.91181790  0.31195087  1
  Se  Se204  1  0.90743163  0.91525846  0.81021247  1
  Se  Se205  1  0.09871978  0.09428797  0.30965819  1
  Se  Se206  1  0.08796993  0.09634995  0.80656719  1
  Se  Se207  1  0.06614669  0.39564891  0.30684472  1
  Se  Se208  1  0.08667397  0.42732381  0.81053547  1
  Se  Se209  1  0.08286030  0.74271765  0.29984303  1
  Se  Se210  1  0.08121595  0.75295856  0.79866070  1
  Se  Se211  1  0.43189457  0.09176824  0.30667989  1
  Se  Se212  1  0.41633544  0.07979673  0.80190966  1
  Se  Se213  1  0.42256913  0.41973007  0.29928624  1
  Se  Se214  1  0.41602739  0.41368370  0.80784107  1
  Se  Se215  1  0.41640350  0.75871412  0.30609895  1
  Se  Se216  1  0.42070502  0.75181416  0.81219046  1
  Se  Se217  1  0.75928861  0.09405612  0.30190471  1
  Se  Se218  1  0.74532948  0.09332208  0.82036250  1
  Se  Se219  1  0.74335694  0.41519171  0.29601658  1
  Se  Se220  1  0.74987467  0.41727502  0.80974290  1
  Se  Se221  1  0.74622264  0.75091501  0.30837218  1
  Se  Se222  1  0.74474587  0.74498426  0.80286962  1
  Se  Se223  1  0.25222627  0.09901484  0.18606820  1
  Se  Se224  1  0.23659210  0.09201466  0.70305350  1
  Se  Se225  1  0.25650662  0.42458126  0.20580562  1
  Se  Se226  1  0.25244504  0.41093911  0.70448559  1
  Se  Se227  1  0.25237278  0.76116874  0.18409863  1
  Se  Se228  1  0.24867667  0.75256612  0.68326927  1
  Se  Se229  1  0.58357491  0.09519472  0.18430652  1
  Se  Se230  1  0.57800097  0.08810822  0.69322112  1
  Se  Se231  1  0.58611592  0.41704937  0.18995424  1
  Se  Se232  1  0.58661296  0.41007697  0.69688611  1
  Se  Se233  1  0.59135002  0.75148793  0.19937862  1
  Se  Se234  1  0.58520631  0.74895705  0.70072200  1
  Se  Se235  1  0.91443007  0.08601575  0.18709580  1
  Se  Se236  1  0.90267021  0.09407121  0.70142552  1
  Se  Se237  1  0.91211046  0.41510538  0.18902387  1
  Se  Se238  1  0.91015650  0.42880705  0.68709638  1
  Se  Se239  1  0.92053431  0.74263807  0.19752365  1
  Se  Se240  1  0.91946074  0.74867037  0.70012240  1
  Se  Se241  1  0.08527074  0.25296492  0.19897757  1
  Se  Se242  1  0.07999833  0.24461790  0.68928049  1
  Se  Se243  1  0.09657880  0.57203177  0.19842238  1
  Se  Se244  1  0.08654457  0.58580758  0.70245154  1
  Se  Se245  1  0.09140543  0.91279151  0.18936931  1
  Se  Se246  1  0.08922209  0.91145848  0.68297231  1
  Se  Se247  1  0.41492758  0.25709843  0.19442387  1
  Se  Se248  1  0.42027345  0.25302566  0.70262458  1
  Se  Se249  1  0.42704518  0.58256165  0.18389163  1
  Se  Se250  1  0.42485232  0.57074288  0.68843528  1
  Se  Se251  1  0.42809319  0.91328761  0.18859586  1
  Se  Se252  1  0.41302348  0.91451201  0.69656635  1
  Se  Se253  1  0.74444203  0.25622155  0.18684481  1
  Se  Se254  1  0.74370002  0.25717473  0.70476941  1
  Se  Se255  1  0.74491445  0.58372091  0.18999190  1
  Se  Se256  1  0.74789797  0.58254316  0.69980188  1
  Se  Se257  1  0.76242949  0.90984275  0.19417211  1
  Se  Se258  1  0.75340532  0.91172735  0.69331547  1
