# generated using pymatgen
data_In86Cu29Se144
_symmetry_space_group_name_H-M   'P 1'
_cell_length_a   17.57925990
_cell_length_b   17.58104740
_cell_length_c   23.42992316
_cell_angle_alpha   89.99558697
_cell_angle_beta   90.00509636
_cell_angle_gamma   90.00698249
_symmetry_Int_Tables_number   1
_chemical_formula_structural   In86Cu29Se144
_chemical_formula_sum   'In86 Cu29 Se144'
_cell_volume   7241.29415746
_cell_formula_units_Z   1
loop_
 _symmetry_equiv_pos_site_id
 _symmetry_equiv_pos_as_xyz
  1  'x, y, z'
loop_
 _atom_site_type_symbol
 _atom_site_label
 _atom_site_symmetry_multiplicity
 _atom_site_fract_x
 _atom_site_fract_y
 _atom_site_fract_z
 _atom_site_occupancy
  In  In0  1  0.00335959  0.16699422  0.12646443  1
  In  In1  1  -0.01048878  0.16084251  0.61171295  1
  In  In2  1  -0.00027605  0.50079452  0.13865434  1
  In  In3  1  -0.00211157  0.51082598  0.61795701  1
  In  In4  1  -0.01747720  0.83724202  0.12475374  1
  In  In5  1  -0.00577598  0.83746585  0.62510088  1
  In  In6  1  0.34484119  0.15729169  0.13482368  1
  In  In7  1  0.34826864  0.17541407  0.61595285  1
  In  In8  1  0.34996337  0.48530198  0.14403231  1
  In  In9  1  0.32776268  0.48951971  0.62031248  1
  In  In10  1  0.32797568  0.83830718  0.14126678  1
  In  In11  1  0.33599192  0.82237121  0.61650931  1
  In  In12  1  0.66311773  0.16169921  0.12855220  1
  In  In13  1  0.67032871  0.17757847  0.60611552  1
  In  In14  1  0.66306068  0.51369323  0.13185418  1
  In  In15  1  0.68301766  0.51065832  0.60658628  1
  In  In16  1  0.67568777  0.82859859  0.13149205  1
  In  In17  1  0.66167818  0.82280830  0.61813687  1
  In  In18  1  0.18138119  -0.00064674  0.36899665  1
  In  In19  1  0.16066994  0.01010521  0.87617649  1
  In  In20  1  0.15767770  0.32519720  0.37274765  1
  In  In21  1  0.17410411  0.31882992  0.87086617  1
  In  In22  1  0.16125066  0.66849653  0.36447142  1
  In  In23  1  0.15762181  0.67828933  0.87727482  1
  In  In24  1  0.50201083  -0.00244812  0.37210620  1
  In  In25  1  0.51064231  0.00175622  0.87892745  1
  In  In26  1  0.49611636  0.34570487  0.38468649  1
  In  In27  1  0.49942429  0.33884920  0.87940267  1
  In  In28  1  0.50945830  0.66519936  0.36985753  1
  In  In29  1  0.49715472  0.65310608  0.87563580  1
  In  In30  1  0.82475111  0.00482983  0.38011352  1
  In  In31  1  0.84477089  -0.01356300  0.88980274  1
  In  In32  1  0.83847135  0.33078473  0.39114921  1
  In  In33  1  0.81880574  0.33147417  0.87601918  1
  In  In34  1  0.83480213  0.67057771  0.37893616  1
  In  In35  1  0.83582065  0.67272465  0.86557049  1
  In  In36  1  -0.00594036  0.18309229  0.38977420  1
  In  In37  1  -0.00088871  0.15515295  0.87124079  1
  In  In38  1  -0.00899805  0.49893126  0.37873370  1
  In  In39  1  -0.01629182  0.50444615  0.87030591  1
  In  In40  1  -0.00406219  0.81014084  0.37446736  1
  In  In41  1  -0.01061029  0.82702948  0.87023186  1
  In  In42  1  0.33262413  0.16787707  0.37352700  1
  In  In43  1  0.33056165  0.17748059  0.87543719  1
  In  In44  1  0.35386379  0.50654651  0.36179140  1
  In  In45  1  0.35094208  0.49970878  0.87763845  1
  In  In46  1  0.34023503  0.84737579  0.36039921  1
  In  In47  1  0.33714897  0.82606402  0.87970489  1
  In  In48  1  0.67857090  0.15947893  0.38451004  1
  In  In49  1  0.67220067  0.16382462  0.88238587  1
  In  In50  1  0.65312569  0.51138498  0.38054182  1
  In  In51  1  0.65356911  0.49641341  0.87337194  1
  In  In52  1  0.66904816  0.83261341  0.37362407  1
  In  In53  1  0.67862567  0.84110425  0.87245057  1
  In  In54  1  0.16776744  0.00811264  0.12723800  1
  In  In55  1  0.15063075  -0.00274554  0.62470758  1
  In  In56  1  0.16639872  0.33103275  0.13857221  1
  In  In57  1  0.18491615  0.33770406  0.62513359  1
  In  In58  1  0.16812558  0.67125186  0.14195089  1
  In  In59  1  0.16052966  0.65687119  0.62195896  1
  In  In60  1  0.48993716  0.01695793  0.13353417  1
  In  In61  1  0.50793717  0.00409546  0.61619052  1
  In  In62  1  0.49540285  0.32395926  0.12523458  1
  In  In63  1  0.49782819  0.33158530  0.61357363  1
  In  In64  1  0.50570971  0.65823252  0.13657390  1
  In  In65  1  0.50801653  0.67420820  0.61259929  1
  In  In66  1  0.83128895  -0.01185848  0.11937152  1
  In  In67  1  0.84301430  0.00740100  0.61847294  1
  In  In68  1  0.84412841  0.33205617  0.13246287  1
  In  In69  1  0.83460231  0.34209089  0.59427797  1
  In  In70  1  0.82365401  0.67259828  0.13346033  1
  In  In71  1  0.83488585  0.66569433  0.61793131  1
  In  In72  1  0.16724123  0.83486751  0.49509762  1
  In  In73  1  0.33082182  0.00026464  0.75650418  1
  In  In74  1  0.50368549  0.83678338  0.00494639  1
  In  In75  1  0.17052900  0.16118247  0.00719342  1
  In  In76  1  0.66365530  0.33908008  0.26234508  1
  In  In77  1  0.82262854  0.49751042  0.00250254  1
  In  In78  1  0.67163916  0.00357007  0.74958065  1
  In  In79  1  0.66821498  0.33383913  0.73534615  1
  In  In80  1  0.00328828  -0.00215475  0.24988586  1
  In  In81  1  0.16231321  0.83721235  0.01115671  1
  In  In82  1  0.17085682  0.49958670  0.00925743  1
  In  In83  1  0.16590387  0.49828523  0.48943073  1
  In  In84  1  0.32412296  0.65702894  0.74278537  1
  In  In85  1  0.00503147  0.33672416  0.73732031  1
  Cu  Cu86  1  0.66594060  0.00694849  0.00517031  1
  Cu  Cu87  1  0.83820936  0.50402751  0.25725546  1
  Cu  Cu88  1  0.66340310  -0.01082153  0.49782578  1
  Cu  Cu89  1  0.50921311  0.83236913  0.25100414  1
  Cu  Cu90  1  0.83620716  0.16825274  0.26203487  1
  Cu  Cu91  1  0.16305519  0.16961763  0.25338279  1
  Cu  Cu92  1  0.50105642  0.17809462  0.74405258  1
  Cu  Cu93  1  0.66568934  0.67127173  0.00586305  1
  Cu  Cu94  1  0.33986089  0.66112848  0.01166743  1
  Cu  Cu95  1  0.49900721  0.16733541  0.25532956  1
  Cu  Cu96  1  0.33644372  0.00113430  0.49053237  1
  Cu  Cu97  1  0.16376023  0.50236298  0.74696314  1
  Cu  Cu98  1  0.16573988  0.49855249  0.25832801  1
  Cu  Cu99  1  0.84004664  0.16818945  0.74332430  1
  Cu  Cu100  1  -0.00447056  0.32435307  0.00624367  1
  Cu  Cu101  1  0.83183539  0.83061253  0.25155826  1
  Cu  Cu102  1  0.17092006  0.16260420  0.74817644  1
  Cu  Cu103  1  0.34224945  0.66805540  0.48765946  1
  Cu  Cu104  1  0.50148566  0.49793910  0.74941243  1
  Cu  Cu105  1  0.83100736  0.51104544  0.73960735  1
  Cu  Cu106  1  0.00041980  0.00004218  0.49634309  1
  Cu  Cu107  1  0.15126595  0.83430547  0.75109264  1
  Cu  Cu108  1  0.49678725  0.82729183  0.73894759  1
  Cu  Cu109  1  0.65914607  0.32915032  0.00396838  1
  Cu  Cu110  1  0.34185980  0.33292299  0.00329574  1
  Cu  Cu111  1  0.66990470  0.67189675  0.49475988  1
  Cu  Cu112  1  0.33342876  0.33419977  0.49530061  1
  Cu  Cu113  1  0.83191172  0.82907586  0.74641172  1
  Cu  Cu114  1  -0.01047526  0.66588473  -0.00124719  1
  Se  Se115  1  0.07003221  0.06898810  0.05384432  1
  Se  Se116  1  0.08578815  0.08169435  0.54924470  1
  Se  Se117  1  0.07442001  0.40755679  0.06331648  1
  Se  Se118  1  0.08594054  0.41347870  0.56061900  1
  Se  Se119  1  0.07472596  0.73610873  0.06230771  1
  Se  Se120  1  0.07816283  0.74499068  0.55579045  1
  Se  Se121  1  0.41601745  0.08791583  0.05480843  1
  Se  Se122  1  0.41838548  0.08042488  0.54952357  1
  Se  Se123  1  0.41905630  0.41908255  0.05901760  1
  Se  Se124  1  0.41513093  0.42132215  0.54801116  1
  Se  Se125  1  0.41347024  0.75116815  0.06770168  1
  Se  Se126  1  0.42088543  0.75350308  0.54396731  1
  Se  Se127  1  0.75212511  0.08607633  0.05945434  1
  Se  Se128  1  0.74645239  0.07461571  0.55132599  1
  Se  Se129  1  0.73892241  0.40730869  0.06720595  1
  Se  Se130  1  0.71343568  0.39203425  0.54416996  1
  Se  Se131  1  0.75373629  0.75178697  0.05523284  1
  Se  Se132  1  0.75417215  0.75298658  0.54982886  1
  Se  Se133  1  0.25636419  0.25799465  0.06404075  1
  Se  Se134  1  0.25336301  0.25138002  0.55155283  1
  Se  Se135  1  0.25692612  0.58614056  0.07232926  1
  Se  Se136  1  0.25927595  0.59275519  0.55045163  1
  Se  Se137  1  0.26194044  0.92612282  0.06069590  1
  Se  Se138  1  0.25706674  0.92601148  0.55771781  1
  Se  Se139  1  0.58039970  0.24266483  0.05791617  1
  Se  Se140  1  0.55876410  0.22968330  0.54847332  1
  Se  Se141  1  0.58214352  0.58657917  0.05644449  1
  Se  Se142  1  0.58426888  0.58556988  0.54537248  1
  Se  Se143  1  0.58908471  0.92594324  0.06764751  1
  Se  Se144  1  0.57787961  0.90796180  0.55161742  1
  Se  Se145  1  0.91189515  0.24379754  0.05925702  1
  Se  Se146  1  0.92673948  0.25469205  0.54183975  1
  Se  Se147  1  0.91746756  0.58241480  0.06232123  1
  Se  Se148  1  0.89974507  0.56718584  0.54937469  1
  Se  Se149  1  0.91845360  0.91690625  0.04780538  1
  Se  Se150  1  0.91825508  0.91645074  0.55049134  1
  Se  Se151  1  0.09472405  0.24881031  0.45390322  1
  Se  Se152  1  0.07967727  0.25265039  0.94368856  1
  Se  Se153  1  0.07567388  0.59817912  0.44225578  1
  Se  Se154  1  0.07418086  0.58334036  0.94402823  1
  Se  Se155  1  0.07764189  0.92215515  0.43276924  1
  Se  Se156  1  0.07805870  0.91634989  0.93898945  1
  Se  Se157  1  0.41686036  0.24825233  0.44423181  1
  Se  Se158  1  0.41930328  0.24926791  0.94529860  1
  Se  Se159  1  0.42619188  0.58060327  0.44090184  1
  Se  Se160  1  0.42024933  0.58144478  0.95362761  1
  Se  Se161  1  0.41742847  0.91305895  0.44122643  1
  Se  Se162  1  0.41058754  0.92422264  0.94305046  1
  Se  Se163  1  0.75804742  0.24022875  0.45412771  1
  Se  Se164  1  0.74904945  0.25162759  0.95162935  1
  Se  Se165  1  0.75081470  0.58307947  0.44485521  1
  Se  Se166  1  0.74094216  0.59056978  0.93930426  1
  Se  Se167  1  0.75261899  0.91059889  0.44652767  1
  Se  Se168  1  0.74432996  0.91660689  0.95269923  1
  Se  Se169  1  0.24832292  0.08473181  0.44392012  1
  Se  Se170  1  0.26163627  0.07516424  0.94290096  1
  Se  Se171  1  0.26126009  0.41554862  0.43049719  1
  Se  Se172  1  0.25495708  0.40823674  0.94308807  1
  Se  Se173  1  0.25741742  0.74816330  0.43284661  1
  Se  Se174  1  0.25663318  0.73919096  0.95189454  1
  Se  Se175  1  0.58418115  0.07655588  0.44462161  1
  Se  Se176  1  0.58227815  0.08728798  0.94999469  1
  Se  Se177  1  0.60225869  0.40464334  0.44842362  1
  Se  Se178  1  0.58280444  0.41848843  0.95006849  1
  Se  Se179  1  0.58252450  0.75225891  0.44231533  1
  Se  Se180  1  0.58717352  0.74676595  0.93879075  1
  Se  Se181  1  0.91389052  0.08405920  0.44666032  1
  Se  Se182  1  0.90565138  0.09913607  0.94266322  1
  Se  Se183  1  0.91749056  0.42294765  0.45540227  1
  Se  Se184  1  0.92045787  0.40728943  0.94420118  1
  Se  Se185  1  0.90805666  0.75763528  0.45135165  1
  Se  Se186  1  0.90926935  0.74835838  0.94373218  1
  Se  Se187  1  0.24952154  0.25218983  0.30448284  1
  Se  Se188  1  0.25620216  0.24898151  0.79586577  1
  Se  Se189  1  0.25288766  0.58429665  0.30432404  1
  Se  Se190  1  0.24102493  0.57609522  0.81694968  1
  Se  Se191  1  0.24649597  0.91750528  0.29323536  1
  Se  Se192  1  0.23911894  0.90338089  0.81305891  1
  Se  Se193  1  0.57942573  0.24130679  0.31898699  1
  Se  Se194  1  0.58718329  0.24851988  0.80754800  1
  Se  Se195  1  0.58033811  0.57518244  0.29909648  1
  Se  Se196  1  0.58270243  0.58424518  0.80136324  1
  Se  Se197  1  0.59030393  0.91892863  0.30361274  1
  Se  Se198  1  0.57341720  0.90822925  0.80239027  1
  Se  Se199  1  0.91584077  0.25576904  0.31255402  1
  Se  Se200  1  0.91289548  0.25515055  0.80485473  1
  Se  Se201  1  0.92121825  0.59051447  0.30831142  1
  Se  Se202  1  0.91673200  0.58808298  0.79594827  1
  Se  Se203  1  0.91156580  0.91225610  0.31197842  1
  Se  Se204  1  0.90800258  0.91628517  0.80458851  1
  Se  Se205  1  0.08121996  0.09258535  0.31501982  1
  Se  Se206  1  0.08362800  0.08156714  0.79869272  1
  Se  Se207  1  0.07839435  0.41851577  0.31030505  1
  Se  Se208  1  0.08771621  0.42088015  0.81162397  1
  Se  Se209  1  0.08984450  0.76341538  0.29899008  1
  Se  Se210  1  0.07386826  0.74344777  0.80187685  1
  Se  Se211  1  0.41412035  0.08087157  0.30580143  1
  Se  Se212  1  0.42999187  0.09278428  0.80756088  1
  Se  Se213  1  0.42421403  0.40678045  0.30035204  1
  Se  Se214  1  0.41958219  0.41481324  0.80354038  1
  Se  Se215  1  0.42301174  0.75091554  0.30323629  1
  Se  Se216  1  0.41716950  0.74957748  0.80235377  1
  Se  Se217  1  0.74768138  0.08159292  0.30441198  1
  Se  Se218  1  0.76283808  0.09191642  0.80851502  1
  Se  Se219  1  0.75963331  0.42504055  0.31924443  1
  Se  Se220  1  0.75514927  0.42716946  0.80136716  1
  Se  Se221  1  0.74995093  0.74596928  0.30524128  1
  Se  Se222  1  0.74387414  0.75110466  0.80038392  1
  Se  Se223  1  0.24612689  0.08632749  0.19947460  1
  Se  Se224  1  0.25108788  0.08416204  0.68549607  1
  Se  Se225  1  0.24882870  0.41399099  0.20501513  1
  Se  Se226  1  0.25418387  0.42024489  0.70138605  1
  Se  Se227  1  0.25224466  0.75124392  0.20813258  1
  Se  Se228  1  0.23569776  0.75939163  0.68982851  1
  Se  Se229  1  0.58473969  0.08473316  0.20297458  1
  Se  Se230  1  0.58462584  0.09605895  0.68865775  1
  Se  Se231  1  0.57815735  0.41866032  0.19236270  1
  Se  Se232  1  0.57977644  0.42804807  0.68061931  1
  Se  Se233  1  0.59152802  0.74642786  0.19862196  1
  Se  Se234  1  0.58377957  0.74348597  0.69277495  1
  Se  Se235  1  0.90793427  0.08787597  0.19433544  1
  Se  Se236  1  0.92356980  0.08309918  0.69299632  1
  Se  Se237  1  0.91742810  0.41526558  0.20490360  1
  Se  Se238  1  0.90267221  0.41893660  0.68244678  1
  Se  Se239  1  0.91741601  0.74873701  0.19856113  1
  Se  Se240  1  0.91481330  0.74765168  0.69085185  1
  Se  Se241  1  0.07482845  0.24966086  0.20095164  1
  Se  Se242  1  0.09321266  0.24025604  0.68328713  1
  Se  Se243  1  0.08258791  0.58376696  0.20468834  1
  Se  Se244  1  0.07870185  0.58274381  0.69518035  1
  Se  Se245  1  0.08917277  0.90743710  0.18736453  1
  Se  Se246  1  0.07274155  0.92035267  0.69810479  1
  Se  Se247  1  0.41592737  0.25145927  0.20214101  1
  Se  Se248  1  0.41699518  0.25955911  0.69185276  1
  Se  Se249  1  0.40520565  0.59640334  0.20150607  1
  Se  Se250  1  0.42275721  0.57731432  0.68451084  1
  Se  Se251  1  0.42420838  0.91811454  0.20033026  1
  Se  Se252  1  0.41691526  0.91434047  0.68710903  1
  Se  Se253  1  0.75335060  0.24787712  0.19983408  1
  Se  Se254  1  0.76651583  0.24795658  0.67925217  1
  Se  Se255  1  0.75133379  0.58269549  0.20313331  1
  Se  Se256  1  0.74292380  0.58993377  0.68830084  1
  Se  Se257  1  0.75328328  0.91959297  0.19843055  1
  Se  Se258  1  0.75389604  0.91197760  0.68569413  1
