# generated using pymatgen
data_In86Cu29Se144
_symmetry_space_group_name_H-M   'P 1'
_cell_length_a   17.58746023
_cell_length_b   17.58383497
_cell_length_c   23.44311481
_cell_angle_alpha   90.03711018
_cell_angle_beta   90.04579151
_cell_angle_gamma   89.98828349
_symmetry_Int_Tables_number   1
_chemical_formula_structural   In86Cu29Se144
_chemical_formula_sum   'In86 Cu29 Se144'
_cell_volume   7249.89644036
_cell_formula_units_Z   1
loop_
 _symmetry_equiv_pos_site_id
 _symmetry_equiv_pos_as_xyz
  1  'x, y, z'
loop_
 _atom_site_type_symbol
 _atom_site_label
 _atom_site_symmetry_multiplicity
 _atom_site_fract_x
 _atom_site_fract_y
 _atom_site_fract_z
 _atom_site_occupancy
  In  In0  1  0.00285198  0.16783826  0.12538870  1
  In  In1  1  0.00902227  0.16985967  0.62567219  1
  In  In2  1  -0.00953510  0.49640498  0.11439001  1
  In  In3  1  -0.00057262  0.49289426  0.63247234  1
  In  In4  1  0.00670577  0.83435433  0.11687085  1
  In  In5  1  -0.00984165  0.84521774  0.62569961  1
  In  In6  1  0.32252828  0.14182436  0.10030286  1
  In  In7  1  0.33150410  0.17046989  0.62499644  1
  In  In8  1  0.33910198  0.50639451  0.11415894  1
  In  In9  1  0.32694287  0.48377130  0.62928223  1
  In  In10  1  0.31809519  0.84476512  0.13061745  1
  In  In11  1  0.34143320  0.82268580  0.62351818  1
  In  In12  1  0.65720407  0.15456008  0.12269849  1
  In  In13  1  0.66794365  0.16056537  0.63307222  1
  In  In14  1  0.67561744  0.50903655  0.11594655  1
  In  In15  1  0.65519238  0.49715691  0.62808874  1
  In  In16  1  0.67788480  0.83198296  0.14205026  1
  In  In17  1  0.67005607  0.84537947  0.61670382  1
  In  In18  1  0.17744809  0.01053185  0.36501743  1
  In  In19  1  0.17693285  0.00173409  0.89089970  1
  In  In20  1  0.15938587  0.33135529  0.37114391  1
  In  In21  1  0.16528222  0.33572113  0.87597013  1
  In  In22  1  0.17405385  0.65507746  0.36574313  1
  In  In23  1  0.16194404  0.66625993  0.88895179  1
  In  In24  1  0.49693195  0.00066798  0.37763739  1
  In  In25  1  0.50876787  0.00168936  0.87123926  1
  In  In26  1  0.49055210  0.32780027  0.37957632  1
  In  In27  1  0.50323124  0.32839045  0.87451068  1
  In  In28  1  0.52462568  0.68665418  0.35352770  1
  In  In29  1  0.48709858  0.66622625  0.87884012  1
  In  In30  1  0.80636596  -0.03054977  0.32966654  1
  In  In31  1  0.83062857  0.00649120  0.88680943  1
  In  In32  1  0.83522587  0.32134982  0.37172815  1
  In  In33  1  0.83157110  0.32631138  0.87649166  1
  In  In34  1  0.83665386  0.69091005  0.36589802  1
  In  In35  1  0.85014536  0.65490793  0.90252527  1
  In  In36  1  0.00443024  0.16786148  0.36514866  1
  In  In37  1  -0.00532571  0.17416256  0.88234551  1
  In  In38  1  0.01358015  0.49677766  0.36818422  1
  In  In39  1  0.01962396  0.48057481  0.89727492  1
  In  In40  1  -0.01484418  0.84071095  0.37083603  1
  In  In41  1  0.00222637  0.82880189  0.89040250  1
  In  In42  1  0.34251569  0.15617924  0.38658247  1
  In  In43  1  0.32425333  0.16943521  0.88324567  1
  In  In44  1  0.32747586  0.49821489  0.36764135  1
  In  In45  1  0.33805067  0.49649616  0.88436606  1
  In  In46  1  0.34444882  0.84471274  0.36245988  1
  In  In47  1  0.32948718  0.83190101  0.87964595  1
  In  In48  1  0.66185509  0.14142552  0.37979864  1
  In  In49  1  0.66504878  0.16576766  0.87398761  1
  In  In50  1  0.65578075  0.50343956  0.37088323  1
  In  In51  1  0.67698340  0.48877707  0.88347240  1
  In  In52  1  0.66567444  0.83848527  0.37172520  1
  In  In53  1  0.67535450  0.84553469  0.87241687  1
  In  In54  1  0.16715197  -0.00347674  0.11990322  1
  In  In55  1  0.14728061  0.00576349  0.62151991  1
  In  In56  1  0.15684358  0.32267040  0.11517449  1
  In  In57  1  0.18760867  0.32081394  0.65084345  1
  In  In58  1  0.17042549  0.67888585  0.11248050  1
  In  In59  1  0.17932815  0.65902120  0.62560564  1
  In  In60  1  0.49719240  0.00381058  0.13210915  1
  In  In61  1  0.51217534  0.01640792  0.60986365  1
  In  In62  1  0.49256051  0.32478616  0.11419590  1
  In  In63  1  0.51971758  0.29783364  0.66186671  1
  In  In64  1  0.50576689  0.66521079  0.12986546  1
  In  In65  1  0.49579853  0.67156318  0.62070205  1
  In  In66  1  0.83386965  0.00220840  0.12847899  1
  In  In67  1  0.82956359  -0.01269560  0.62333665  1
  In  In68  1  0.84410255  0.34485146  0.11766223  1
  In  In69  1  0.83499721  0.32313516  0.63873445  1
  In  In70  1  0.83469089  0.66636718  0.11697234  1
  In  In71  1  0.82200293  0.67706963  0.62423299  1
  In  In72  1  0.16831765  0.83517574  0.49710708  1
  In  In73  1  0.83295935  0.50607535  0.50365751  1
  In  In74  1  0.33025864  0.66439275  0.75236440  1
  In  In75  1  0.66991478  0.33513989  0.24786290  1
  In  In76  1  0.33621928  0.00297013  0.75638923  1
  In  In77  1  0.83339316  0.15735574  0.49512205  1
  In  In78  1  0.67052616  0.66164842  0.75547364  1
  In  In79  1  0.00363999  0.65922030  0.76688102  1
  In  In80  1  0.49024886  0.50232245  0.50275006  1
  In  In81  1  0.00036309  0.67065482  0.23679653  1
  In  In82  1  0.16746461  0.49775821  0.49991724  1
  In  In83  1  -0.00463067  0.00030137  0.75205630  1
  In  In84  1  0.49891798  0.83907266  0.00074662  1
  In  In85  1  0.33409327  0.32865600  0.24624196  1
  Cu  Cu86  1  0.33473647  0.32650898  0.51162056  1
  Cu  Cu87  1  0.33243827  0.67011493  0.00311675  1
  Cu  Cu88  1  0.83708373  0.50463128  0.24061590  1
  Cu  Cu89  1  0.50823179  0.84283219  0.74530068  1
  Cu  Cu90  1  0.49317647  0.83453128  0.24871801  1
  Cu  Cu91  1  0.66034343  0.67009484  0.00620293  1
  Cu  Cu92  1  0.67491196  0.67937785  0.49282363  1
  Cu  Cu93  1  0.49704603  0.49222006  0.75687865  1
  Cu  Cu94  1  0.16457646  0.83178387  0.24369993  1
  Cu  Cu95  1  0.00443614  0.33227295  0.49527274  1
  Cu  Cu96  1  0.82829269  0.16212879  0.75988057  1
  Cu  Cu97  1  -0.00373874  0.68146694  0.49941890  1
  Cu  Cu98  1  0.83772551  0.48784499  0.75720827  1
  Cu  Cu99  1  0.66704104  0.32641357  -0.00101732  1
  Cu  Cu100  1  -0.00053195  0.32740145  -0.00112733  1
  Cu  Cu101  1  0.65977166  0.32647836  0.51099974  1
  Cu  Cu102  1  0.17194784  0.16488243  0.24033609  1
  Cu  Cu103  1  0.84361095  0.17561167  0.24338205  1
  Cu  Cu104  1  0.34584024  0.67051796  0.48896632  1
  Cu  Cu105  1  0.83117302  0.83128166  0.75411639  1
  Cu  Cu106  1  0.33493074  0.33812335  -0.00450847  1
  Cu  Cu107  1  0.16205858  0.16670046  0.75696705  1
  Cu  Cu108  1  0.67063857  -0.00183611  0.00295194  1
  Cu  Cu109  1  0.32904868  -0.00004290  0.49585430  1
  Cu  Cu110  1  -0.00522627  0.00512561  0.49269390  1
  Cu  Cu111  1  0.17072880  0.49718533  0.24203780  1
  Cu  Cu112  1  0.00146207  0.00532357  0.00452908  1
  Cu  Cu113  1  0.49921181  0.16364536  0.25285524  1
  Cu  Cu114  1  0.50380836  0.50539247  0.23841384  1
  Se  Se115  1  0.08738697  0.08926162  0.05467431  1
  Se  Se116  1  0.07629598  0.08833166  0.54764045  1
  Se  Se117  1  0.08209664  0.41645621  0.04966979  1
  Se  Se118  1  0.07980183  0.40928347  0.56041073  1
  Se  Se119  1  0.06546475  0.73507590  0.04772978  1
  Se  Se120  1  0.08303217  0.74669472  0.56389789  1
  Se  Se121  1  0.44358285  0.09112789  0.05270376  1
  Se  Se122  1  0.40549456  0.08530245  0.55355737  1
  Se  Se123  1  0.42111800  0.41968872  0.04846938  1
  Se  Se124  1  0.42165075  0.40378881  0.56791339  1
  Se  Se125  1  0.41198788  0.75105457  0.06408146  1
  Se  Se126  1  0.42269238  0.75329459  0.54688175  1
  Se  Se127  1  0.75266754  0.08400260  0.05574484  1
  Se  Se128  1  0.74128818  0.07251712  0.55638636  1
  Se  Se129  1  0.74796267  0.41384122  0.05101942  1
  Se  Se130  1  0.74554186  0.40921558  0.56314853  1
  Se  Se131  1  0.74145142  0.75497646  0.05953864  1
  Se  Se132  1  0.75587328  0.76085360  0.54929057  1
  Se  Se133  1  0.25407104  0.25372377  0.04962889  1
  Se  Se134  1  0.23832035  0.25280720  0.56083920  1
  Se  Se135  1  0.24545861  0.58186071  0.04880123  1
  Se  Se136  1  0.27117708  0.58719282  0.55111383  1
  Se  Se137  1  0.24757040  0.91249590  0.05009613  1
  Se  Se138  1  0.25338307  0.92307746  0.56323721  1
  Se  Se139  1  0.58389724  0.24358870  0.05236586  1
  Se  Se140  1  0.58008420  0.24619399  0.56785373  1
  Se  Se141  1  0.57620899  0.58343395  0.05389323  1
  Se  Se142  1  0.59542608  0.59511331  0.55264466  1
  Se  Se143  1  0.59208107  0.91775205  0.06488623  1
  Se  Se144  1  0.56051870  0.89796713  0.55646861  1
  Se  Se145  1  0.91680810  0.24678173  0.05469060  1
  Se  Se146  1  0.91845369  0.25702942  0.55611932  1
  Se  Se147  1  0.90465826  0.57627640  0.04787564  1
  Se  Se148  1  0.92674362  0.59606849  0.56364462  1
  Se  Se149  1  0.91722578  0.92244241  0.05687896  1
  Se  Se150  1  0.91677809  0.91955577  0.54886188  1
  Se  Se151  1  0.08326037  0.24707476  0.44124415  1
  Se  Se152  1  0.08875355  0.24833842  0.94727129  1
  Se  Se153  1  0.07548466  0.59594094  0.44309288  1
  Se  Se154  1  0.05672243  0.60488105  0.94938209  1
  Se  Se155  1  0.08024143  0.92427589  0.43589740  1
  Se  Se156  1  0.08502844  0.91956844  0.95226754  1
  Se  Se157  1  0.41806134  0.24807950  0.45369977  1
  Se  Se158  1  0.41747082  0.25072745  0.94554698  1
  Se  Se159  1  0.41993973  0.58733206  0.42744968  1
  Se  Se160  1  0.41739206  0.58514284  0.95303588  1
  Se  Se161  1  0.41153430  0.91458547  0.44512380  1
  Se  Se162  1  0.41093165  0.92899506  0.94071428  1
  Se  Se163  1  0.73872845  0.25527879  0.44250887  1
  Se  Se164  1  0.75027983  0.24268896  0.94572959  1
  Se  Se165  1  0.74840628  0.59000310  0.43507291  1
  Se  Se166  1  0.74128250  0.58345113  0.95374423  1
  Se  Se167  1  0.75348272  0.93127690  0.42777374  1
  Se  Se168  1  0.75325140  0.91265453  0.95169575  1
  Se  Se169  1  0.24141469  0.08444390  0.44861772  1
  Se  Se170  1  0.25962561  0.08163607  0.95795385  1
  Se  Se171  1  0.26148758  0.40444150  0.44340328  1
  Se  Se172  1  0.24429563  0.42034124  0.94843613  1
  Se  Se173  1  0.25592990  0.74506583  0.43370625  1
  Se  Se174  1  0.24923644  0.75422984  0.95081546  1
  Se  Se175  1  0.56412762  0.09271618  0.45008399  1
  Se  Se176  1  0.58821777  0.07779914  0.94549767  1
  Se  Se177  1  0.58870967  0.40990151  0.44630439  1
  Se  Se178  1  0.58318896  0.41227755  0.94669444  1
  Se  Se179  1  0.58179208  0.75292550  0.44130964  1
  Se  Se180  1  0.58930049  0.74847009  0.93743646  1
  Se  Se181  1  0.91696498  0.07637996  0.42680767  1
  Se  Se182  1  0.91714787  0.08829469  0.95170613  1
  Se  Se183  1  0.92242970  0.41548962  0.43946791  1
  Se  Se184  1  0.91027512  0.41013805  0.94896866  1
  Se  Se185  1  0.91175486  0.76048516  0.44625498  1
  Se  Se186  1  0.89580533  0.77454537  0.95339477  1
  Se  Se187  1  0.24847206  0.23976655  0.30970066  1
  Se  Se188  1  0.24759021  0.24851403  0.80872551  1
  Se  Se189  1  0.25570367  0.58040660  0.29278697  1
  Se  Se190  1  0.24412468  0.58076953  0.81738777  1
  Se  Se191  1  0.24770020  0.91538463  0.29823287  1
  Se  Se192  1  0.24134430  0.91211013  0.81040893  1
  Se  Se193  1  0.57934795  0.24727399  0.31097056  1
  Se  Se194  1  0.58840276  0.25221442  0.80419806  1
  Se  Se195  1  0.59275010  0.58279728  0.29170355  1
  Se  Se196  1  0.57542248  0.57678441  0.81540495  1
  Se  Se197  1  0.57351165  0.91713000  0.30536992  1
  Se  Se198  1  0.59176162  0.92122179  0.80082645  1
  Se  Se199  1  0.92429124  0.25922056  0.29851605  1
  Se  Se200  1  0.91733153  0.24657498  0.80528110  1
  Se  Se201  1  0.91635865  0.58140944  0.30753747  1
  Se  Se202  1  0.90916386  0.57018612  0.81982466  1
  Se  Se203  1  0.93256567  0.92073439  0.28906136  1
  Se  Se204  1  0.91234599  0.90941535  0.81501078  1
  Se  Se205  1  0.08721346  0.08425132  0.29652156  1
  Se  Se206  1  0.08711635  0.08204962  0.81617540  1
  Se  Se207  1  0.08842888  0.41480232  0.29611601  1
  Se  Se208  1  0.08109730  0.42147489  0.80998619  1
  Se  Se209  1  0.08780673  0.75280910  0.30911945  1
  Se  Se210  1  0.09250774  0.76057525  0.81365597  1
  Se  Se211  1  0.41252922  0.08295699  0.30658368  1
  Se  Se212  1  0.42293187  0.09799861  0.81085520  1
  Se  Se213  1  0.43021414  0.42321755  0.30255283  1
  Se  Se214  1  0.41218488  0.41404955  0.81081984  1
  Se  Se215  1  0.41038100  0.74359883  0.29772258  1
  Se  Se216  1  0.42578808  0.76352348  0.80426889  1
  Se  Se217  1  0.75367419  0.10256827  0.29986298  1
  Se  Se218  1  0.74891757  0.07354884  0.80919940  1
  Se  Se219  1  0.76152903  0.42768495  0.30880203  1
  Se  Se220  1  0.74711205  0.40938834  0.80663315  1
  Se  Se221  1  0.73928230  0.74985210  0.29992133  1
  Se  Se222  1  0.76342310  0.74374848  0.81738117  1
  Se  Se223  1  0.25466712  0.08164791  0.18732124  1
  Se  Se224  1  0.23573663  0.08396857  0.69376770  1
  Se  Se225  1  0.24888075  0.41582078  0.18132109  1
  Se  Se226  1  0.23669697  0.43663610  0.70610242  1
  Se  Se227  1  0.24690861  0.74419323  0.19390316  1
  Se  Se228  1  0.24150114  0.76043981  0.69503122  1
  Se  Se229  1  0.58587474  0.08041963  0.20247781  1
  Se  Se230  1  0.57621889  0.07967663  0.69544056  1
  Se  Se231  1  0.58000442  0.41740099  0.18213493  1
  Se  Se232  1  0.58878754  0.41642880  0.70498695  1
  Se  Se233  1  0.58119932  0.75071372  0.20036403  1
  Se  Se234  1  0.58333605  0.75023142  0.69142727  1
  Se  Se235  1  0.92219411  0.08471452  0.19510952  1
  Se  Se236  1  0.90580650  0.08958593  0.68913979  1
  Se  Se237  1  0.92236021  0.41808979  0.19467460  1
  Se  Se238  1  0.92204060  0.40893476  0.70148656  1
  Se  Se239  1  0.90627558  0.76292240  0.18769838  1
  Se  Se240  1  0.91443048  0.75019394  0.69698677  1
  Se  Se241  1  0.08573261  0.25241745  0.19598567  1
  Se  Se242  1  0.07719617  0.24945216  0.70337478  1
  Se  Se243  1  0.08978666  0.57636821  0.18165270  1
  Se  Se244  1  0.09181341  0.58017093  0.69451972  1
  Se  Se245  1  0.08331275  0.91542202  0.19048076  1
  Se  Se246  1  0.08957103  0.90692160  0.69587817  1
  Se  Se247  1  0.42019049  0.23628746  0.18805415  1
  Se  Se248  1  0.38717608  0.26504477  0.69863500  1
  Se  Se249  1  0.41100309  0.58432989  0.19200354  1
  Se  Se250  1  0.42545232  0.57557472  0.69236833  1
  Se  Se251  1  0.41085040  0.91938137  0.19666896  1
  Se  Se252  1  0.42018682  0.91657070  0.68837810  1
  Se  Se253  1  0.75638085  0.24949097  0.18337618  1
  Se  Se254  1  0.74665617  0.24547688  0.70354234  1
  Se  Se255  1  0.75245448  0.58759377  0.19081325  1
  Se  Se256  1  0.76210479  0.57052869  0.69319240  1
  Se  Se257  1  0.74456115  0.93540911  0.20310027  1
  Se  Se258  1  0.74964483  0.91125702  0.69706173  1
