# generated using pymatgen
data_In86Cu29Se144
_symmetry_space_group_name_H-M   'P 1'
_cell_length_a   17.58265789
_cell_length_b   17.58212672
_cell_length_c   23.45284635
_cell_angle_alpha   90.00845011
_cell_angle_beta   90.01857013
_cell_angle_gamma   90.00334924
_symmetry_Int_Tables_number   1
_chemical_formula_structural   In86Cu29Se144
_chemical_formula_sum   'In86 Cu29 Se144'
_cell_volume   7250.22462478
_cell_formula_units_Z   1
loop_
 _symmetry_equiv_pos_site_id
 _symmetry_equiv_pos_as_xyz
  1  'x, y, z'
loop_
 _atom_site_type_symbol
 _atom_site_label
 _atom_site_symmetry_multiplicity
 _atom_site_fract_x
 _atom_site_fract_y
 _atom_site_fract_z
 _atom_site_occupancy
  In  In0  1  0.01152368  0.15698745  0.12710870  1
  In  In1  1  0.00432043  0.16544296  0.63397282  1
  In  In2  1  -0.00388104  0.50088908  0.12551335  1
  In  In3  1  -0.00808977  0.49579838  0.61814074  1
  In  In4  1  0.00025958  0.83924823  0.13431147  1
  In  In5  1  -0.00041550  0.82972611  0.61293435  1
  In  In6  1  0.33545079  0.17144783  0.11549243  1
  In  In7  1  0.35489589  0.16795338  0.63410496  1
  In  In8  1  0.32650585  0.49624216  0.11590422  1
  In  In9  1  0.32260206  0.49851705  0.62997651  1
  In  In10  1  0.33833205  0.81942782  0.12427757  1
  In  In11  1  0.32941234  0.82956733  0.61369132  1
  In  In12  1  0.65676762  0.16155336  0.12199788  1
  In  In13  1  0.64671801  0.16067943  0.62307884  1
  In  In14  1  0.67999093  0.51463353  0.11711725  1
  In  In15  1  0.68709958  0.49507044  0.62261737  1
  In  In16  1  0.66466446  0.83964338  0.13247075  1
  In  In17  1  0.66930724  0.83642503  0.62797271  1
  In  In18  1  0.14953086  -0.00758873  0.36839113  1
  In  In19  1  0.16791770  0.01050675  0.87592611  1
  In  In20  1  0.16069702  0.34967428  0.37977659  1
  In  In21  1  0.16312632  0.33361667  0.87641832  1
  In  In22  1  0.12595659  0.69019905  0.40514070  1
  In  In23  1  0.15458734  0.65182583  0.88043107  1
  In  In24  1  0.51265989  -0.01366677  0.38476799  1
  In  In25  1  0.50601098  -0.00576326  0.88290478  1
  In  In26  1  0.48958028  0.33081487  0.37888005  1
  In  In27  1  0.49497459  0.33741363  0.87627877  1
  In  In28  1  0.51621633  0.66991979  0.37114006  1
  In  In29  1  0.51037987  0.65917936  0.87923114  1
  In  In30  1  0.82082110  -0.00857174  0.36856399  1
  In  In31  1  0.83460849  -0.00626570  0.86075883  1
  In  In32  1  0.84682544  0.33025853  0.37641634  1
  In  In33  1  0.84790130  0.33524721  0.87392440  1
  In  In34  1  0.83663368  0.67097788  0.38009539  1
  In  In35  1  0.82257850  0.67400722  0.87598748  1
  In  In36  1  -0.00360107  0.16558565  0.36379203  1
  In  In37  1  0.00213607  0.16887826  0.86979166  1
  In  In38  1  -0.00193279  0.50385997  0.37667614  1
  In  In39  1  0.01085919  0.49647907  0.88997322  1
  In  In40  1  -0.00841469  0.82985699  0.37770725  1
  In  In41  1  -0.01213983  0.83392605  0.87263051  1
  In  In42  1  0.34013675  0.17740114  0.38002770  1
  In  In43  1  0.32506957  0.17242776  0.88099362  1
  In  In44  1  0.32467854  0.49080666  0.37485086  1
  In  In45  1  0.33897750  0.49171406  0.87866315  1
  In  In46  1  0.32848092  0.83629850  0.38217920  1
  In  In47  1  0.33493953  0.84913764  0.87512073  1
  In  In48  1  0.67128036  0.15148390  0.37777771  1
  In  In49  1  0.66467306  0.15216513  0.87359448  1
  In  In50  1  0.66706432  0.51922190  0.37295211  1
  In  In51  1  0.66047746  0.50739887  0.87944244  1
  In  In52  1  0.66989372  0.83256913  0.37769401  1
  In  In53  1  0.66665666  0.82342653  0.86551278  1
  In  In54  1  0.14923400  0.00408107  0.11762548  1
  In  In55  1  0.16455619  -0.00985814  0.62298244  1
  In  In56  1  0.16134977  0.32724412  0.12101370  1
  In  In57  1  0.16110383  0.33988177  0.63544985  1
  In  In58  1  0.16188755  0.65856389  0.12533305  1
  In  In59  1  0.14836903  0.65305631  0.60434620  1
  In  In60  1  0.50615573  0.00406626  0.12091682  1
  In  In61  1  0.50813942  0.00361797  0.62354344  1
  In  In62  1  0.49556162  0.33111059  0.11418379  1
  In  In63  1  0.50504020  0.30863837  0.63264026  1
  In  In64  1  0.51050075  0.67670085  0.11889149  1
  In  In65  1  0.50596238  0.68359530  0.62467097  1
  In  In66  1  0.84041748  -0.00864717  0.13245761  1
  In  In67  1  0.84479673  -0.01468946  0.64022258  1
  In  In68  1  0.83552586  0.35243727  0.12115089  1
  In  In69  1  0.83171985  0.34947048  0.62365600  1
  In  In70  1  0.84323523  0.65976997  0.13518416  1
  In  In71  1  0.83272149  0.65993119  0.61658046  1
  In  In72  1  -0.00750924  0.66589522  0.74573382  1
  In  In73  1  0.83544809  0.16723314  -0.00854129  1
  In  In74  1  0.67032315  0.33080678  0.74788149  1
  In  In75  1  0.50075729  0.49794303  0.49904900  1
  In  In76  1  0.33427924  0.67294366  0.74316425  1
  In  In77  1  0.83780471  0.82908558  0.00293431  1
  In  In78  1  0.82480816  0.16889307  0.50156712  1
  In  In79  1  0.17094031  0.83017714  0.00169533  1
  In  In80  1  0.32900799  0.33132996  0.24686565  1
  In  In81  1  0.17319674  0.16315333  0.49913786  1
  In  In82  1  0.67044091  0.33413014  0.24590952  1
  In  In83  1  0.32347367  0.66291536  0.24924090  1
  In  In84  1  0.32931253  0.00012223  0.25693818  1
  In  In85  1  0.33502292  0.00620812  0.74920008  1
  Cu  Cu86  1  0.66078444  0.33556703  -0.00105240  1
  Cu  Cu87  1  0.33766685  0.66427814  -0.00101093  1
  Cu  Cu88  1  0.83887798  0.50441448  0.74726552  1
  Cu  Cu89  1  0.66556030  0.66763341  -0.00116591  1
  Cu  Cu90  1  0.83589033  0.16634736  0.24775206  1
  Cu  Cu91  1  0.33438980  0.66259125  0.50052263  1
  Cu  Cu92  1  -0.01054318  -0.00498960  0.49672116  1
  Cu  Cu93  1  0.66797484  -0.00682050  0.00072713  1
  Cu  Cu94  1  0.50473937  0.83686217  0.75106075  1
  Cu  Cu95  1  0.50988366  0.15663426  0.25049141  1
  Cu  Cu96  1  0.16565675  0.49295943  0.75562242  1
  Cu  Cu97  1  0.66774837  0.67340511  0.49888021  1
  Cu  Cu98  1  0.33979144  0.00286236  -0.00018216  1
  Cu  Cu99  1  0.83318418  0.83018665  0.25563692  1
  Cu  Cu100  1  0.15247622  0.50596133  0.25443601  1
  Cu  Cu101  1  0.66502230  -0.00458124  0.50336274  1
  Cu  Cu102  1  0.50350552  0.83543594  0.25268692  1
  Cu  Cu103  1  0.34005818  0.32576699  0.50731249  1
  Cu  Cu104  1  0.33568512  0.00040089  0.50297633  1
  Cu  Cu105  1  0.16461538  0.17147097  0.75536038  1
  Cu  Cu106  1  0.15807648  0.82932713  0.73961464  1
  Cu  Cu107  1  0.50820385  0.50351841  0.75507993  1
  Cu  Cu108  1  0.16305627  0.16687441  0.24485735  1
  Cu  Cu109  1  0.83825734  0.50452021  0.25061482  1
  Cu  Cu110  1  0.00063778  0.33872638  0.50147312  1
  Cu  Cu111  1  0.32915719  0.33767150  -0.00513637  1
  Cu  Cu112  1  0.50558444  0.50593383  0.24156343  1
  Cu  Cu113  1  0.83432659  0.16671322  0.75055094  1
  Cu  Cu114  1  0.00204166  0.33409629  0.00074709  1
  Se  Se115  1  0.08541760  0.09287195  0.04551957  1
  Se  Se116  1  0.07244480  0.07733423  0.55423140  1
  Se  Se117  1  0.08243815  0.41817886  0.05697036  1
  Se  Se118  1  0.08800743  0.41427034  0.55729182  1
  Se  Se119  1  0.07408845  0.74832145  0.06035319  1
  Se  Se120  1  0.08741607  0.75630971  0.54315915  1
  Se  Se121  1  0.42326144  0.08704787  0.05286223  1
  Se  Se122  1  0.41720606  0.08312895  0.55669050  1
  Se  Se123  1  0.41498105  0.41893516  0.04925357  1
  Se  Se124  1  0.41676823  0.41122027  0.56631423  1
  Se  Se125  1  0.42035569  0.75112093  0.04905715  1
  Se  Se126  1  0.41898332  0.74807827  0.54969684  1
  Se  Se127  1  0.75198669  0.07466628  0.05811361  1
  Se  Se128  1  0.74578730  0.07476874  0.56468055  1
  Se  Se129  1  0.74743086  0.41890886  0.04841043  1
  Se  Se130  1  0.75576212  0.41773072  0.54594230  1
  Se  Se131  1  0.74482769  0.74430373  0.06377334  1
  Se  Se132  1  0.74893004  0.75320632  0.55660582  1
  Se  Se133  1  0.24883160  0.25304664  0.05078775  1
  Se  Se134  1  0.25457763  0.25010317  0.56682244  1
  Se  Se135  1  0.24827217  0.58821722  0.05229567  1
  Se  Se136  1  0.25379269  0.57573607  0.55172773  1
  Se  Se137  1  0.26043781  0.92342938  0.06253154  1
  Se  Se138  1  0.24613736  0.91725902  0.54930446  1
  Se  Se139  1  0.58295508  0.24652042  0.05073993  1
  Se  Se140  1  0.59563447  0.26339868  0.55476172  1
  Se  Se141  1  0.58094532  0.58222977  0.05134966  1
  Se  Se142  1  0.59003377  0.58875458  0.55966648  1
  Se  Se143  1  0.58437906  0.91180262  0.05589333  1
  Se  Se144  1  0.58019612  0.91153336  0.55592323  1
  Se  Se145  1  0.91924571  0.25327430  0.05958236  1
  Se  Se146  1  0.92474351  0.25252731  0.56025831  1
  Se  Se147  1  0.90166392  0.57320852  0.05892506  1
  Se  Se148  1  0.93729946  0.59979067  0.55360258  1
  Se  Se149  1  0.92889011  0.92588630  0.05530308  1
  Se  Se150  1  0.90663707  0.91706869  0.55373790  1
  Se  Se151  1  0.07527383  0.25056453  0.44191140  1
  Se  Se152  1  0.07923165  0.24847901  0.94394395  1
  Se  Se153  1  0.10574238  0.55513431  0.44264228  1
  Se  Se154  1  0.08354725  0.58449426  0.95991784  1
  Se  Se155  1  0.07940856  0.91655070  0.44568473  1
  Se  Se156  1  0.08147841  0.91682604  0.93876277  1
  Se  Se157  1  0.42490506  0.24466566  0.45498245  1
  Se  Se158  1  0.41561488  0.25260231  0.94612594  1
  Se  Se159  1  0.41342944  0.58784435  0.43479023  1
  Se  Se160  1  0.41958844  0.58122015  0.94388358  1
  Se  Se161  1  0.41691487  0.91393715  0.44919937  1
  Se  Se162  1  0.41963054  0.91298148  0.95106879  1
  Se  Se163  1  0.74060092  0.25920919  0.43793386  1
  Se  Se164  1  0.74098997  0.25930703  0.93536564  1
  Se  Se165  1  0.75003631  0.58618221  0.44834320  1
  Se  Se166  1  0.75037581  0.58538843  0.94632630  1
  Se  Se167  1  0.75107514  0.91674094  0.44806200  1
  Se  Se168  1  0.74982640  0.91782530  0.93927013  1
  Se  Se169  1  0.25713458  0.07192376  0.43450944  1
  Se  Se170  1  0.24996252  0.08235642  0.94987148  1
  Se  Se171  1  0.25801395  0.40739409  0.45134048  1
  Se  Se172  1  0.24321473  0.42181782  0.94475516  1
  Se  Se173  1  0.25090496  0.74757638  0.44890275  1
  Se  Se174  1  0.25861807  0.74249099  0.93515708  1
  Se  Se175  1  0.58391470  0.08315814  0.45080433  1
  Se  Se176  1  0.58607942  0.08233860  0.95125369  1
  Se  Se177  1  0.58997070  0.41469726  0.43437185  1
  Se  Se178  1  0.57911747  0.41980621  0.94455977  1
  Se  Se179  1  0.58064943  0.75405294  0.44718861  1
  Se  Se180  1  0.58686264  0.75379932  0.94348026  1
  Se  Se181  1  0.91589531  0.08177822  0.43785201  1
  Se  Se182  1  0.92075849  0.07151127  0.93518170  1
  Se  Se183  1  0.91578658  0.41885349  0.44759184  1
  Se  Se184  1  0.91400109  0.41663096  0.95105716  1
  Se  Se185  1  0.91466147  0.75140392  0.45202544  1
  Se  Se186  1  0.92780652  0.73638397  0.94502082  1
  Se  Se187  1  0.23928935  0.24407647  0.31095773  1
  Se  Se188  1  0.24947603  0.25336653  0.80724798  1
  Se  Se189  1  0.23718442  0.58013321  0.31471653  1
  Se  Se190  1  0.24767015  0.58187185  0.80710720  1
  Se  Se191  1  0.23800286  0.90132411  0.30515317  1
  Se  Se192  1  0.23787238  0.91008357  0.80078687  1
  Se  Se193  1  0.58029180  0.24693505  0.31000225  1
  Se  Se194  1  0.58025996  0.24579896  0.80984356  1
  Se  Se195  1  0.58687238  0.58834668  0.29563009  1
  Se  Se196  1  0.59198130  0.59005585  0.80212985  1
  Se  Se197  1  0.58843567  0.91709695  0.30588730  1
  Se  Se198  1  0.58418679  0.92027902  0.80695796  1
  Se  Se199  1  0.91680030  0.25427245  0.29786232  1
  Se  Se200  1  0.91860507  0.25165086  0.80070378  1
  Se  Se201  1  0.91685808  0.58788370  0.30798563  1
  Se  Se202  1  0.91524206  0.57693738  0.81547856  1
  Se  Se203  1  0.91691060  0.91777354  0.30541061  1
  Se  Se204  1  0.91744464  0.90832804  0.79589665  1
  Se  Se205  1  0.08094462  0.08223258  0.29777333  1
  Se  Se206  1  0.08346106  0.08044896  0.80235493  1
  Se  Se207  1  0.07532784  0.41374658  0.30490191  1
  Se  Se208  1  0.07609015  0.41807008  0.80962915  1
  Se  Se209  1  0.07615482  0.74418369  0.31162534  1
  Se  Se210  1  0.08989573  0.75055313  0.80820539  1
  Se  Se211  1  0.42600028  0.08691462  0.31434420  1
  Se  Se212  1  0.42024565  0.08704718  0.81672722  1
  Se  Se213  1  0.42568210  0.42547913  0.30174755  1
  Se  Se214  1  0.42006293  0.42088011  0.80257905  1
  Se  Se215  1  0.41802584  0.75476694  0.30841251  1
  Se  Se216  1  0.42094650  0.75772917  0.81003049  1
  Se  Se217  1  0.74928813  0.08476399  0.29951147  1
  Se  Se218  1  0.74845851  0.08276250  0.79978538  1
  Se  Se219  1  0.75628157  0.42277640  0.31000065  1
  Se  Se220  1  0.75700038  0.42416925  0.80880425  1
  Se  Se221  1  0.74907101  0.74715401  0.30855673  1
  Se  Se222  1  0.76343277  0.75759072  0.79910439  1
  Se  Se223  1  0.25018976  0.09055824  0.18841819  1
  Se  Se224  1  0.24006465  0.09289548  0.68855134  1
  Se  Se225  1  0.23808784  0.42793949  0.19459541  1
  Se  Se226  1  0.25366116  0.41338555  0.70383191  1
  Se  Se227  1  0.23633667  0.75897136  0.19207698  1
  Se  Se228  1  0.23445775  0.74713364  0.67992594  1
  Se  Se229  1  0.59055112  0.07424190  0.19664777  1
  Se  Se230  1  0.56626879  0.09277290  0.69884807  1
  Se  Se231  1  0.58050255  0.42026835  0.18274172  1
  Se  Se232  1  0.58166012  0.42420826  0.68801482  1
  Se  Se233  1  0.58327591  0.74955529  0.19811602  1
  Se  Se234  1  0.58819194  0.75130374  0.70001404  1
  Se  Se235  1  0.92057667  0.08299206  0.19539225  1
  Se  Se236  1  0.92163858  0.08234020  0.70094100  1
  Se  Se237  1  0.91748564  0.41646111  0.19872197  1
  Se  Se238  1  0.92031538  0.41749521  0.69633664  1
  Se  Se239  1  0.91902843  0.75226042  0.19989043  1
  Se  Se240  1  0.90728331  0.75747704  0.68679701  1
  Se  Se241  1  0.07996062  0.25392444  0.19539731  1
  Se  Se242  1  0.07959741  0.25411459  0.70198386  1
  Se  Se243  1  0.07437354  0.58800034  0.19675685  1
  Se  Se244  1  0.09013031  0.57521697  0.69231716  1
  Se  Se245  1  0.08750757  0.92498714  0.19600979  1
  Se  Se246  1  0.07478043  0.91337063  0.68844860  1
  Se  Se247  1  0.42780092  0.23995608  0.19382021  1
  Se  Se248  1  0.41160493  0.25907133  0.70778906  1
  Se  Se249  1  0.41726286  0.58057268  0.18474486  1
  Se  Se250  1  0.42839572  0.57920130  0.68889109  1
  Se  Se251  1  0.41951137  0.91219183  0.19295123  1
  Se  Se252  1  0.41540176  0.90630767  0.68990025  1
  Se  Se253  1  0.75824230  0.24412997  0.18324821  1
  Se  Se254  1  0.75779913  0.24209877  0.68448258  1
  Se  Se255  1  0.74745199  0.58450921  0.20019852  1
  Se  Se256  1  0.75398116  0.58505376  0.69425572  1
  Se  Se257  1  0.75230218  0.91633295  0.20088412  1
  Se  Se258  1  0.72784534  0.93851708  0.69543948  1
