# generated using pymatgen
data_In86Cu29Se144
_symmetry_space_group_name_H-M   'P 1'
_cell_length_a   17.57530835
_cell_length_b   17.57549633
_cell_length_c   23.42153456
_cell_angle_alpha   89.99690783
_cell_angle_beta   90.03275349
_cell_angle_gamma   90.01660898
_symmetry_Int_Tables_number   1
_chemical_formula_structural   In86Cu29Se144
_chemical_formula_sum   'In86 Cu29 Se144'
_cell_volume   7234.78797200
_cell_formula_units_Z   1
loop_
 _symmetry_equiv_pos_site_id
 _symmetry_equiv_pos_as_xyz
  1  'x, y, z'
loop_
 _atom_site_type_symbol
 _atom_site_label
 _atom_site_symmetry_multiplicity
 _atom_site_fract_x
 _atom_site_fract_y
 _atom_site_fract_z
 _atom_site_occupancy
  In  In0  1  0.00170303  0.15687794  0.11870763  1
  In  In1  1  0.01614402  0.16648535  0.63020224  1
  In  In2  1  0.00882794  0.48800030  0.11785698  1
  In  In3  1  -0.00891854  0.50060514  0.64356405  1
  In  In4  1  0.00812278  0.84049804  0.11406813  1
  In  In5  1  -0.01166794  0.83263566  0.62620399  1
  In  In6  1  0.32578988  0.17491320  0.12890095  1
  In  In7  1  0.33663928  0.16900607  0.63715190  1
  In  In8  1  0.33412473  0.49241970  0.11466945  1
  In  In9  1  0.33943097  0.49234861  0.63058946  1
  In  In10  1  0.34021585  0.84190039  0.11950200  1
  In  In11  1  0.34250025  0.82387695  0.63470471  1
  In  In12  1  0.67270679  0.16537418  0.12658213  1
  In  In13  1  0.63956881  0.16595820  0.63289854  1
  In  In14  1  0.67028681  0.51925975  0.12500747  1
  In  In15  1  0.66840797  0.51216871  0.61097831  1
  In  In16  1  0.65567492  0.81818636  0.10883840  1
  In  In17  1  0.67138730  0.82885975  0.61798588  1
  In  In18  1  0.17811657  0.01096501  0.36856316  1
  In  In19  1  0.17368766  -0.00593203  0.88014055  1
  In  In20  1  0.16305766  0.31775938  0.37659628  1
  In  In21  1  0.17237801  0.32648964  0.87276988  1
  In  In22  1  0.16803901  0.66221424  0.37151415  1
  In  In23  1  0.16714910  0.66783219  0.87411740  1
  In  In24  1  0.49076340  0.00658554  0.38603527  1
  In  In25  1  0.49080600  -0.00575670  0.86493524  1
  In  In26  1  0.48677418  0.33946058  0.38211579  1
  In  In27  1  0.49372116  0.34762371  0.87375174  1
  In  In28  1  0.51417560  0.65969604  0.38836454  1
  In  In29  1  0.49539186  0.67958546  0.88535107  1
  In  In30  1  0.82902113  -0.01217802  0.37422089  1
  In  In31  1  0.82219353  0.00704950  0.87061738  1
  In  In32  1  0.84583381  0.34160785  0.38687542  1
  In  In33  1  0.84490246  0.33709740  0.86123572  1
  In  In34  1  0.80854208  0.68509812  0.39745767  1
  In  In35  1  0.84597542  0.66267301  0.87338280  1
  In  In36  1  0.01834092  0.17163564  0.37857112  1
  In  In37  1  0.01654404  0.19756885  0.85229412  1
  In  In38  1  -0.00426966  0.49137378  0.37854698  1
  In  In39  1  0.00155278  0.50981119  0.86809670  1
  In  In40  1  -0.01722238  0.83527598  0.37529216  1
  In  In41  1  0.00946859  0.82777441  0.88074813  1
  In  In42  1  0.32975061  0.16555662  0.37847712  1
  In  In43  1  0.31753141  0.14627110  0.84439836  1
  In  In44  1  0.34740117  0.49904539  0.37285612  1
  In  In45  1  0.33245741  0.50138322  0.87008741  1
  In  In46  1  0.33454180  0.85053698  0.37521144  1
  In  In47  1  0.33377452  0.83131980  0.87615207  1
  In  In48  1  0.65904194  0.14943035  0.38092327  1
  In  In49  1  0.68071678  0.16196383  0.86228333  1
  In  In50  1  0.65545554  0.51168546  0.38705425  1
  In  In51  1  0.65985765  0.49876798  0.87906880  1
  In  In52  1  0.66862875  0.83099396  0.38503012  1
  In  In53  1  0.65636435  0.83729091  0.88843744  1
  In  In54  1  0.16940013  0.00257298  0.11934402  1
  In  In55  1  0.17161082  0.02093996  0.63022397  1
  In  In56  1  0.17655632  0.34364449  0.10756629  1
  In  In57  1  0.17663095  0.31347608  0.64850438  1
  In  In58  1  0.17160440  0.66505716  0.11219866  1
  In  In59  1  0.16748949  0.66156473  0.63934525  1
  In  In60  1  0.49606886  -0.01497442  0.12522693  1
  In  In61  1  0.49608553  -0.00186601  0.63407798  1
  In  In62  1  0.48666140  0.32615586  0.12211831  1
  In  In63  1  0.48659755  0.32714237  0.61963589  1
  In  In64  1  0.50941178  0.67106960  0.11506424  1
  In  In65  1  0.49956842  0.65941638  0.61326353  1
  In  In66  1  0.84819626  -0.00016290  0.12467239  1
  In  In67  1  0.83056272  -0.01892426  0.62414524  1
  In  In68  1  0.84329250  0.32673450  0.12306703  1
  In  In69  1  0.83380712  0.34770658  0.63376327  1
  In  In70  1  0.81632771  0.66871320  0.12478894  1
  In  In71  1  0.83448056  0.67112855  0.62253019  1
  In  In72  1  0.66200210  0.33627465  0.74385585  1
  In  In73  1  0.34211946  0.67399718  0.24191978  1
  In  In74  1  0.65572245  0.34299907  0.26573297  1
  In  In75  1  0.16563115  0.49137983  0.50858124  1
  In  In76  1  0.49420579  0.16556731  -0.01088000  1
  In  In77  1  0.00599111  0.33123282  0.24348302  1
  In  In78  1  0.83470094  0.50318096  -0.00625600  1
  In  In79  1  0.66532422  -0.00697284  0.24843159  1
  In  In80  1  -0.00344796  -0.00378061  0.74744654  1
  In  In81  1  0.16772819  0.84077063  0.49917346  1
  In  In82  1  0.66773809  0.66848511  0.74550138  1
  In  In83  1  -0.00043827  0.66903187  0.25047488  1
  In  In84  1  0.82795307  0.16537473  0.50235463  1
  In  In85  1  0.84338598  0.16547884  -0.01241009  1
  Cu  Cu86  1  0.00405726  0.00053817  -0.00459321  1
  Cu  Cu87  1  0.33072579  0.32980826  0.50719324  1
  Cu  Cu88  1  0.50000957  0.83031581  0.24834213  1
  Cu  Cu89  1  0.65753912  -0.00222801  0.50603517  1
  Cu  Cu90  1  -0.00274845  0.66505206  0.50743754  1
  Cu  Cu91  1  0.82919011  0.83222325  0.25125384  1
  Cu  Cu92  1  0.16106770  0.84613548  0.24365788  1
  Cu  Cu93  1  0.16361774  0.50159014  0.75756107  1
  Cu  Cu94  1  0.48652500  0.15923224  0.25436259  1
  Cu  Cu95  1  0.83118729  0.51401726  0.25470796  1
  Cu  Cu96  1  0.16892785  0.83398737  0.75649860  1
  Cu  Cu97  1  0.66610858  0.33723654  -0.00249316  1
  Cu  Cu98  1  0.17659056  0.49288748  0.23877935  1
  Cu  Cu99  1  0.00645888  0.33354799  0.51105376  1
  Cu  Cu100  1  0.83009020  0.82743423  0.74839259  1
  Cu  Cu101  1  0.33260560  0.00747703  0.50694673  1
  Cu  Cu102  1  0.00008293  0.00226195  0.50557503  1
  Cu  Cu103  1  0.33437756  0.00048587  -0.00653787  1
  Cu  Cu104  1  0.33120186  0.33128412  -0.00822644  1
  Cu  Cu105  1  0.83807577  0.17156811  0.24571869  1
  Cu  Cu106  1  0.49779877  0.83448514  0.75621234  1
  Cu  Cu107  1  0.66177505  0.33417578  0.50747578  1
  Cu  Cu108  1  0.33907204  0.66813619  0.50180387  1
  Cu  Cu109  1  0.17179653  0.16202442  0.24818976  1
  Cu  Cu110  1  0.33043804  0.66125906  -0.00511329  1
  Cu  Cu111  1  0.66813429  -0.00483561  -0.00383914  1
  Cu  Cu112  1  0.00188311  0.66563055  -0.00376105  1
  Cu  Cu113  1  0.50325078  0.49807823  0.25328710  1
  Cu  Cu114  1  0.49814079  0.50689164  0.74475176  1
  Se  Se115  1  0.08800924  0.08521768  0.04745869  1
  Se  Se116  1  0.08670192  0.08605427  0.55311497  1
  Se  Se117  1  0.08369160  0.41685315  0.04238036  1
  Se  Se118  1  0.08366531  0.40831742  0.57689387  1
  Se  Se119  1  0.08619326  0.75014781  0.04868808  1
  Se  Se120  1  0.08481862  0.74453477  0.56174143  1
  Se  Se121  1  0.41289035  0.07855441  0.05874325  1
  Se  Se122  1  0.41599260  0.08532019  0.56484770  1
  Se  Se123  1  0.41913492  0.40948295  0.04669414  1
  Se  Se124  1  0.41493169  0.42151169  0.55118581  1
  Se  Se125  1  0.40936166  0.74454976  0.05436075  1
  Se  Se126  1  0.41707231  0.75637546  0.55385967  1
  Se  Se127  1  0.74845676  0.07958626  0.05414498  1
  Se  Se128  1  0.73938804  0.07876641  0.56562708  1
  Se  Se129  1  0.74861165  0.41040427  0.06094076  1
  Se  Se130  1  0.75214800  0.41355695  0.55564442  1
  Se  Se131  1  0.76126858  0.75682586  0.04865148  1
  Se  Se132  1  0.74445728  0.73771369  0.55097432  1
  Se  Se133  1  0.25362747  0.24443305  0.04791481  1
  Se  Se134  1  0.25045566  0.24944398  0.56522010  1
  Se  Se135  1  0.24865725  0.57458326  0.04766719  1
  Se  Se136  1  0.25437269  0.59094935  0.56063402  1
  Se  Se137  1  0.25223327  0.91794021  0.05066622  1
  Se  Se138  1  0.25499599  0.92240016  0.56630686  1
  Se  Se139  1  0.59070718  0.24967239  0.05555875  1
  Se  Se140  1  0.57663339  0.24733742  0.55348974  1
  Se  Se141  1  0.58000987  0.57397641  0.05079637  1
  Se  Se142  1  0.58875718  0.59217753  0.54152389  1
  Se  Se143  1  0.57934324  0.91856170  0.04971375  1
  Se  Se144  1  0.57671664  0.91584426  0.56177309  1
  Se  Se145  1  0.93095048  0.25823998  0.04974729  1
  Se  Se146  1  0.91912550  0.25119022  0.56423389  1
  Se  Se147  1  0.92266728  0.58996743  0.06206998  1
  Se  Se148  1  0.92243173  0.57843014  0.56360774  1
  Se  Se149  1  0.91721547  0.91977120  0.04796134  1
  Se  Se150  1  0.91628533  0.91248324  0.54957099  1
  Se  Se151  1  0.08777318  0.24996012  0.45680882  1
  Se  Se152  1  0.08795074  0.24291718  0.94050972  1
  Se  Se153  1  0.07947526  0.58876682  0.44529435  1
  Se  Se154  1  0.08379581  0.58227498  0.94287151  1
  Se  Se155  1  0.07643223  0.92612881  0.43700411  1
  Se  Se156  1  0.09025174  0.91271545  0.94876784  1
  Se  Se157  1  0.41216160  0.24780231  0.44871598  1
  Se  Se158  1  0.40314278  0.24911453  0.92778863  1
  Se  Se159  1  0.41649358  0.57989758  0.44805832  1
  Se  Se160  1  0.41620926  0.58002147  0.94267228  1
  Se  Se161  1  0.41171672  0.91868834  0.45407386  1
  Se  Se162  1  0.42026557  0.91671340  0.94330017  1
  Se  Se163  1  0.73847977  0.25714698  0.44021760  1
  Se  Se164  1  0.74576229  0.26038716  0.93630280  1
  Se  Se165  1  0.77245585  0.55814817  0.44305306  1
  Se  Se166  1  0.74109720  0.59529130  0.94119853  1
  Se  Se167  1  0.74784652  0.92239281  0.45130634  1
  Se  Se168  1  0.75786104  0.91780708  0.94468068  1
  Se  Se169  1  0.24633659  0.08412039  0.44974206  1
  Se  Se170  1  0.25982786  0.08877054  0.93759032  1
  Se  Se171  1  0.25501635  0.40995885  0.44048085  1
  Se  Se172  1  0.24993771  0.41884781  0.94014667  1
  Se  Se173  1  0.25645722  0.74339209  0.43975994  1
  Se  Se174  1  0.24876976  0.75002764  0.94488185  1
  Se  Se175  1  0.57519732  0.08556285  0.45672549  1
  Se  Se176  1  0.59340925  0.07921124  0.93480500  1
  Se  Se177  1  0.57995024  0.41403976  0.44762269  1
  Se  Se178  1  0.57800268  0.41859263  0.94891632  1
  Se  Se179  1  0.57499897  0.76230896  0.45126413  1
  Se  Se180  1  0.58528830  0.74677774  0.95637896  1
  Se  Se181  1  0.92093531  0.08028538  0.43941568  1
  Se  Se182  1  0.93306550  0.07805045  0.92786282  1
  Se  Se183  1  0.92495826  0.41959622  0.45952532  1
  Se  Se184  1  0.92449725  0.41034086  0.93852765  1
  Se  Se185  1  0.91914227  0.75178454  0.45243595  1
  Se  Se186  1  0.91701916  0.74922507  0.94583016  1
  Se  Se187  1  0.24977905  0.24828870  0.30483120  1
  Se  Se188  1  0.26047507  0.26400528  0.79609506  1
  Se  Se189  1  0.24996139  0.57719679  0.30125597  1
  Se  Se190  1  0.25099236  0.58878014  0.80310463  1
  Se  Se191  1  0.25030262  0.91874917  0.30029732  1
  Se  Se192  1  0.25410266  0.91776711  0.80603908  1
  Se  Se193  1  0.57146698  0.23616435  0.31397382  1
  Se  Se194  1  0.57894798  0.25149622  0.81145845  1
  Se  Se195  1  0.58271024  0.58441336  0.30687775  1
  Se  Se196  1  0.57571752  0.58321799  0.80842771  1
  Se  Se197  1  0.57436491  0.91236665  0.31307455  1
  Se  Se198  1  0.58862040  0.91188596  0.80736348  1
  Se  Se199  1  0.91442910  0.24844566  0.31108146  1
  Se  Se200  1  0.88301521  0.21474169  0.80872236  1
  Se  Se201  1  0.91296073  0.58758206  0.31776749  1
  Se  Se202  1  0.90678684  0.57578839  0.79902135  1
  Se  Se203  1  0.91424991  0.91918945  0.29934703  1
  Se  Se204  1  0.91110600  0.90574133  0.81062843  1
  Se  Se205  1  0.08244218  0.08587440  0.30289832  1
  Se  Se206  1  0.09003148  0.08022625  0.80709936  1
  Se  Se207  1  0.09444654  0.42377713  0.30662316  1
  Se  Se208  1  0.08299661  0.41415163  0.80851000  1
  Se  Se209  1  0.09109488  0.76350319  0.30931080  1
  Se  Se210  1  0.08135435  0.74959048  0.80389995  1
  Se  Se211  1  0.40808606  0.07520109  0.30963957  1
  Se  Se212  1  0.43937690  0.09598611  0.79515432  1
  Se  Se213  1  0.41643961  0.41220934  0.29998406  1
  Se  Se214  1  0.41589868  0.42166395  0.79735630  1
  Se  Se215  1  0.42315420  0.75356077  0.31480358  1
  Se  Se216  1  0.41613225  0.74655350  0.80660789  1
  Se  Se217  1  0.75681028  0.09074833  0.30526603  1
  Se  Se218  1  0.74586521  0.07200022  0.79100839  1
  Se  Se219  1  0.76223684  0.42434517  0.31489439  1
  Se  Se220  1  0.75006280  0.42866190  0.80542733  1
  Se  Se221  1  0.74790421  0.75354794  0.31004031  1
  Se  Se222  1  0.74991653  0.75492471  0.81400807  1
  Se  Se223  1  0.25365214  0.07827381  0.19333010  1
  Se  Se224  1  0.25178430  0.08690212  0.70637933  1
  Se  Se225  1  0.25722903  0.40853281  0.18757591  1
  Se  Se226  1  0.24759538  0.42364515  0.70006296  1
  Se  Se227  1  0.23937426  0.75793182  0.18830031  1
  Se  Se228  1  0.25138794  0.74908577  0.70226100  1
  Se  Se229  1  0.57307477  0.08939094  0.19153999  1
  Se  Se230  1  0.57479730  0.08045161  0.70731187  1
  Se  Se231  1  0.57915786  0.41857465  0.18740306  1
  Se  Se232  1  0.57736240  0.42946491  0.68160831  1
  Se  Se233  1  0.58253375  0.75120312  0.19166832  1
  Se  Se234  1  0.57186433  0.75561156  0.68944708  1
  Se  Se235  1  0.92120096  0.08683762  0.19594120  1
  Se  Se236  1  0.90972201  0.08295667  0.68359131  1
  Se  Se237  1  0.90799581  0.43023578  0.19395138  1
  Se  Se238  1  0.92485987  0.40147270  0.70922371  1
  Se  Se239  1  0.91249472  0.75740718  0.18814888  1
  Se  Se240  1  0.91685393  0.74596292  0.69767092  1
  Se  Se241  1  0.09572214  0.24364774  0.18399378  1
  Se  Se242  1  0.07375958  0.24738374  0.71061155  1
  Se  Se243  1  0.09097286  0.57817943  0.18890959  1
  Se  Se244  1  0.07842337  0.58674379  0.70642310  1
  Se  Se245  1  0.07781463  0.92522515  0.18852198  1
  Se  Se246  1  0.09309868  0.90916219  0.68736075  1
  Se  Se247  1  0.41430902  0.24997359  0.19922524  1
  Se  Se248  1  0.41438935  0.26362033  0.70112103  1
  Se  Se249  1  0.42569056  0.57484903  0.18684390  1
  Se  Se250  1  0.41657315  0.59168282  0.69041566  1
  Se  Se251  1  0.41300229  0.91496414  0.20016958  1
  Se  Se252  1  0.41096015  0.91678902  0.70402053  1
  Se  Se253  1  0.75037873  0.25593700  0.19811311  1
  Se  Se254  1  0.75019750  0.24191716  0.68641500  1
  Se  Se255  1  0.74377198  0.59323625  0.20348874  1
  Se  Se256  1  0.75642597  0.57357172  0.69081480  1
  Se  Se257  1  0.75306153  0.90897201  0.18400141  1
  Se  Se258  1  0.74461645  0.90823576  0.69568684  1
