# generated using pymatgen
data_In86Cu29Se144
_symmetry_space_group_name_H-M   'P 1'
_cell_length_a   17.58554848
_cell_length_b   17.58525664
_cell_length_c   23.44226480
_cell_angle_alpha   90.01913449
_cell_angle_beta   89.99748232
_cell_angle_gamma   90.01177954
_symmetry_Int_Tables_number   1
_chemical_formula_structural   In86Cu29Se144
_chemical_formula_sum   'In86 Cu29 Se144'
_cell_volume   7249.43504108
_cell_formula_units_Z   1
loop_
 _symmetry_equiv_pos_site_id
 _symmetry_equiv_pos_as_xyz
  1  'x, y, z'
loop_
 _atom_site_type_symbol
 _atom_site_label
 _atom_site_symmetry_multiplicity
 _atom_site_fract_x
 _atom_site_fract_y
 _atom_site_fract_z
 _atom_site_occupancy
  In  In0  1  -0.03592366  0.15563667  0.10328734  1
  In  In1  1  0.01060038  0.15257101  0.64432471  1
  In  In2  1  -0.00097221  0.48821138  0.10768704  1
  In  In3  1  0.00555020  0.48405077  0.63189955  1
  In  In4  1  0.00735982  0.84332164  0.11209372  1
  In  In5  1  0.01634459  0.83476786  0.62999993  1
  In  In6  1  0.33602351  0.14687252  0.11147707  1
  In  In7  1  0.33602975  0.17281211  0.62870068  1
  In  In8  1  0.33334219  0.50770303  0.12669340  1
  In  In9  1  0.33293061  0.49924761  0.62469751  1
  In  In10  1  0.31635667  0.82344576  0.12204558  1
  In  In11  1  0.32539325  0.84342258  0.63301476  1
  In  In12  1  0.66438425  0.16623057  0.12443437  1
  In  In13  1  0.65705189  0.17856012  0.62364207  1
  In  In14  1  0.66604222  0.49155946  0.13226040  1
  In  In15  1  0.67001533  0.50472844  0.62514318  1
  In  In16  1  0.67555170  0.82359122  0.12942593  1
  In  In17  1  0.65458699  0.82846106  0.62617668  1
  In  In18  1  0.16331138  0.00541757  0.38124806  1
  In  In19  1  0.16067267  -0.00626881  0.87245601  1
  In  In20  1  0.17088854  0.33040950  0.38493859  1
  In  In21  1  0.17256190  0.33923398  0.86583070  1
  In  In22  1  0.18700206  0.65436850  0.39288239  1
  In  In23  1  0.17000402  0.66637961  0.87468251  1
  In  In24  1  0.50728687  0.00153710  0.37332310  1
  In  In25  1  0.49701688  0.01672522  0.87384920  1
  In  In26  1  0.51374960  0.33005755  0.38927619  1
  In  In27  1  0.48997138  0.32839282  0.86800391  1
  In  In28  1  0.49040460  0.66076288  0.36975516  1
  In  In29  1  0.49529354  0.66333168  0.86382421  1
  In  In30  1  0.83415119  0.00371498  0.36216398  1
  In  In31  1  0.84335857  0.00372175  0.88714212  1
  In  In32  1  0.82679639  0.34547540  0.37053024  1
  In  In33  1  0.85360787  0.31791293  0.89226059  1
  In  In34  1  0.83054075  0.67704063  0.36963378  1
  In  In35  1  0.83084687  0.67107874  0.88288480  1
  In  In36  1  0.00939689  0.16453376  0.37488484  1
  In  In37  1  -0.00918134  0.16320564  0.86745446  1
  In  In38  1  0.00575702  0.50555392  0.37753756  1
  In  In39  1  0.01162384  0.48733483  0.88791259  1
  In  In40  1  0.00631201  0.84501190  0.37281153  1
  In  In41  1  -0.00545445  0.85398259  0.89213223  1
  In  In42  1  0.33079091  0.17078633  0.38387291  1
  In  In43  1  0.34049080  0.16869463  0.86374328  1
  In  In44  1  0.33390776  0.50788982  0.38669229  1
  In  In45  1  0.32449859  0.49595486  0.86225190  1
  In  In46  1  0.32995921  0.82035733  0.37820516  1
  In  In47  1  0.32472650  0.82766479  0.86598225  1
  In  In48  1  0.66302963  0.16653207  0.36874179  1
  In  In49  1  0.67288423  0.17126593  0.88466553  1
  In  In50  1  0.65255986  0.49157383  0.36431513  1
  In  In51  1  0.66880702  0.50952683  0.87494305  1
  In  In52  1  0.66538981  0.83678583  0.36175631  1
  In  In53  1  0.68140469  0.83377449  0.87900216  1
  In  In54  1  0.16681073  -0.01760058  0.11929007  1
  In  In55  1  0.16710652  0.00537022  0.62872041  1
  In  In56  1  0.14837455  0.33205759  0.11864933  1
  In  In57  1  0.17090934  0.33282041  0.62783801  1
  In  In58  1  0.16440340  0.66245740  0.12206157  1
  In  In59  1  0.18522333  0.67799111  0.61216396  1
  In  In60  1  0.49789864  0.01617014  0.12116966  1
  In  In61  1  0.48553446  0.00552305  0.63040049  1
  In  In62  1  0.50861117  0.33038703  0.12557882  1
  In  In63  1  0.48564806  0.31174332  0.61175748  1
  In  In64  1  0.49628858  0.66328482  0.13648560  1
  In  In65  1  0.50405632  0.66202928  0.62817492  1
  In  In66  1  0.83322509  -0.00412929  0.12314641  1
  In  In67  1  0.84261812  0.01200462  0.63451516  1
  In  In68  1  0.82564578  0.32384861  0.11267239  1
  In  In69  1  0.83484584  0.33985289  0.63292846  1
  In  In70  1  0.82838036  0.65808327  0.11650925  1
  In  In71  1  0.82288503  0.65690947  0.63313972  1
  In  In72  1  0.49866683  0.83909086  -0.00194549  1
  In  In73  1  0.49409694  0.83521842  0.49659369  1
  In  In74  1  0.83489278  0.17193240  0.49994797  1
  In  In75  1  0.16380772  0.16599764  -0.01043537  1
  In  In76  1  0.00301143  0.66796239  0.75332023  1
  In  In77  1  0.66763925  0.33502535  0.74907789  1
  In  In78  1  0.67108114  -0.00589460  0.75829950  1
  In  In79  1  0.33379926  0.33367266  0.25451503  1
  In  In80  1  0.83392997  0.50007695  0.50344987  1
  In  In81  1  0.49774339  0.49208360  -0.00297430  1
  In  In82  1  0.00041870  0.66886152  0.24767673  1
  In  In83  1  0.83760619  0.83656574  0.49062525  1
  In  In84  1  0.33602856  -0.00949271  0.24402085  1
  In  In85  1  -0.00889119  0.32539591  0.24306646  1
  Cu  Cu86  1  0.83488350  0.83269848  0.76141199  1
  Cu  Cu87  1  0.82625474  0.16555166  0.23991459  1
  Cu  Cu88  1  0.16407601  0.82566834  0.24681864  1
  Cu  Cu89  1  0.49728370  0.49756870  0.74507074  1
  Cu  Cu90  1  0.49832665  0.82697488  0.74863816  1
  Cu  Cu91  1  0.49656988  0.50363047  0.25359778  1
  Cu  Cu92  1  0.50208793  0.83464013  0.25125103  1
  Cu  Cu93  1  0.00767497  -0.00086376  0.50529734  1
  Cu  Cu94  1  0.16277873  0.84117755  0.75084717  1
  Cu  Cu95  1  0.33393969  0.33640624  0.50582894  1
  Cu  Cu96  1  0.17170481  0.17047507  0.75100975  1
  Cu  Cu97  1  0.32623979  0.66395505  -0.00193990  1
  Cu  Cu98  1  0.83449296  0.49844976  0.75712019  1
  Cu  Cu99  1  0.32700352  0.00649699  0.50867689  1
  Cu  Cu100  1  0.82105730  0.50241290  0.24331999  1
  Cu  Cu101  1  0.66926617  0.33041527  0.00456027  1
  Cu  Cu102  1  0.83375806  0.83438325  0.24450585  1
  Cu  Cu103  1  0.32964277  0.32918814  -0.01127907  1
  Cu  Cu104  1  0.16657520  0.49889897  0.25591573  1
  Cu  Cu105  1  0.15365504  0.15537529  0.24957177  1
  Cu  Cu106  1  0.66586768  0.66548996  0.49910985  1
  Cu  Cu107  1  0.66428953  0.66624325  0.00232719  1
  Cu  Cu108  1  0.50098537  0.17055150  0.24930943  1
  Cu  Cu109  1  0.16959688  0.50488240  0.74819056  1
  Cu  Cu110  1  0.66123220  0.00995226  0.49604357  1
  Cu  Cu111  1  0.01131849  0.66108721  0.50423398  1
  Cu  Cu112  1  0.00739394  0.32556279  0.50645048  1
  Cu  Cu113  1  0.67243556  0.00259086  0.00152377  1
  Cu  Cu114  1  0.00437654  0.67133015  -0.00226485  1
  Se  Se115  1  0.08127457  0.08019551  0.05907673  1
  Se  Se116  1  0.08149107  0.08876533  0.55984198  1
  Se  Se117  1  0.09949158  0.42481555  0.04344306  1
  Se  Se118  1  0.08700441  0.41529654  0.55631990  1
  Se  Se119  1  0.09085148  0.75066684  0.05217785  1
  Se  Se120  1  0.08520595  0.75553044  0.55347875  1
  Se  Se121  1  0.42488238  0.08169241  0.04066787  1
  Se  Se122  1  0.41689584  0.08811949  0.55560837  1
  Se  Se123  1  0.40564070  0.40472807  0.05851349  1
  Se  Se124  1  0.42085285  0.42032365  0.55476907  1
  Se  Se125  1  0.41434076  0.73809573  0.05682155  1
  Se  Se126  1  0.41311065  0.75278515  0.56583926  1
  Se  Se127  1  0.75278671  0.08741595  0.05699917  1
  Se  Se128  1  0.74667969  0.07709146  0.56011074  1
  Se  Se129  1  0.74587887  0.42303580  0.05481890  1
  Se  Se130  1  0.74379433  0.40498813  0.55737069  1
  Se  Se131  1  0.75029359  0.75101230  0.05087692  1
  Se  Se132  1  0.74904493  0.74682965  0.55626905  1
  Se  Se133  1  0.25411039  0.25360238  0.05740294  1
  Se  Se134  1  0.25094969  0.24992419  0.55699172  1
  Se  Se135  1  0.24858222  0.57817277  0.05374442  1
  Se  Se136  1  0.24727165  0.57334431  0.55293049  1
  Se  Se137  1  0.27187943  0.92897416  0.05505368  1
  Se  Se138  1  0.24572580  0.91897755  0.55825334  1
  Se  Se139  1  0.58052491  0.24730042  0.05280770  1
  Se  Se140  1  0.58770483  0.25100614  0.54578259  1
  Se  Se141  1  0.58109410  0.58579598  0.05967758  1
  Se  Se142  1  0.58621451  0.58452692  0.55546829  1
  Se  Se143  1  0.59214558  0.92071981  0.06159614  1
  Se  Se144  1  0.58605496  0.92689136  0.55759014  1
  Se  Se145  1  0.94810244  0.28688076  0.05782114  1
  Se  Se146  1  0.92399577  0.25185134  0.56728785  1
  Se  Se147  1  0.92048552  0.58558976  0.04935189  1
  Se  Se148  1  0.92508342  0.58954752  0.56524724  1
  Se  Se149  1  0.91068875  0.91513799  0.05077551  1
  Se  Se150  1  0.91990607  0.92134135  0.56108156  1
  Se  Se151  1  0.08560962  0.24293305  0.44836250  1
  Se  Se152  1  0.07873429  0.25960896  0.93224746  1
  Se  Se153  1  0.08927206  0.57320081  0.45156911  1
  Se  Se154  1  0.08856390  0.58693593  0.94589506  1
  Se  Se155  1  0.08657258  0.91474679  0.44935171  1
  Se  Se156  1  0.09703344  0.91790110  0.95406375  1
  Se  Se157  1  0.41560881  0.25303707  0.44915871  1
  Se  Se158  1  0.41736952  0.24633257  0.94195050  1
  Se  Se159  1  0.41692166  0.59664229  0.44992930  1
  Se  Se160  1  0.40932867  0.58533011  0.93866872  1
  Se  Se161  1  0.40355710  0.93111602  0.43979515  1
  Se  Se162  1  0.41082087  0.91993985  0.93319691  1
  Se  Se163  1  0.74519164  0.25944991  0.43934265  1
  Se  Se164  1  0.75766333  0.24510627  0.95706544  1
  Se  Se165  1  0.74935683  0.58933827  0.43833882  1
  Se  Se166  1  0.74853515  0.58314321  0.94984450  1
  Se  Se167  1  0.74056467  0.92847998  0.43744530  1
  Se  Se168  1  0.75479897  0.91722465  0.95020510  1
  Se  Se169  1  0.24562007  0.08777405  0.44958079  1
  Se  Se170  1  0.25872209  0.08031272  0.93351301  1
  Se  Se171  1  0.25063055  0.41751509  0.44974393  1
  Se  Se172  1  0.25157730  0.41942894  0.94006698  1
  Se  Se173  1  0.24884390  0.75750528  0.45532202  1
  Se  Se174  1  0.25029346  0.75238685  0.94428989  1
  Se  Se175  1  0.57877520  0.09177186  0.44280402  1
  Se  Se176  1  0.58795209  0.08167052  0.94645307  1
  Se  Se177  1  0.58448398  0.43199215  0.44887554  1
  Se  Se178  1  0.59061189  0.40424372  0.93764712  1
  Se  Se179  1  0.59185860  0.75033684  0.43790940  1
  Se  Se180  1  0.58362520  0.74106176  0.93923706  1
  Se  Se181  1  0.92157006  0.07224159  0.44288445  1
  Se  Se182  1  0.92568294  0.09168953  0.95088101  1
  Se  Se183  1  0.92738873  0.40577462  0.44442466  1
  Se  Se184  1  0.89914971  0.43620005  0.94685920  1
  Se  Se185  1  0.93195427  0.73806250  0.44087947  1
  Se  Se186  1  0.91599271  0.75382157  0.94931362  1
  Se  Se187  1  0.23643894  0.23793025  0.30599855  1
  Se  Se188  1  0.25691629  0.25652619  0.79938854  1
  Se  Se189  1  0.25018265  0.57921168  0.30989443  1
  Se  Se190  1  0.25071158  0.59294778  0.79889277  1
  Se  Se191  1  0.24334607  0.90912523  0.30802468  1
  Se  Se192  1  0.25124101  0.92290167  0.80071845  1
  Se  Se193  1  0.57812921  0.25583066  0.30544183  1
  Se  Se194  1  0.58287880  0.23906168  0.80793946  1
  Se  Se195  1  0.58390149  0.59107938  0.30076081  1
  Se  Se196  1  0.58152697  0.57680907  0.80124964  1
  Se  Se197  1  0.58313222  0.92562497  0.29771591  1
  Se  Se198  1  0.57566349  0.90418492  0.81478120  1
  Se  Se199  1  0.90321882  0.23874458  0.31020882  1
  Se  Se200  1  0.91771258  0.26065005  0.80439415  1
  Se  Se201  1  0.90742059  0.57302710  0.30605472  1
  Se  Se202  1  0.91589484  0.57998664  0.81533936  1
  Se  Se203  1  0.91790696  0.91329372  0.30081724  1
  Se  Se204  1  0.91582866  0.91914925  0.81174099  1
  Se  Se205  1  0.07596841  0.07109853  0.30492439  1
  Se  Se206  1  0.08833035  0.08763021  0.80549514  1
  Se  Se207  1  0.08465787  0.41191206  0.30847778  1
  Se  Se208  1  0.08345927  0.42516771  0.80241565  1
  Se  Se209  1  0.09205498  0.74606331  0.31436026  1
  Se  Se210  1  0.08246356  0.76451355  0.81446759  1
  Se  Se211  1  0.41511159  0.09106259  0.30662613  1
  Se  Se212  1  0.42220939  0.08441597  0.79537527  1
  Se  Se213  1  0.42123276  0.42094623  0.31637449  1
  Se  Se214  1  0.41494205  0.41447923  0.79881498  1
  Se  Se215  1  0.41519536  0.75418849  0.30302880  1
  Se  Se216  1  0.40968451  0.74485852  0.79821417  1
  Se  Se217  1  0.74475269  0.08432952  0.29896600  1
  Se  Se218  1  0.75835022  0.08838003  0.81433492  1
  Se  Se219  1  0.74302864  0.41475937  0.29685402  1
  Se  Se220  1  0.75640556  0.41490923  0.81646193  1
  Se  Se221  1  0.74969977  0.75055534  0.29678312  1
  Se  Se222  1  0.74935904  0.74500989  0.80621710  1
  Se  Se223  1  0.24328802  0.08530534  0.18949660  1
  Se  Se224  1  0.25309022  0.08623208  0.69608432  1
  Se  Se225  1  0.23934381  0.41594713  0.19133979  1
  Se  Se226  1  0.25231847  0.41767851  0.69680779  1
  Se  Se227  1  0.24605693  0.73938541  0.19644388  1
  Se  Se228  1  0.24256704  0.75362243  0.69760133  1
  Se  Se229  1  0.58158806  0.08468174  0.19608369  1
  Se  Se230  1  0.58575274  0.08319661  0.69332626  1
  Se  Se231  1  0.57521225  0.41623431  0.19986440  1
  Se  Se232  1  0.57640229  0.41670522  0.68489678  1
  Se  Se233  1  0.58398030  0.74920608  0.19750337  1
  Se  Se234  1  0.58667952  0.74443573  0.69985579  1
  Se  Se235  1  0.91554922  0.08366059  0.19228055  1
  Se  Se236  1  0.91607218  0.08353992  0.71087645  1
  Se  Se237  1  0.90776810  0.42451924  0.18672894  1
  Se  Se238  1  0.91815779  0.41556588  0.70457939  1
  Se  Se239  1  0.91367889  0.75445053  0.18346429  1
  Se  Se240  1  0.90927568  0.75727701  0.69155679  1
  Se  Se241  1  0.07798771  0.23166934  0.18447068  1
  Se  Se242  1  0.08588157  0.25559054  0.70020147  1
  Se  Se243  1  0.08163122  0.56751507  0.19076875  1
  Se  Se244  1  0.09071422  0.58577807  0.68670899  1
  Se  Se245  1  0.08370437  0.91089990  0.19389678  1
  Se  Se246  1  0.07933989  0.92745495  0.70045159  1
  Se  Se247  1  0.41277895  0.23962825  0.18772980  1
  Se  Se248  1  0.42616196  0.24700385  0.69791902  1
  Se  Se249  1  0.40778235  0.58359126  0.20302405  1
  Se  Se250  1  0.41446267  0.58437974  0.69476175  1
  Se  Se251  1  0.42594479  0.90425748  0.18143989  1
  Se  Se252  1  0.41652796  0.91709314  0.70152882  1
  Se  Se253  1  0.74652485  0.25562894  0.19125743  1
  Se  Se254  1  0.75858324  0.23759399  0.69376539  1
  Se  Se255  1  0.74270406  0.59130242  0.19231398  1
  Se  Se256  1  0.74589273  0.57741405  0.70495675  1
  Se  Se257  1  0.74793581  0.91921128  0.19508562  1
  Se  Se258  1  0.75732721  0.90534173  0.69029575  1
