# generated using pymatgen
data_In86Cu29Se144
_symmetry_space_group_name_H-M   'P 1'
_cell_length_a   17.57655882
_cell_length_b   17.57983754
_cell_length_c   23.44085853
_cell_angle_alpha   90.00923418
_cell_angle_beta   89.99685445
_cell_angle_gamma   89.99617641
_symmetry_Int_Tables_number   1
_chemical_formula_structural   In86Cu29Se144
_chemical_formula_sum   'In86 Cu29 Se144'
_cell_volume   7243.06221918
_cell_formula_units_Z   1
loop_
 _symmetry_equiv_pos_site_id
 _symmetry_equiv_pos_as_xyz
  1  'x, y, z'
loop_
 _atom_site_type_symbol
 _atom_site_label
 _atom_site_symmetry_multiplicity
 _atom_site_fract_x
 _atom_site_fract_y
 _atom_site_fract_z
 _atom_site_occupancy
  In  In0  1  -0.00130988  0.16683014  0.12439923  1
  In  In1  1  0.01122879  0.16220496  0.62214742  1
  In  In2  1  -0.01544298  0.50600299  0.13909006  1
  In  In3  1  -0.01100151  0.51040491  0.63320032  1
  In  In4  1  -0.00581540  0.84384228  0.13248756  1
  In  In5  1  -0.02090293  0.83111845  0.61908889  1
  In  In6  1  0.34632410  0.17635888  0.11162635  1
  In  In7  1  0.32770571  0.18182823  0.62674765  1
  In  In8  1  0.33423242  0.49816583  0.12801848  1
  In  In9  1  0.33303119  0.49641289  0.62828762  1
  In  In10  1  0.32673302  0.83128804  0.12940635  1
  In  In11  1  0.32627084  0.82282927  0.62419512  1
  In  In12  1  0.65870483  0.15822450  0.11946207  1
  In  In13  1  0.66451530  0.16234301  0.63309931  1
  In  In14  1  0.67085251  0.50097213  0.11496371  1
  In  In15  1  0.68024141  0.51400780  0.61777366  1
  In  In16  1  0.68050255  0.82722843  0.12437795  1
  In  In17  1  0.67041955  0.82933364  0.63005823  1
  In  In18  1  0.16384782  0.01695602  0.37673657  1
  In  In19  1  0.17241032  0.01514685  0.88146665  1
  In  In20  1  0.16183600  0.32665039  0.36701785  1
  In  In21  1  0.16209353  0.32609849  0.87218446  1
  In  In22  1  0.16667212  0.66630866  0.36898762  1
  In  In23  1  0.16658127  0.66458616  0.86730278  1
  In  In24  1  0.51390519  -0.01016111  0.36988143  1
  In  In25  1  0.51154921  -0.00814538  0.87795349  1
  In  In26  1  0.50348002  0.35106129  0.37476703  1
  In  In27  1  0.49280987  0.34609283  0.87995420  1
  In  In28  1  0.48889037  0.66326272  0.37577073  1
  In  In29  1  0.49277216  0.65295406  0.86912758  1
  In  In30  1  0.82390843  -0.01162899  0.36719127  1
  In  In31  1  0.82900022  0.00423348  0.88161315  1
  In  In32  1  0.84366188  0.33576665  0.37172003  1
  In  In33  1  0.84130331  0.32724075  0.88332100  1
  In  In34  1  0.84459516  0.65945141  0.38259810  1
  In  In35  1  0.83483765  0.66634777  0.87842129  1
  In  In36  1  0.00479921  0.17664870  0.36452045  1
  In  In37  1  -0.00303481  0.17227686  0.88269328  1
  In  In38  1  -0.00901813  0.49564788  0.36560227  1
  In  In39  1  -0.00036510  0.49311804  0.87223822  1
  In  In40  1  -0.01098983  0.82434395  0.37074840  1
  In  In41  1  -0.00004844  0.81684180  0.87445189  1
  In  In42  1  0.31815707  0.16701750  0.37311108  1
  In  In43  1  0.32098069  0.17517542  0.88943419  1
  In  In44  1  0.34410105  0.50823883  0.36601356  1
  In  In45  1  0.34772299  0.50954521  0.87012849  1
  In  In46  1  0.34227593  0.81766246  0.37135280  1
  In  In47  1  0.34269299  0.82363493  0.87413093  1
  In  In48  1  0.67526757  0.15512600  0.37148389  1
  In  In49  1  0.67434335  0.15832994  0.88211434  1
  In  In50  1  0.66678484  0.50084194  0.38542685  1
  In  In51  1  0.65749212  0.50956359  0.88161033  1
  In  In52  1  0.67501022  0.85134332  0.37197709  1
  In  In53  1  0.67434469  0.84052357  0.86985552  1
  In  In54  1  0.15501506  -0.00247330  0.12500246  1
  In  In55  1  0.14910537  0.01142268  0.61564854  1
  In  In56  1  0.17185516  0.32767046  0.12992077  1
  In  In57  1  0.16701105  0.33025122  0.62944727  1
  In  In58  1  0.16780765  0.66211780  0.13339441  1
  In  In59  1  0.17029717  0.65741032  0.63428835  1
  In  In60  1  0.49144488  0.01474061  0.12572303  1
  In  In61  1  0.50863982  0.00339905  0.63046748  1
  In  In62  1  0.49671658  0.33082182  0.11880610  1
  In  In63  1  0.48192176  0.33491801  0.62982770  1
  In  In64  1  0.49824921  0.65640932  0.12125977  1
  In  In65  1  0.50455567  0.66331138  0.62811000  1
  In  In66  1  0.83322590  -0.00091100  0.12484705  1
  In  In67  1  0.82940611  -0.01284791  0.61750388  1
  In  In68  1  0.84427481  0.34075658  0.12025530  1
  In  In69  1  0.83167114  0.35123285  0.62742431  1
  In  In70  1  0.83418364  0.66950756  0.11868400  1
  In  In71  1  0.83155756  0.66695233  0.62705979  1
  In  In72  1  0.33548992  -0.00243997  0.75706615  1
  In  In73  1  0.16719981  0.49652465  0.00709935  1
  In  In74  1  0.16286296  0.83252007  0.49120310  1
  In  In75  1  0.49695136  0.17148149  0.49942841  1
  In  In76  1  0.16547546  0.49967589  0.50061962  1
  In  In77  1  0.16375465  0.83702329  -0.00278001  1
  In  In78  1  0.66770469  0.66833543  0.24325424  1
  In  In79  1  0.50131684  0.83467192  -0.00024627  1
  In  In80  1  0.83600932  0.16872774  0.49705167  1
  In  In81  1  0.66480876  0.33883580  0.75660201  1
  In  In82  1  -0.00406521  -0.00496045  0.74049595  1
  In  In83  1  0.67256031  0.32951897  0.25486957  1
  In  In84  1  0.50593209  0.83156373  0.50108687  1
  In  In85  1  0.32902704  -0.00053908  0.24992135  1
  Cu  Cu86  1  0.16609019  0.16938300  0.75040020  1
  Cu  Cu87  1  0.83603334  0.83088455  0.24671340  1
  Cu  Cu88  1  0.50423191  0.82545186  0.75272916  1
  Cu  Cu89  1  0.83669745  0.50537488  0.75330090  1
  Cu  Cu90  1  0.50029744  0.16462221  0.75278206  1
  Cu  Cu91  1  0.83391319  0.16011157  0.24629613  1
  Cu  Cu92  1  0.33474174  0.34217450  0.00082445  1
  Cu  Cu93  1  0.00158338  0.33570575  0.49333940  1
  Cu  Cu94  1  0.49503197  0.16988228  0.24306697  1
  Cu  Cu95  1  0.32561843  0.33804352  0.50260057  1
  Cu  Cu96  1  0.16747033  0.16925507  0.24561207  1
  Cu  Cu97  1  -0.00305616  0.66632649  0.00384218  1
  Cu  Cu98  1  0.16897754  0.49177003  0.75171720  1
  Cu  Cu99  1  -0.00668299  0.00236665  0.00526470  1
  Cu  Cu100  1  0.16328701  0.83102451  0.25196799  1
  Cu  Cu101  1  0.66742081  0.66705081  -0.00265632  1
  Cu  Cu102  1  0.67048360  0.67334663  0.50318401  1
  Cu  Cu103  1  0.83229624  0.82636373  0.74915697  1
  Cu  Cu104  1  0.33227022  0.00247684  0.49738952  1
  Cu  Cu105  1  0.16689934  0.82708013  0.74919063  1
  Cu  Cu106  1  0.66849638  0.32868085  -0.00040309  1
  Cu  Cu107  1  0.50208701  0.49894946  0.74862432  1
  Cu  Cu108  1  0.49879486  0.49808484  0.24575969  1
  Cu  Cu109  1  0.67047506  -0.00080757  0.00047687  1
  Cu  Cu110  1  0.16472871  0.49660886  0.25055468  1
  Cu  Cu111  1  0.83616889  0.16641906  0.76004015  1
  Cu  Cu112  1  0.66458496  0.33893809  0.50314002  1
  Cu  Cu113  1  0.00209349  0.33074311  0.00147318  1
  Cu  Cu114  1  -0.00449190  0.66860036  0.50243963  1
  Se  Se115  1  0.08236253  0.08378022  0.05381292  1
  Se  Se116  1  0.07618345  0.08858223  0.54146080  1
  Se  Se117  1  0.07339300  0.41268845  0.06659804  1
  Se  Se118  1  0.07322085  0.41434363  0.56167889  1
  Se  Se119  1  0.07950352  0.74669708  0.06238916  1
  Se  Se120  1  0.08252254  0.74288653  0.56160510  1
  Se  Se121  1  0.41798890  0.08156587  0.04664857  1
  Se  Se122  1  0.40915641  0.07876906  0.56301113  1
  Se  Se123  1  0.41817318  0.42403888  0.05472460  1
  Se  Se124  1  0.41324540  0.41730325  0.55422093  1
  Se  Se125  1  0.40786573  0.74620875  0.05712234  1
  Se  Se126  1  0.41122239  0.74139667  0.55498051  1
  Se  Se127  1  0.75300205  0.08342641  0.05429667  1
  Se  Se128  1  0.74069580  0.08291523  0.55688098  1
  Se  Se129  1  0.75319537  0.41335833  0.05086192  1
  Se  Se130  1  0.75461218  0.42167993  0.55013195  1
  Se  Se131  1  0.75267944  0.75090465  0.04752313  1
  Se  Se132  1  0.75397904  0.75501506  0.55715142  1
  Se  Se133  1  0.24999414  0.25720123  0.05180225  1
  Se  Se134  1  0.24331950  0.25149932  0.55290011  1
  Se  Se135  1  0.25707425  0.59410157  0.05792162  1
  Se  Se136  1  0.25686094  0.59052208  0.55685900  1
  Se  Se137  1  0.25534425  0.92383972  0.05849530  1
  Se  Se138  1  0.25248011  0.92288864  0.55824433  1
  Se  Se139  1  0.58121481  0.24765076  0.05228098  1
  Se  Se140  1  0.58774217  0.25851092  0.56417150  1
  Se  Se141  1  0.58383488  0.58337298  0.04988622  1
  Se  Se142  1  0.58498276  0.58818624  0.55326383  1
  Se  Se143  1  0.58966258  0.92206353  0.06302862  1
  Se  Se144  1  0.59279274  0.92557717  0.55861413  1
  Se  Se145  1  0.91581720  0.24701962  0.05277833  1
  Se  Se146  1  0.92062077  0.26106186  0.56002144  1
  Se  Se147  1  0.91744073  0.57798825  0.05573549  1
  Se  Se148  1  0.91328642  0.58323052  0.55586662  1
  Se  Se149  1  0.91416435  0.91260638  0.05489014  1
  Se  Se150  1  0.93818907  0.93978065  0.55365698  1
  Se  Se151  1  0.08316547  0.25034599  0.44220479  1
  Se  Se152  1  0.08836009  0.24863254  0.94944452  1
  Se  Se153  1  0.07467405  0.58934530  0.44083813  1
  Se  Se154  1  0.08046569  0.58908732  0.94417165  1
  Se  Se155  1  0.07367472  0.92314448  0.43505330  1
  Se  Se156  1  0.07029187  0.92671284  0.93722759  1
  Se  Se157  1  0.40745634  0.26038228  0.43874364  1
  Se  Se158  1  0.41762191  0.25593175  0.94832453  1
  Se  Se159  1  0.42192013  0.57316514  0.44538509  1
  Se  Se160  1  0.42175622  0.58105799  0.94811855  1
  Se  Se161  1  0.41138404  0.92214399  0.43972288  1
  Se  Se162  1  0.40553166  0.92392364  0.94234621  1
  Se  Se163  1  0.73996784  0.26017327  0.43885029  1
  Se  Se164  1  0.75424350  0.24527768  0.94872640  1
  Se  Se165  1  0.75166241  0.58613102  0.44982975  1
  Se  Se166  1  0.75322738  0.58128357  0.94740947  1
  Se  Se167  1  0.75096186  0.92145868  0.44887784  1
  Se  Se168  1  0.75172108  0.91268747  0.94778473  1
  Se  Se169  1  0.24749823  0.08954210  0.45066926  1
  Se  Se170  1  0.25073633  0.08265010  0.95719394  1
  Se  Se171  1  0.25195639  0.41420193  0.43497052  1
  Se  Se172  1  0.25354668  0.41675127  0.93692071  1
  Se  Se173  1  0.25930478  0.73678584  0.44412930  1
  Se  Se174  1  0.25336361  0.74114609  0.94210913  1
  Se  Se175  1  0.58835065  0.07756375  0.44527544  1
  Se  Se176  1  0.58350932  0.08027070  0.94849544  1
  Se  Se177  1  0.57821964  0.42236482  0.45313316  1
  Se  Se178  1  0.58540889  0.41614268  0.94869470  1
  Se  Se179  1  0.59357053  0.74569630  0.43533856  1
  Se  Se180  1  0.58670255  0.74562551  0.93536728  1
  Se  Se181  1  0.91542030  0.08527675  0.42765845  1
  Se  Se182  1  0.91388532  0.08654054  0.94808344  1
  Se  Se183  1  0.91646751  0.42054432  0.44460701  1
  Se  Se184  1  0.92184431  0.41779677  0.94819672  1
  Se  Se185  1  0.91310318  0.75553489  0.45133908  1
  Se  Se186  1  0.91572589  0.75130894  0.94992574  1
  Se  Se187  1  0.25310125  0.25188065  0.29758181  1
  Se  Se188  1  0.25293388  0.24569478  0.80611169  1
  Se  Se189  1  0.24927029  0.58239966  0.30178276  1
  Se  Se190  1  0.25125611  0.57899459  0.80322980  1
  Se  Se191  1  0.24293475  0.90962429  0.31539797  1
  Se  Se192  1  0.23835714  0.90823088  0.81363665  1
  Se  Se193  1  0.57437924  0.24118766  0.31207449  1
  Se  Se194  1  0.57854225  0.24491219  0.81555078  1
  Se  Se195  1  0.58206313  0.57512647  0.30661875  1
  Se  Se196  1  0.58705454  0.58223084  0.80076157  1
  Se  Se197  1  0.58521525  0.91023810  0.29680705  1
  Se  Se198  1  0.58454301  0.91624538  0.80064699  1
  Se  Se199  1  0.91193614  0.25062985  0.29753773  1
  Se  Se200  1  0.92083506  0.25136203  0.80768910  1
  Se  Se201  1  0.92111068  0.59459338  0.30302412  1
  Se  Se202  1  0.92103228  0.58621931  0.80855884  1
  Se  Se203  1  0.91820296  0.91596689  0.30028356  1
  Se  Se204  1  0.91237004  0.90990050  0.80886462  1
  Se  Se205  1  0.08506904  0.08496579  0.29867147  1
  Se  Se206  1  0.08381675  0.08451834  0.80569717  1
  Se  Se207  1  0.07933687  0.41287952  0.30155697  1
  Se  Se208  1  0.08220426  0.41066803  0.80364223  1
  Se  Se209  1  0.07912851  0.74683409  0.30359254  1
  Se  Se210  1  0.07989923  0.74445769  0.79936088  1
  Se  Se211  1  0.42251433  0.08907216  0.31133621  1
  Se  Se212  1  0.42089811  0.08879515  0.81771777  1
  Se  Se213  1  0.41664808  0.41269690  0.29865543  1
  Se  Se214  1  0.41708228  0.41526225  0.80024451  1
  Se  Se215  1  0.42633677  0.74884783  0.29963352  1
  Se  Se216  1  0.41539422  0.74314305  0.80035023  1
  Se  Se217  1  0.74704389  0.07687470  0.29630706  1
  Se  Se218  1  0.75022243  0.08008004  0.80602754  1
  Se  Se219  1  0.75564971  0.42968091  0.30960773  1
  Se  Se220  1  0.75798907  0.42470881  0.81596988  1
  Se  Se221  1  0.75708488  0.75137793  0.30950874  1
  Se  Se222  1  0.75078565  0.74560663  0.80642466  1
  Se  Se223  1  0.24913867  0.09080196  0.18443187  1
  Se  Se224  1  0.24287031  0.08251932  0.69143111  1
  Se  Se225  1  0.25096291  0.41642268  0.19640436  1
  Se  Se226  1  0.25294893  0.41071408  0.69647634  1
  Se  Se227  1  0.24947395  0.74936658  0.20030022  1
  Se  Se228  1  0.25473584  0.74418363  0.69982122  1
  Se  Se229  1  0.58153966  0.08389461  0.19711179  1
  Se  Se230  1  0.58646512  0.08075419  0.70459333  1
  Se  Se231  1  0.58494980  0.41862643  0.18978747  1
  Se  Se232  1  0.58339420  0.42238604  0.68594382  1
  Se  Se233  1  0.57463839  0.75612017  0.18592722  1
  Se  Se234  1  0.58782206  0.74512980  0.69682814  1
  Se  Se235  1  0.92011497  0.07865037  0.19350663  1
  Se  Se236  1  0.90512100  0.09155975  0.68726235  1
  Se  Se237  1  0.91368326  0.40808983  0.20238460  1
  Se  Se238  1  0.91736533  0.41686779  0.70224849  1
  Se  Se239  1  0.91603412  0.74577057  0.19218789  1
  Se  Se240  1  0.91955885  0.74631095  0.69694891  1
  Se  Se241  1  0.07936387  0.25104860  0.19504810  1
  Se  Se242  1  0.07941033  0.24803326  0.69624748  1
  Se  Se243  1  0.08143740  0.58319719  0.20026998  1
  Se  Se244  1  0.08436173  0.57856837  0.70119270  1
  Se  Se245  1  0.08326076  0.91955654  0.20147706  1
  Se  Se246  1  0.09178478  0.90512070  0.68443182  1
  Se  Se247  1  0.41353690  0.25410585  0.19190776  1
  Se  Se248  1  0.41385644  0.24688085  0.70249659  1
  Se  Se249  1  0.41565809  0.58507979  0.19636009  1
  Se  Se250  1  0.41733085  0.58156026  0.69459149  1
  Se  Se251  1  0.42305635  0.91184400  0.19258278  1
  Se  Se252  1  0.42203590  0.90654502  0.69157417  1
  Se  Se253  1  0.75326577  0.24249999  0.18678999  1
  Se  Se254  1  0.75797904  0.24802252  0.69610860  1
  Se  Se255  1  0.75795625  0.57364762  0.18964578  1
  Se  Se256  1  0.75045063  0.58464952  0.69891351  1
  Se  Se257  1  0.75100577  0.91505634  0.19559536  1
  Se  Se258  1  0.75386312  0.91651125  0.69651634  1
