# generated using pymatgen
data_In86Cu29Se144
_symmetry_space_group_name_H-M   'P 1'
_cell_length_a   17.68522177
_cell_length_b   17.69526123
_cell_length_c   23.52776748
_cell_angle_alpha   89.96989415
_cell_angle_beta   89.96878160
_cell_angle_gamma   90.02134209
_symmetry_Int_Tables_number   1
_chemical_formula_structural   In86Cu29Se144
_chemical_formula_sum   'In86 Cu29 Se144'
_cell_volume   7362.88561059
_cell_formula_units_Z   1
loop_
 _symmetry_equiv_pos_site_id
 _symmetry_equiv_pos_as_xyz
  1  'x, y, z'
loop_
 _atom_site_type_symbol
 _atom_site_label
 _atom_site_symmetry_multiplicity
 _atom_site_fract_x
 _atom_site_fract_y
 _atom_site_fract_z
 _atom_site_occupancy
  In  In0  1  0.00451260  0.17244375  0.12745079  1
  In  In1  1  0.03970033  0.21312878  0.57513838  1
  In  In2  1  0.00001372  0.49145732  0.12758294  1
  In  In3  1  0.00952733  0.49415701  0.63253441  1
  In  In4  1  0.02437131  0.83320634  0.15137813  1
  In  In5  1  -0.00532151  0.83146372  0.62462451  1
  In  In6  1  0.31735079  0.19856838  0.14135956  1
  In  In7  1  0.33535043  0.16990717  0.61340660  1
  In  In8  1  0.30588647  0.51482327  0.15021824  1
  In  In9  1  0.29707794  0.48543455  0.60894613  1
  In  In10  1  0.30816932  0.83598895  0.15377012  1
  In  In11  1  0.33077078  0.81856385  0.60782099  1
  In  In12  1  0.67054193  0.15476585  0.12831561  1
  In  In13  1  0.66509982  0.16760270  0.61433548  1
  In  In14  1  0.68283042  0.49589013  0.12844330  1
  In  In15  1  0.66090818  0.51546665  0.61969010  1
  In  In16  1  0.66485334  0.83695476  0.13414795  1
  In  In17  1  0.66231836  0.82363427  0.61707672  1
  In  In18  1  0.18015420  0.01319835  0.37239683  1
  In  In19  1  0.17755631  0.00142828  0.88011414  1
  In  In20  1  0.15984259  0.33164064  0.38033551  1
  In  In21  1  0.16761229  0.33689966  0.87419208  1
  In  In22  1  0.15869784  0.64846260  0.36280276  1
  In  In23  1  0.15062947  0.66584564  0.87652485  1
  In  In24  1  0.49568016  -0.00959023  0.38100820  1
  In  In25  1  0.49932303  -0.01331526  0.87042139  1
  In  In26  1  0.49085916  0.34423684  0.38542983  1
  In  In27  1  0.49633638  0.34071631  0.86738484  1
  In  In28  1  0.49724373  0.66905001  0.37307847  1
  In  In29  1  0.50088098  0.67173251  0.87543289  1
  In  In30  1  0.83602647  -0.00145352  0.37013288  1
  In  In31  1  0.84267895  0.00810814  0.87938642  1
  In  In32  1  0.83876637  0.32004990  0.38163981  1
  In  In33  1  0.85035527  0.32409204  0.88154336  1
  In  In34  1  0.84761214  0.68322295  0.36470043  1
  In  In35  1  0.84354782  0.65037397  0.88481080  1
  In  In36  1  0.00304325  0.17389251  0.37979731  1
  In  In37  1  0.00061022  0.17025752  0.88273368  1
  In  In38  1  0.01316780  0.50081297  0.37023933  1
  In  In39  1  0.00766412  0.49814305  0.87806649  1
  In  In40  1  0.00097974  0.81873061  0.36017871  1
  In  In41  1  0.00404324  0.81619616  0.87623047  1
  In  In42  1  0.33394610  0.16423962  0.38218321  1
  In  In43  1  0.31450474  0.17295897  0.87848293  1
  In  In44  1  0.32823326  0.50054778  0.37071243  1
  In  In45  1  0.33807325  0.49058027  0.87289934  1
  In  In46  1  0.32800089  0.84036774  0.36532215  1
  In  In47  1  0.34073179  0.83455215  0.87601615  1
  In  In48  1  0.67461366  0.15194040  0.38141617  1
  In  In49  1  0.67431950  0.17729868  0.87254595  1
  In  In50  1  0.65373305  0.50347073  0.37803345  1
  In  In51  1  0.66997511  0.51216285  0.87638552  1
  In  In52  1  0.66964282  0.83636310  0.37156322  1
  In  In53  1  0.65790400  0.83174105  0.87197554  1
  In  In54  1  0.16191671  0.02123645  0.13880049  1
  In  In55  1  0.15030287  0.00025856  0.61900233  1
  In  In56  1  0.16862352  0.33179131  0.12264454  1
  In  In57  1  0.17117757  0.33772356  0.63300170  1
  In  In58  1  0.16037134  0.65306428  0.13639030  1
  In  In59  1  0.16326778  0.65913150  0.62167556  1
  In  In60  1  0.49858447  0.00272200  0.13677312  1
  In  In61  1  0.48694970  -0.00311369  0.60354611  1
  In  In62  1  0.48921069  0.33422956  0.12630839  1
  In  In63  1  0.48432970  0.32452543  0.61845205  1
  In  In64  1  0.49384405  0.66784392  0.13641168  1
  In  In65  1  0.43777625  0.63090604  0.55079480  1
  In  In66  1  0.83585557  0.01043997  0.12959178  1
  In  In67  1  0.84028056  0.00447309  0.61757641  1
  In  In68  1  0.84461525  0.34189484  0.11696988  1
  In  In69  1  0.85001847  0.33589252  0.62341378  1
  In  In70  1  0.85289185  0.65059264  0.13841686  1
  In  In71  1  0.83429291  0.67253680  0.62374996  1
  In  In72  1  0.33188159  0.65310059  0.72852273  1
  In  In73  1  0.16733266  0.83662299  0.00531919  1
  In  In74  1  0.83521960  0.49936689  0.49600384  1
  In  In75  1  0.50289106  0.16431605  0.00337920  1
  In  In76  1  0.16157260  0.82803840  0.48509279  1
  In  In77  1  0.66998638  0.33789007  0.75058528  1
  In  In78  1  0.83264507  0.84412535  0.01889480  1
  In  In79  1  0.66455180  0.67430593  0.74651177  1
  In  In80  1  0.49442732  0.83030901  0.01988523  1
  In  In81  1  -0.00406025  0.00405952  0.74503552  1
  In  In82  1  0.66507076  0.32909283  0.25492223  1
  In  In83  1  0.50293727  0.49921328  -0.00402451  1
  In  In84  1  0.32834256  0.00098720  0.74507496  1
  In  In85  1  0.66869789  0.00211352  0.72722112  1
  Cu  Cu86  1  0.83943469  0.16938316  0.25251034  1
  Cu  Cu87  1  0.16881825  0.17473975  0.25631843  1
  Cu  Cu88  1  0.00631040  0.33433270  0.00138625  1
  Cu  Cu89  1  0.00478480  0.00331767  0.00860075  1
  Cu  Cu90  1  0.32505348  0.33273490  0.49633517  1
  Cu  Cu91  1  -0.00131222  0.65860910  0.00826499  1
  Cu  Cu92  1  0.67123592  -0.00239637  0.49263672  1
  Cu  Cu93  1  0.49720247  0.82442101  0.73533228  1
  Cu  Cu94  1  0.33024384  0.00818324  0.00948265  1
  Cu  Cu95  1  -0.00671099  -0.00230759  0.49124318  1
  Cu  Cu96  1  0.84572158  0.50136579  0.75500004  1
  Cu  Cu97  1  0.15983374  0.17401905  0.74676454  1
  Cu  Cu98  1  0.67455521  0.00781936  -0.00068588  1
  Cu  Cu99  1  0.83647999  0.16667548  0.75117887  1
  Cu  Cu100  1  0.50126374  0.83383082  0.25688258  1
  Cu  Cu101  1  0.16717049  0.50004784  0.75129165  1
  Cu  Cu102  1  0.66390476  0.33398957  0.49786210  1
  Cu  Cu103  1  0.50408351  0.15913756  0.26069760  1
  Cu  Cu104  1  0.48547943  0.16399426  0.74314672  1
  Cu  Cu105  1  0.49014363  0.50021350  0.73908005  1
  Cu  Cu106  1  0.32871941  0.33723597  0.00069893  1
  Cu  Cu107  1  0.82846853  0.84200723  0.24947125  1
  Cu  Cu108  1  0.67208473  0.66452050  0.00776089  1
  Cu  Cu109  1  0.67807353  0.32665772  0.00008325  1
  Cu  Cu110  1  0.49720451  0.50039479  0.25683939  1
  Cu  Cu111  1  0.32305611  0.66316376  0.01180317  1
  Cu  Cu112  1  0.66891650  0.67176622  0.49416001  1
  Cu  Cu113  1  0.83207635  0.49559571  0.25160951  1
  Cu  Cu114  1  0.83964373  0.82357493  0.75024350  1
  Se  Se115  1  0.08854961  0.08812350  0.05829391  1
  Se  Se116  1  0.08102978  0.07795081  0.54241270  1
  Se  Se117  1  0.08636732  0.41737049  0.05660049  1
  Se  Se118  1  0.11783530  0.44545007  0.56730403  1
  Se  Se119  1  0.07629067  0.74758052  0.06381952  1
  Se  Se120  1  0.07670027  0.74469832  0.55507503  1
  Se  Se121  1  0.41248640  0.08541164  0.06778512  1
  Se  Se122  1  0.39318295  0.07294954  0.54328319  1
  Se  Se123  1  0.40913417  0.42009817  0.05786991  1
  Se  Se124  1  0.40561380  0.41545332  0.55402537  1
  Se  Se125  1  0.39282138  0.74735983  0.07348189  1
  Se  Se126  1  0.43421731  0.77841997  0.53746465  1
  Se  Se127  1  0.75674501  0.08762958  0.05390540  1
  Se  Se128  1  0.74866065  0.07993936  0.55223857  1
  Se  Se129  1  0.75212594  0.41832845  0.05137577  1
  Se  Se130  1  0.74322570  0.41301529  0.56129347  1
  Se  Se131  1  0.74839668  0.74237792  0.06997721  1
  Se  Se132  1  0.75368393  0.74818167  0.55149021  1
  Se  Se133  1  0.25054773  0.24758655  0.05104818  1
  Se  Se134  1  0.24348983  0.25496292  0.55615569  1
  Se  Se135  1  0.24160075  0.57828451  0.06271820  1
  Se  Se136  1  0.27151094  0.61184181  0.55503647  1
  Se  Se137  1  0.25359944  0.92435503  0.06901927  1
  Se  Se138  1  0.24298559  0.91642170  0.55476379  1
  Se  Se139  1  0.59229781  0.25754863  0.06192255  1
  Se  Se140  1  0.57860581  0.25266066  0.55230620  1
  Se  Se141  1  0.58504902  0.58713209  0.06419060  1
  Se  Se142  1  0.58423139  0.59217428  0.54786227  1
  Se  Se143  1  0.59207475  0.93096206  0.05936255  1
  Se  Se144  1  0.59112922  0.91965040  0.55274269  1
  Se  Se145  1  0.92258153  0.25023498  0.05393446  1
  Se  Se146  1  0.89978455  0.24123314  0.55083449  1
  Se  Se147  1  0.91383760  0.57387331  0.05686114  1
  Se  Se148  1  0.92153499  0.58074523  0.56365720  1
  Se  Se149  1  0.93800985  0.91970387  0.07318959  1
  Se  Se150  1  0.92037136  0.91590544  0.55323377  1
  Se  Se151  1  0.08200171  0.25027696  0.45583733  1
  Se  Se152  1  0.08887090  0.25284307  0.94515340  1
  Se  Se153  1  0.07741588  0.58919890  0.44266536  1
  Se  Se154  1  0.08452135  0.58283887  0.95116751  1
  Se  Se155  1  0.07553045  0.92402923  0.42858609  1
  Se  Se156  1  0.07417530  0.92194732  0.94169365  1
  Se  Se157  1  0.41587696  0.25152209  0.44997404  1
  Se  Se158  1  0.41485137  0.25818046  0.94188872  1
  Se  Se159  1  0.41667154  0.57999515  0.44092028  1
  Se  Se160  1  0.40746237  0.59655995  0.94454094  1
  Se  Se161  1  0.42078446  0.89186163  0.44385153  1
  Se  Se162  1  0.41102549  0.92573134  0.95185936  1
  Se  Se163  1  0.74586655  0.24846263  0.44778473  1
  Se  Se164  1  0.75839757  0.24355843  0.94589665  1
  Se  Se165  1  0.74999579  0.59177009  0.43555931  1
  Se  Se166  1  0.75043394  0.58120513  0.95251933  1
  Se  Se167  1  0.75544967  0.91535138  0.44082663  1
  Se  Se168  1  0.74474865  0.91824706  0.94026149  1
  Se  Se169  1  0.26189590  0.07284986  0.45207798  1
  Se  Se170  1  0.24826959  0.08600517  0.95241737  1
  Se  Se171  1  0.24792287  0.41978796  0.44301965  1
  Se  Se172  1  0.25102647  0.42087030  0.94337616  1
  Se  Se173  1  0.25093468  0.73850113  0.42782380  1
  Se  Se174  1  0.25667032  0.74611601  0.94384906  1
  Se  Se175  1  0.58018572  0.07868448  0.44618009  1
  Se  Se176  1  0.58981798  0.07557349  0.93460619  1
  Se  Se177  1  0.58104424  0.42275380  0.45199351  1
  Se  Se178  1  0.59591939  0.40422643  0.93896281  1
  Se  Se179  1  0.58602489  0.75075229  0.43818882  1
  Se  Se180  1  0.58908445  0.74565679  0.95097684  1
  Se  Se181  1  0.91284077  0.08528325  0.43997222  1
  Se  Se182  1  0.92147177  0.08293326  0.95148260  1
  Se  Se183  1  0.92785005  0.40947987  0.44288471  1
  Se  Se184  1  0.92238689  0.41699984  0.94673055  1
  Se  Se185  1  0.92369655  0.75384136  0.44031349  1
  Se  Se186  1  0.91822274  0.74839941  0.95477692  1
  Se  Se187  1  0.25138177  0.24987708  0.31605767  1
  Se  Se188  1  0.24646764  0.25168662  0.80217788  1
  Se  Se189  1  0.24037183  0.56368826  0.29594101  1
  Se  Se190  1  0.25066510  0.58236184  0.80930561  1
  Se  Se191  1  0.23601065  0.91616964  0.29919620  1
  Se  Se192  1  0.24524402  0.90640785  0.80854203  1
  Se  Se193  1  0.57877599  0.24520159  0.32041780  1
  Se  Se194  1  0.57282165  0.23945712  0.80187432  1
  Se  Se195  1  0.58239158  0.58561453  0.30403527  1
  Se  Se196  1  0.57056355  0.57533285  0.80372327  1
  Se  Se197  1  0.58311378  0.92062728  0.30645374  1
  Se  Se198  1  0.57859475  0.90790714  0.79204031  1
  Se  Se199  1  0.92047753  0.25248988  0.30587661  1
  Se  Se200  1  0.92175496  0.24407888  0.80624899  1
  Se  Se201  1  0.91427543  0.57616991  0.30714333  1
  Se  Se202  1  0.92562692  0.58560156  0.80933837  1
  Se  Se203  1  0.91970841  0.91625851  0.30155576  1
  Se  Se204  1  0.91106444  0.90995521  0.81136388  1
  Se  Se205  1  0.08648008  0.09229920  0.31025617  1
  Se  Se206  1  0.09198207  0.08615197  0.80966169  1
  Se  Se207  1  0.08376523  0.40788953  0.30439803  1
  Se  Se208  1  0.08366767  0.41653673  0.80479935  1
  Se  Se209  1  0.09970723  0.75150069  0.29499479  1
  Se  Se210  1  0.08961973  0.75319497  0.80338120  1
  Se  Se211  1  0.41737083  0.08024122  0.31352506  1
  Se  Se212  1  0.41764249  0.08705612  0.81264916  1
  Se  Se213  1  0.41637040  0.41345880  0.30646727  1
  Se  Se214  1  0.41392147  0.41594104  0.79644652  1
  Se  Se215  1  0.41365488  0.74978989  0.30339697  1
  Se  Se216  1  0.41853305  0.74978741  0.80068000  1
  Se  Se217  1  0.75327338  0.08591853  0.30255002  1
  Se  Se218  1  0.75202237  0.08251408  0.80329028  1
  Se  Se219  1  0.75311857  0.41888763  0.31579319  1
  Se  Se220  1  0.75987206  0.42372349  0.81379193  1
  Se  Se221  1  0.74966564  0.75269292  0.30046607  1
  Se  Se222  1  0.75931040  0.75106675  0.81530066  1
  Se  Se223  1  0.25718994  0.09383291  0.20364973  1
  Se  Se224  1  0.23616635  0.08963885  0.68719049  1
  Se  Se225  1  0.27983225  0.38146065  0.18676893  1
  Se  Se226  1  0.25603962  0.41933037  0.70230727  1
  Se  Se227  1  0.22677158  0.74250655  0.21025051  1
  Se  Se228  1  0.24375309  0.75857371  0.68745226  1
  Se  Se229  1  0.58665033  0.08405991  0.20127507  1
  Se  Se230  1  0.56434265  0.08917533  0.68119344  1
  Se  Se231  1  0.57757260  0.42310011  0.19284256  1
  Se  Se232  1  0.57921522  0.42042449  0.68594598  1
  Se  Se233  1  0.58123566  0.75221786  0.19860303  1
  Se  Se234  1  0.56976771  0.73856715  0.67794132  1
  Se  Se235  1  0.92272906  0.08788198  0.19686819  1
  Se  Se236  1  0.91532879  0.09611486  0.68523103  1
  Se  Se237  1  0.91342258  0.41154417  0.19783382  1
  Se  Se238  1  0.92086373  0.41414704  0.69973110  1
  Se  Se239  1  0.91355089  0.75886123  0.19741553  1
  Se  Se240  1  0.92113877  0.74339491  0.69583809  1
  Se  Se241  1  0.08809867  0.25341725  0.19612382  1
  Se  Se242  1  0.07671265  0.24414243  0.68254470  1
  Se  Se243  1  0.04964160  0.59746504  0.19415112  1
  Se  Se244  1  0.08683960  0.58619675  0.69915361  1
  Se  Se245  1  0.10723165  0.92321224  0.21052082  1
  Se  Se246  1  0.08866570  0.90841906  0.69464570  1
  Se  Se247  1  0.43125556  0.24644731  0.20232911  1
  Se  Se248  1  0.40409263  0.24888106  0.69219866  1
  Se  Se249  1  0.41324474  0.58439578  0.20413973  1
  Se  Se250  1  0.42464727  0.57436178  0.66912074  1
  Se  Se251  1  0.41733141  0.91333789  0.19989589  1
  Se  Se252  1  0.41526578  0.91030961  0.68301740  1
  Se  Se253  1  0.75725093  0.24794024  0.19062907  1
  Se  Se254  1  0.75245880  0.24347201  0.69070082  1
  Se  Se255  1  0.75037181  0.58203397  0.20074259  1
  Se  Se256  1  0.75801907  0.57545346  0.69625002  1
  Se  Se257  1  0.74934417  0.92613074  0.19405389  1
  Se  Se258  1  0.76298506  0.90164132  0.68684855  1
