# generated using pymatgen
data_In86Cu29Se144
_symmetry_space_group_name_H-M   'P 1'
_cell_length_a   17.57459459
_cell_length_b   17.58015518
_cell_length_c   23.44072209
_cell_angle_alpha   90.01562948
_cell_angle_beta   90.00518410
_cell_angle_gamma   89.99803678
_symmetry_Int_Tables_number   1
_chemical_formula_structural   In86Cu29Se144
_chemical_formula_sum   'In86 Cu29 Se144'
_cell_volume   7242.34130184
_cell_formula_units_Z   1
loop_
 _symmetry_equiv_pos_site_id
 _symmetry_equiv_pos_as_xyz
  1  'x, y, z'
loop_
 _atom_site_type_symbol
 _atom_site_label
 _atom_site_symmetry_multiplicity
 _atom_site_fract_x
 _atom_site_fract_y
 _atom_site_fract_z
 _atom_site_occupancy
  In  In0  1  0.00304022  0.15477706  0.12173607  1
  In  In1  1  -0.01816280  0.15955068  0.63099120  1
  In  In2  1  0.00205044  0.49948503  0.12455642  1
  In  In3  1  0.00667109  0.51466311  0.62027296  1
  In  In4  1  -0.01502928  0.82700010  0.12627119  1
  In  In5  1  -0.01084532  0.84055296  0.63253267  1
  In  In6  1  0.33526157  0.16636359  0.12682814  1
  In  In7  1  0.35177655  0.15578607  0.62180394  1
  In  In8  1  0.33005336  0.49315748  0.12053051  1
  In  In9  1  0.34706570  0.51257334  0.61604783  1
  In  In10  1  0.35660295  0.82919496  0.12899834  1
  In  In11  1  0.33533102  0.82987824  0.62222130  1
  In  In12  1  0.66290858  0.17883350  0.12222753  1
  In  In13  1  0.66204026  0.17684291  0.63569272  1
  In  In14  1  0.66979380  0.50817584  0.11868022  1
  In  In15  1  0.66660899  0.50264615  0.62563650  1
  In  In16  1  0.65117114  0.82794386  0.11998690  1
  In  In17  1  0.65926980  0.83448633  0.62160573  1
  In  In18  1  0.17110538  -0.01277737  0.37322037  1
  In  In19  1  0.17238682  0.00950781  0.87663805  1
  In  In20  1  0.18422437  0.33721672  0.36984708  1
  In  In21  1  0.16735536  0.33252739  0.88440108  1
  In  In22  1  0.15008290  0.66666942  0.37319296  1
  In  In23  1  0.15955093  0.65653449  0.87076137  1
  In  In24  1  0.49350406  0.00971229  0.39512679  1
  In  In25  1  0.51314637  -0.00297124  0.88600375  1
  In  In26  1  0.48865476  0.34833764  0.37561574  1
  In  In27  1  0.51152064  0.32448409  0.87980626  1
  In  In28  1  0.51565823  0.64860530  0.37847050  1
  In  In29  1  0.50419446  0.66778001  0.87134149  1
  In  In30  1  0.81377716  -0.01057265  0.38146933  1
  In  In31  1  0.82386680  -0.00387013  0.85944643  1
  In  In32  1  0.83858844  0.34309054  0.37699901  1
  In  In33  1  0.83385581  0.34860724  0.87605983  1
  In  In34  1  0.82891934  0.66639698  0.37689837  1
  In  In35  1  0.82714526  0.65813399  0.86553481  1
  In  In36  1  -0.00200178  0.17290261  0.37622658  1
  In  In37  1  0.00776599  0.16956602  0.87440780  1
  In  In38  1  -0.01815575  0.52130132  0.38869818  1
  In  In39  1  -0.00440937  0.50462371  0.88075044  1
  In  In40  1  -0.00149373  0.81800397  0.37560149  1
  In  In41  1  -0.00711450  0.82509268  0.86420401  1
  In  In42  1  0.34187377  0.17251965  0.36842871  1
  In  In43  1  0.33509096  0.16469442  0.88398607  1
  In  In44  1  0.34574677  0.48668800  0.37803042  1
  In  In45  1  0.32964660  0.50651358  0.88018582  1
  In  In46  1  0.34129292  0.84685559  0.37358107  1
  In  In47  1  0.35410363  0.83239989  0.87419747  1
  In  In48  1  0.65534006  0.15188133  0.37756698  1
  In  In49  1  0.65631044  0.15560585  0.85794261  1
  In  In50  1  0.65998811  0.51108867  0.37682701  1
  In  In51  1  0.66651311  0.50137233  0.87268324  1
  In  In52  1  0.67255369  0.82988521  0.39114461  1
  In  In53  1  0.66318274  0.83216617  0.86770650  1
  In  In54  1  0.17017818  0.01439985  0.12052336  1
  In  In55  1  0.16363434  -0.01356334  0.62502744  1
  In  In56  1  0.17742368  0.34087988  0.12117332  1
  In  In57  1  0.16054219  0.34274367  0.62484501  1
  In  In58  1  0.16896260  0.64679700  0.12526387  1
  In  In59  1  0.17928872  0.66265827  0.63034918  1
  In  In60  1  0.49737487  -0.01129728  0.11813480  1
  In  In61  1  0.51612948  0.01747248  0.59979497  1
  In  In62  1  0.49113776  0.32438115  0.11896908  1
  In  In63  1  0.50966427  0.34549098  0.61939254  1
  In  In64  1  0.51171819  0.67009777  0.11986710  1
  In  In65  1  0.50173367  0.66726130  0.62607894  1
  In  In66  1  0.83282772  0.00193752  0.12647088  1
  In  In67  1  0.83811832  -0.00434630  0.63308368  1
  In  In68  1  0.81944826  0.34319713  0.12682179  1
  In  In69  1  0.81375472  0.33139354  0.62790625  1
  In  In70  1  0.83560993  0.65221195  0.13996722  1
  In  In71  1  0.82906801  0.66935357  0.62573320  1
  In  In72  1  0.66409269  0.34049508  0.25170628  1
  In  In73  1  0.33546481  -0.00680784  0.74799001  1
  In  In74  1  0.82850456  0.17209913  0.00144006  1
  In  In75  1  0.82771992  0.16914293  0.50185516  1
  In  In76  1  0.17209194  0.82841909  0.50428737  1
  In  In77  1  0.00374326  -0.00376471  0.24422674  1
  In  In78  1  0.00093547  0.33868516  0.24815842  1
  In  In79  1  0.17139300  0.17219855  0.49583440  1
  In  In80  1  0.82290547  0.82907922  -0.01224865  1
  In  In81  1  0.17106765  0.83086977  -0.00312321  1
  In  In82  1  0.66324248  -0.00403700  0.25455703  1
  In  In83  1  0.33742779  0.66027799  0.24943393  1
  In  In84  1  0.33460695  0.33643875  0.76063239  1
  In  In85  1  -0.00721174  0.33561894  0.75422513  1
  Cu  Cu86  1  0.33072592  0.66077434  0.49812662  1
  Cu  Cu87  1  -0.00219229  0.00241033  -0.00630174  1
  Cu  Cu88  1  0.50363222  0.83393341  0.74629979  1
  Cu  Cu89  1  0.50037295  0.16489385  0.74836166  1
  Cu  Cu90  1  0.50345115  0.83498755  0.25264034  1
  Cu  Cu91  1  0.65960954  0.33485458  0.50269863  1
  Cu  Cu92  1  0.33683169  0.00294506  0.00168289  1
  Cu  Cu93  1  0.33345611  0.33289774  0.00156956  1
  Cu  Cu94  1  -0.00455414  -0.00147693  0.50801433  1
  Cu  Cu95  1  0.83041734  0.82604858  0.25520545  1
  Cu  Cu96  1  0.66425987  0.34009679  -0.00109847  1
  Cu  Cu97  1  0.17368061  0.16520392  0.24798031  1
  Cu  Cu98  1  0.17316512  0.83202375  0.25146758  1
  Cu  Cu99  1  0.00408589  0.33612250  0.00116497  1
  Cu  Cu100  1  0.34123680  0.66619724  0.00315887  1
  Cu  Cu101  1  0.82754257  0.82822117  0.74403278  1
  Cu  Cu102  1  0.00006160  0.34921118  0.50324366  1
  Cu  Cu103  1  0.66573593  0.66366231  0.50529044  1
  Cu  Cu104  1  0.83196943  0.50348930  0.74874847  1
  Cu  Cu105  1  0.15825868  0.15732993  0.75115666  1
  Cu  Cu106  1  0.16427168  0.82680306  0.74743335  1
  Cu  Cu107  1  0.00149449  0.65610462  0.00344207  1
  Cu  Cu108  1  -0.00735983  0.67042957  0.50259862  1
  Cu  Cu109  1  0.17222385  0.50486461  0.74960388  1
  Cu  Cu110  1  0.50652456  0.50339877  0.74539664  1
  Cu  Cu111  1  0.66872279  0.66573938  -0.00647776  1
  Cu  Cu112  1  0.49569273  0.16424580  0.25047125  1
  Cu  Cu113  1  0.16342456  0.49804470  0.24954781  1
  Cu  Cu114  1  0.33739582  0.33146387  0.49734453  1
  Se  Se115  1  0.08330224  0.08304893  0.04651229  1
  Se  Se116  1  0.07898833  0.08370541  0.55968664  1
  Se  Se117  1  0.08673002  0.41949634  0.05593713  1
  Se  Se118  1  0.08957402  0.42779995  0.55316563  1
  Se  Se119  1  0.07824352  0.74422331  0.05974436  1
  Se  Se120  1  0.07709319  0.74641266  0.56484146  1
  Se  Se121  1  0.41929790  0.08517808  0.05698693  1
  Se  Se122  1  0.41338258  0.08582382  0.53940789  1
  Se  Se123  1  0.41865707  0.41800296  0.05115628  1
  Se  Se124  1  0.41940365  0.41793449  0.55058658  1
  Se  Se125  1  0.42559793  0.75277822  0.05112322  1
  Se  Se126  1  0.41203331  0.74198143  0.55448919  1
  Se  Se127  1  0.74040664  0.07632721  0.05885886  1
  Se  Se128  1  0.74680543  0.08340536  0.56812480  1
  Se  Se129  1  0.75140811  0.42175816  0.04979250  1
  Se  Se130  1  0.74622223  0.41657342  0.55398796  1
  Se  Se131  1  0.74874478  0.74140344  0.05943195  1
  Se  Se132  1  0.74808219  0.75125229  0.55550564  1
  Se  Se133  1  0.25123031  0.24728555  0.05564663  1
  Se  Se134  1  0.25977551  0.25665713  0.56387422  1
  Se  Se135  1  0.25301001  0.58153039  0.05002127  1
  Se  Se136  1  0.24555620  0.58079830  0.55229509  1
  Se  Se137  1  0.25956035  0.91687512  0.06154419  1
  Se  Se138  1  0.26250501  0.92958517  0.55273133  1
  Se  Se139  1  0.58231627  0.25138838  0.04850935  1
  Se  Se140  1  0.58284643  0.24676169  0.55684810  1
  Se  Se141  1  0.58366146  0.58358996  0.04702751  1
  Se  Se142  1  0.57952427  0.57991499  0.55614235  1
  Se  Se143  1  0.59135746  0.92145895  0.04991792  1
  Se  Se144  1  0.56029212  0.89440067  0.55143345  1
  Se  Se145  1  0.92224126  0.25959303  0.06401425  1
  Se  Se146  1  0.92267970  0.26126230  0.55973268  1
  Se  Se147  1  0.91298213  0.58313018  0.06009770  1
  Se  Se148  1  0.91012872  0.58446807  0.55486611  1
  Se  Se149  1  0.91788137  0.92115115  0.05185329  1
  Se  Se150  1  0.91108183  0.91403109  0.55632173  1
  Se  Se151  1  0.07635212  0.26678996  0.44168651  1
  Se  Se152  1  0.08301720  0.24722979  0.94972461  1
  Se  Se153  1  0.08315090  0.58883597  0.45280036  1
  Se  Se154  1  0.08871621  0.57833258  0.94877333  1
  Se  Se155  1  0.07501925  0.91929845  0.44508716  1
  Se  Se156  1  0.07502084  0.91606355  0.93657923  1
  Se  Se157  1  0.42059933  0.25011384  0.44279244  1
  Se  Se158  1  0.41770459  0.25197020  0.94702140  1
  Se  Se159  1  0.41748172  0.57986100  0.44508458  1
  Se  Se160  1  0.42191445  0.58645365  0.94314501  1
  Se  Se161  1  0.42320594  0.90457982  0.45266890  1
  Se  Se162  1  0.41931696  0.91805374  0.94900553  1
  Se  Se163  1  0.73880857  0.25758392  0.43743717  1
  Se  Se164  1  0.74245528  0.25811308  0.93719471  1
  Se  Se165  1  0.74883412  0.58296654  0.44791903  1
  Se  Se166  1  0.75420004  0.58144519  0.94266645  1
  Se  Se167  1  0.74293473  0.92186877  0.46055301  1
  Se  Se168  1  0.73764791  0.93083078  0.93859316  1
  Se  Se169  1  0.25523869  0.07859493  0.43637060  1
  Se  Se170  1  0.24852395  0.08460704  0.95203592  1
  Se  Se171  1  0.25136109  0.41649939  0.44791152  1
  Se  Se172  1  0.25132065  0.41790364  0.94800040  1
  Se  Se173  1  0.25577787  0.74322048  0.43507958  1
  Se  Se174  1  0.26104279  0.74214148  0.93747375  1
  Se  Se175  1  0.59747384  0.07331348  0.45736759  1
  Se  Se176  1  0.57859664  0.10429455  0.94252212  1
  Se  Se177  1  0.58272464  0.41847324  0.44327709  1
  Se  Se178  1  0.58144036  0.42292907  0.94409538  1
  Se  Se179  1  0.58054764  0.74226033  0.44906160  1
  Se  Se180  1  0.58641105  0.75188656  0.94168284  1
  Se  Se181  1  0.92129709  0.07702299  0.44183880  1
  Se  Se182  1  0.91227326  0.07900646  0.93635227  1
  Se  Se183  1  0.90812828  0.42439671  0.45247512  1
  Se  Se184  1  0.91778568  0.41867081  0.95032871  1
  Se  Se185  1  0.91032857  0.75282261  0.44814372  1
  Se  Se186  1  0.92399548  0.73647923  0.94115507  1
  Se  Se187  1  0.25592993  0.25142095  0.29896227  1
  Se  Se188  1  0.23934552  0.23773796  0.80989690  1
  Se  Se189  1  0.24366023  0.57735211  0.31230296  1
  Se  Se190  1  0.25629547  0.58644460  0.80394647  1
  Se  Se191  1  0.25610688  0.91860167  0.29931318  1
  Se  Se192  1  0.24430334  0.90505488  0.81126942  1
  Se  Se193  1  0.57684284  0.24394722  0.31032075  1
  Se  Se194  1  0.58159838  0.25554933  0.79719899  1
  Se  Se195  1  0.58233626  0.57772721  0.29688001  1
  Se  Se196  1  0.58852536  0.58662470  0.80198885  1
  Se  Se197  1  0.57760545  0.91181122  0.31979034  1
  Se  Se198  1  0.57844758  0.92127797  0.80404207  1
  Se  Se199  1  0.90767564  0.24525105  0.30623087  1
  Se  Se200  1  0.90584111  0.24314195  0.81213505  1
  Se  Se201  1  0.92002162  0.59316891  0.30730706  1
  Se  Se202  1  0.92242835  0.57984471  0.80256008  1
  Se  Se203  1  0.91036875  0.91379776  0.31033846  1
  Se  Se204  1  0.91270599  0.91088139  0.79819913  1
  Se  Se205  1  0.09043136  0.08980263  0.30922284  1
  Se  Se206  1  0.07870109  0.07498119  0.80635616  1
  Se  Se207  1  0.08352861  0.42476036  0.31583178  1
  Se  Se208  1  0.09311214  0.42155127  0.80919071  1
  Se  Se209  1  0.08201884  0.75219437  0.29849006  1
  Se  Se210  1  0.08213303  0.74285520  0.80140056  1
  Se  Se211  1  0.42423064  0.07592514  0.30977856  1
  Se  Se212  1  0.41988408  0.08653545  0.80989502  1
  Se  Se213  1  0.41384928  0.41679424  0.29673342  1
  Se  Se214  1  0.42971996  0.42725420  0.81285295  1
  Se  Se215  1  0.42462695  0.75022654  0.31168707  1
  Se  Se216  1  0.42085737  0.74921351  0.79893310  1
  Se  Se217  1  0.75894045  0.08990373  0.30825245  1
  Se  Se218  1  0.74598949  0.08114276  0.79239303  1
  Se  Se219  1  0.75763184  0.42918662  0.30845698  1
  Se  Se220  1  0.75011104  0.41858764  0.80173602  1
  Se  Se221  1  0.74251883  0.75316196  0.31172575  1
  Se  Se222  1  0.74652727  0.74719691  0.80139013  1
  Se  Se223  1  0.25466358  0.07836270  0.19648547  1
  Se  Se224  1  0.24461925  0.08840424  0.68832283  1
  Se  Se225  1  0.25086400  0.41857675  0.19757399  1
  Se  Se226  1  0.25279617  0.42337742  0.69139845  1
  Se  Se227  1  0.24773951  0.75156215  0.18684798  1
  Se  Se228  1  0.25695474  0.75236988  0.69667851  1
  Se  Se229  1  0.57937869  0.08815480  0.19037334  1
  Se  Se230  1  0.57530903  0.07852537  0.69044329  1
  Se  Se231  1  0.57811805  0.41770923  0.18238698  1
  Se  Se232  1  0.58854003  0.41495660  0.69675145  1
  Se  Se233  1  0.58271466  0.75021662  0.19827937  1
  Se  Se234  1  0.58643087  0.74707945  0.69556931  1
  Se  Se235  1  0.90744295  0.09348742  0.19687023  1
  Se  Se236  1  0.92063698  0.07396846  0.70463472  1
  Se  Se237  1  0.90371642  0.42831104  0.19569231  1
  Se  Se238  1  0.91240706  0.42416926  0.68654639  1
  Se  Se239  1  0.91716099  0.74622783  0.20187323  1
  Se  Se240  1  0.91759683  0.74446502  0.69729204  1
  Se  Se241  1  0.08906190  0.24251272  0.18945897  1
  Se  Se242  1  0.08580219  0.24461573  0.69171012  1
  Se  Se243  1  0.07972218  0.58200688  0.19822524  1
  Se  Se244  1  0.08644089  0.58601487  0.69680128  1
  Se  Se245  1  0.09390887  0.90623829  0.18359031  1
  Se  Se246  1  0.08256226  0.91647589  0.69953829  1
  Se  Se247  1  0.41574455  0.25034779  0.19712688  1
  Se  Se248  1  0.42039400  0.25091007  0.69240208  1
  Se  Se249  1  0.42454109  0.57772426  0.18460110  1
  Se  Se250  1  0.41682524  0.58449191  0.69680203  1
  Se  Se251  1  0.42229618  0.92101732  0.20014497  1
  Se  Se252  1  0.42919947  0.91720296  0.68358244  1
  Se  Se253  1  0.75614600  0.24259304  0.19642357  1
  Se  Se254  1  0.76046748  0.24085561  0.70270810  1
  Se  Se255  1  0.72628392  0.59412552  0.19842256  1
  Se  Se256  1  0.74731446  0.58594368  0.69578273  1
  Se  Se257  1  0.75489439  0.90626056  0.19158530  1
  Se  Se258  1  0.74375395  0.91340464  0.69314030  1
