# generated using pymatgen
data_In86Cu29Se144
_symmetry_space_group_name_H-M   'P 1'
_cell_length_a   17.58625218
_cell_length_b   17.58489477
_cell_length_c   23.44387676
_cell_angle_alpha   89.97233179
_cell_angle_beta   90.00006772
_cell_angle_gamma   89.99042173
_symmetry_Int_Tables_number   1
_chemical_formula_structural   In86Cu29Se144
_chemical_formula_sum   'In86 Cu29 Se144'
_cell_volume   7250.07406695
_cell_formula_units_Z   1
loop_
 _symmetry_equiv_pos_site_id
 _symmetry_equiv_pos_as_xyz
  1  'x, y, z'
loop_
 _atom_site_type_symbol
 _atom_site_label
 _atom_site_symmetry_multiplicity
 _atom_site_fract_x
 _atom_site_fract_y
 _atom_site_fract_z
 _atom_site_occupancy
  In  In0  1  -0.00288677  0.16233296  0.11418251  1
  In  In1  1  0.01032920  0.15595527  0.63730831  1
  In  In2  1  0.00304933  0.51568957  0.12273495  1
  In  In3  1  0.00221287  0.49690949  0.62755424  1
  In  In4  1  0.00401136  0.81576813  0.12291005  1
  In  In5  1  -0.00120077  0.83411588  0.63592135  1
  In  In6  1  0.32888364  0.17164567  0.13575494  1
  In  In7  1  0.32180285  0.17383803  0.63018733  1
  In  In8  1  0.33270715  0.49038175  0.14354225  1
  In  In9  1  0.31904971  0.49345591  0.61129080  1
  In  In10  1  0.33462879  0.83438784  0.12090225  1
  In  In11  1  0.35274068  0.83471438  0.62857508  1
  In  In12  1  0.67633937  0.16209807  0.13747985  1
  In  In13  1  0.67123178  0.18127698  0.62344148  1
  In  In14  1  0.66740544  0.48730416  0.12717221  1
  In  In15  1  0.68369528  0.50720224  0.61004604  1
  In  In16  1  0.66543771  0.85039795  0.12267314  1
  In  In17  1  0.64429105  0.82060473  0.62129407  1
  In  In18  1  0.18331838  -0.00123259  0.37377079  1
  In  In19  1  0.16722940  0.00173421  0.87852822  1
  In  In20  1  0.17064301  0.32841366  0.38215282  1
  In  In21  1  0.15854833  0.32515299  0.87055221  1
  In  In22  1  0.15607265  0.65032111  0.36219414  1
  In  In23  1  0.16100335  0.67834823  0.87622991  1
  In  In24  1  0.48928907  -0.00143681  0.36554496  1
  In  In25  1  0.48433937  -0.00440956  0.87200647  1
  In  In26  1  0.51017304  0.34109974  0.36839804  1
  In  In27  1  0.49726540  0.34214562  0.86823463  1
  In  In28  1  0.49267920  0.67443589  0.38281910  1
  In  In29  1  0.50936237  0.67094405  0.87410459  1
  In  In30  1  0.82534706  0.01467979  0.36993532  1
  In  In31  1  0.84468479  0.00614980  0.87259029  1
  In  In32  1  0.83430844  0.33745945  0.37546980  1
  In  In33  1  0.84405552  0.32304490  0.88501628  1
  In  In34  1  0.83153282  0.65070896  0.37585053  1
  In  In35  1  0.82798777  0.65563853  0.86496863  1
  In  In36  1  -0.00044669  0.18139551  0.37628973  1
  In  In37  1  0.00355471  0.16883361  0.87793211  1
  In  In38  1  -0.00821676  0.50033121  0.38236140  1
  In  In39  1  -0.01853691  0.48108584  0.85468382  1
  In  In40  1  0.01709482  0.82971885  0.37389869  1
  In  In41  1  0.00412041  0.84324024  0.86633025  1
  In  In42  1  0.32867654  0.15560619  0.36577316  1
  In  In43  1  0.32574260  0.15855136  0.87185936  1
  In  In44  1  0.33079269  0.50299952  0.37725278  1
  In  In45  1  0.34035114  0.49132990  0.86958476  1
  In  In46  1  0.34283293  0.83871846  0.37004091  1
  In  In47  1  0.32149457  0.83705518  0.88413578  1
  In  In48  1  0.66387327  0.16591998  0.35196762  1
  In  In49  1  0.67428133  0.17556087  0.87695645  1
  In  In50  1  0.67451152  0.48471993  0.39052769  1
  In  In51  1  0.66671936  0.51307475  0.87096076  1
  In  In52  1  0.64955036  0.83444620  0.37491019  1
  In  In53  1  0.67008271  0.82447459  0.87665207  1
  In  In54  1  0.17574246  0.00735268  0.11633153  1
  In  In55  1  0.16163643  0.00675103  0.63282763  1
  In  In56  1  0.18201158  0.33130674  0.12821747  1
  In  In57  1  0.16741805  0.33147271  0.62410411  1
  In  In58  1  0.16145214  0.66660303  0.12868358  1
  In  In59  1  0.16841275  0.65654469  0.62190164  1
  In  In60  1  0.50831135  -0.00084243  0.13144268  1
  In  In61  1  0.49869643  -0.01547256  0.62432004  1
  In  In62  1  0.50539169  0.32233251  0.14698987  1
  In  In63  1  0.48834363  0.33101429  0.61830822  1
  In  In64  1  0.48557536  0.66453383  0.12611312  1
  In  In65  1  0.50786322  0.67017801  0.61632702  1
  In  In66  1  0.82243559  0.00394968  0.12523509  1
  In  In67  1  0.83830113  0.00984275  0.63341973  1
  In  In68  1  0.82811548  0.32922463  0.11718422  1
  In  In69  1  0.83700786  0.35305940  0.63091914  1
  In  In70  1  0.84991744  0.66933095  0.12439696  1
  In  In71  1  0.84472420  0.63785735  0.64391188  1
  In  In72  1  0.66677476  -0.00263715  0.75270457  1
  In  In73  1  0.82977161  0.82756808  0.50796156  1
  In  In74  1  -0.00308150  -0.00567146  0.24000909  1
  In  In75  1  0.66486095  0.66577574  0.25631742  1
  In  In76  1  -0.00217970  0.33576425  0.25447135  1
  In  In77  1  0.67114967  0.34015751  0.74293639  1
  In  In78  1  0.49751721  0.16740195  0.49275695  1
  In  In79  1  0.16372844  0.50126530  0.00006561  1
  In  In80  1  0.49887730  0.49871710  0.00501409  1
  In  In81  1  0.17752470  0.83023338  0.50309681  1
  In  In82  1  0.50013421  0.16668875  0.00905550  1
  In  In83  1  0.33051828  0.66632495  0.74873231  1
  In  In84  1  0.83415837  0.17989573  0.50107728  1
  In  In85  1  0.83581126  0.83912523  -0.00157054  1
  Cu  Cu86  1  0.16930691  0.84063966  0.75440434  1
  Cu  Cu87  1  0.16738685  0.49745243  0.74163394  1
  Cu  Cu88  1  0.66324661  0.00085360  0.49772234  1
  Cu  Cu89  1  0.17761645  0.82660519  0.24859004  1
  Cu  Cu90  1  0.66187255  0.01018873  0.00493653  1
  Cu  Cu91  1  0.66712827  0.66148026  0.49949619  1
  Cu  Cu92  1  0.32936103  -0.00355616  -0.00169084  1
  Cu  Cu93  1  0.15976385  0.16121871  0.25069981  1
  Cu  Cu94  1  0.33067685  0.33474038  0.49713762  1
  Cu  Cu95  1  0.49896897  0.83589692  0.24819961  1
  Cu  Cu96  1  0.00481184  -0.00132761  -0.00589087  1
  Cu  Cu97  1  0.00101450  0.33396076  -0.00593783  1
  Cu  Cu98  1  0.33174152  0.66840903  0.00420678  1
  Cu  Cu99  1  0.00760392  0.00927611  0.50720288  1
  Cu  Cu100  1  0.66925456  0.66891575  -0.00471705  1
  Cu  Cu101  1  0.49241823  0.49896489  0.74308584  1
  Cu  Cu102  1  0.16966794  0.16793029  0.75428584  1
  Cu  Cu103  1  0.49704351  0.16366189  0.74499236  1
  Cu  Cu104  1  0.83624097  0.83358194  0.24637913  1
  Cu  Cu105  1  0.00052488  0.66617544  -0.00589155  1
  Cu  Cu106  1  0.67604419  0.33644562  0.00271321  1
  Cu  Cu107  1  0.83665533  0.50073822  0.25406351  1
  Cu  Cu108  1  0.49849699  0.50113707  0.25871402  1
  Cu  Cu109  1  0.00537787  0.33569206  0.50474580  1
  Cu  Cu110  1  0.33609887  0.32881998  0.00569058  1
  Cu  Cu111  1  -0.00385759  0.66008046  0.50111755  1
  Cu  Cu112  1  0.33745142  0.00282372  0.49510641  1
  Cu  Cu113  1  0.33499893  0.66666919  0.49687250  1
  Cu  Cu114  1  0.82355793  0.82773619  0.75011656  1
  Se  Se115  1  0.08596530  0.08374156  0.04899612  1
  Se  Se116  1  0.09198164  0.09129146  0.55757361  1
  Se  Se117  1  0.07849986  0.40770766  0.06206779  1
  Se  Se118  1  0.08809338  0.42075131  0.55649893  1
  Se  Se119  1  0.08699433  0.74308205  0.04973660  1
  Se  Se120  1  0.07327685  0.74772037  0.55819852  1
  Se  Se121  1  0.40570842  0.07621535  0.06273373  1
  Se  Se122  1  0.41359648  0.08168200  0.56089896  1
  Se  Se123  1  0.41545428  0.40670853  0.06736506  1
  Se  Se124  1  0.41533899  0.41821969  0.54771813  1
  Se  Se125  1  0.42065442  0.75134325  0.05171206  1
  Se  Se126  1  0.41633531  0.75108264  0.55107438  1
  Se  Se127  1  0.74821389  0.09135166  0.05528531  1
  Se  Se128  1  0.74438687  0.07811364  0.55743540  1
  Se  Se129  1  0.75580839  0.42719332  0.05124267  1
  Se  Se130  1  0.74799378  0.40032094  0.55212711  1
  Se  Se131  1  0.74643672  0.74789508  0.06052974  1
  Se  Se132  1  0.74666596  0.73363878  0.56712286  1
  Se  Se133  1  0.25178654  0.24421795  0.05597148  1
  Se  Se134  1  0.25020655  0.24987505  0.55220434  1
  Se  Se135  1  0.26119292  0.57880069  0.06322632  1
  Se  Se136  1  0.24413290  0.58588603  0.54436522  1
  Se  Se137  1  0.24601251  0.91087325  0.05074816  1
  Se  Se138  1  0.26083087  0.92585728  0.56221137  1
  Se  Se139  1  0.58979762  0.26166608  0.06294670  1
  Se  Se140  1  0.58959601  0.25867136  0.55075180  1
  Se  Se141  1  0.59209005  0.59162519  0.06194099  1
  Se  Se142  1  0.58039847  0.57702669  0.54958644  1
  Se  Se143  1  0.57851463  0.92185065  0.05151995  1
  Se  Se144  1  0.58173268  0.91477249  0.54900849  1
  Se  Se145  1  0.91684314  0.25175485  0.04982404  1
  Se  Se146  1  0.92795012  0.25469342  0.56766545  1
  Se  Se147  1  0.91649905  0.58528708  0.04858864  1
  Se  Se148  1  0.91550405  0.57903938  0.55768523  1
  Se  Se149  1  0.92684778  0.92432175  0.06270014  1
  Se  Se150  1  0.92376328  0.92594322  0.55997762  1
  Se  Se151  1  0.08340253  0.24776352  0.45093066  1
  Se  Se152  1  0.08917910  0.24854282  0.94914939  1
  Se  Se153  1  0.08307372  0.58425870  0.44524939  1
  Se  Se154  1  0.07379216  0.57990555  0.93300242  1
  Se  Se155  1  0.08367021  0.92572093  0.44632529  1
  Se  Se156  1  0.08489405  0.91067083  0.94403868  1
  Se  Se157  1  0.40683259  0.25519133  0.43313840  1
  Se  Se158  1  0.41699824  0.25556385  0.94067429  1
  Se  Se159  1  0.41937475  0.57993019  0.44793064  1
  Se  Se160  1  0.40901423  0.58783312  0.94149228  1
  Se  Se161  1  0.42115453  0.91825488  0.44432770  1
  Se  Se162  1  0.41676280  0.91422656  0.94878534  1
  Se  Se163  1  0.73763884  0.24742532  0.43300985  1
  Se  Se164  1  0.75372278  0.24552395  0.95267792  1
  Se  Se165  1  0.75642286  0.57844848  0.45248507  1
  Se  Se166  1  0.75142397  0.58424677  0.94454037  1
  Se  Se167  1  0.74885271  0.92074133  0.44106971  1
  Se  Se168  1  0.74209085  0.93097802  0.94086167  1
  Se  Se169  1  0.25082210  0.08652743  0.44657959  1
  Se  Se170  1  0.24887996  0.08611480  0.94875546  1
  Se  Se171  1  0.24631994  0.42133473  0.44741308  1
  Se  Se172  1  0.25814221  0.40933636  0.94296782  1
  Se  Se173  1  0.25505409  0.74475006  0.43368926  1
  Se  Se174  1  0.24447643  0.74683760  0.95135695  1
  Se  Se175  1  0.59031001  0.07970033  0.43306017  1
  Se  Se176  1  0.58316513  0.08198894  0.93710579  1
  Se  Se177  1  0.57589970  0.41284517  0.45043677  1
  Se  Se178  1  0.59037735  0.41108499  0.94185321  1
  Se  Se179  1  0.58495890  0.75036844  0.45080845  1
  Se  Se180  1  0.58214544  0.75308448  0.94890528  1
  Se  Se181  1  0.92248227  0.07982317  0.44363475  1
  Se  Se182  1  0.91801001  0.08463054  0.94750838  1
  Se  Se183  1  0.91519823  0.41100238  0.45017830  1
  Se  Se184  1  0.91964506  0.42360155  0.94562734  1
  Se  Se185  1  0.92305386  0.74717198  0.44102741  1
  Se  Se186  1  0.91878248  0.74806894  0.93527869  1
  Se  Se187  1  0.23928314  0.24508837  0.30630265  1
  Se  Se188  1  0.25485488  0.25324068  0.80486024  1
  Se  Se189  1  0.26809764  0.59738493  0.30545333  1
  Se  Se190  1  0.24032070  0.57531301  0.81037661  1
  Se  Se191  1  0.25490395  0.91644595  0.30046090  1
  Se  Se192  1  0.25290466  0.92076288  0.80860860  1
  Se  Se193  1  0.57067298  0.24808634  0.29579441  1
  Se  Se194  1  0.57871629  0.24411389  0.80388014  1
  Se  Se195  1  0.58195706  0.57700360  0.32040124  1
  Se  Se196  1  0.57242108  0.57888256  0.80159617  1
  Se  Se197  1  0.58350756  0.91918601  0.30042619  1
  Se  Se198  1  0.57658060  0.90744416  0.80990520  1
  Se  Se199  1  0.90186773  0.23931041  0.30343586  1
  Se  Se200  1  0.92769914  0.25860944  0.81008155  1
  Se  Se201  1  0.92197331  0.58394317  0.30471559  1
  Se  Se202  1  0.92969997  0.59651289  0.79990696  1
  Se  Se203  1  0.91386803  0.91047472  0.31272012  1
  Se  Se204  1  0.90731172  0.91394942  0.80062722  1
  Se  Se205  1  0.07947940  0.08140807  0.31111298  1
  Se  Se206  1  0.08600391  0.08474162  0.80880776  1
  Se  Se207  1  0.08740350  0.42149479  0.31499389  1
  Se  Se208  1  0.08832907  0.41328643  0.79865603  1
  Se  Se209  1  0.08473875  0.74934990  0.29801129  1
  Se  Se210  1  0.08394181  0.75242172  0.80033751  1
  Se  Se211  1  0.41386518  0.08157250  0.29580163  1
  Se  Se212  1  0.41463527  0.08442804  0.80157543  1
  Se  Se213  1  0.41178987  0.41711934  0.30767460  1
  Se  Se214  1  0.41206247  0.41116688  0.79413999  1
  Se  Se215  1  0.42183848  0.74911856  0.30297357  1
  Se  Se216  1  0.41337803  0.75434000  0.81355857  1
  Se  Se217  1  0.74806791  0.07656861  0.29109152  1
  Se  Se218  1  0.75721802  0.09421888  0.80488194  1
  Se  Se219  1  0.75135771  0.42129085  0.30773174  1
  Se  Se220  1  0.75356075  0.41531660  0.81664119  1
  Se  Se221  1  0.75791414  0.75843166  0.31357626  1
  Se  Se222  1  0.74130841  0.74339009  0.80214633  1
  Se  Se223  1  0.24487948  0.07875688  0.19780900  1
  Se  Se224  1  0.25204969  0.08252383  0.70031605  1
  Se  Se225  1  0.24023911  0.41438470  0.20598443  1
  Se  Se226  1  0.25425856  0.41539866  0.69160116  1
  Se  Se227  1  0.25673875  0.74582143  0.19001425  1
  Se  Se228  1  0.24209197  0.76008877  0.68770934  1
  Se  Se229  1  0.56665819  0.10322959  0.19485036  1
  Se  Se230  1  0.58251347  0.08992052  0.68576194  1
  Se  Se231  1  0.58468877  0.42241275  0.20366835  1
  Se  Se232  1  0.57566393  0.42209055  0.68288284  1
  Se  Se233  1  0.58148404  0.75447617  0.18923649  1
  Se  Se234  1  0.56938007  0.74837981  0.69752371  1
  Se  Se235  1  0.90796450  0.09480161  0.19138554  1
  Se  Se236  1  0.92207617  0.07911444  0.70463738  1
  Se  Se237  1  0.91343995  0.42437545  0.18824185  1
  Se  Se238  1  0.91412713  0.43106096  0.70238460  1
  Se  Se239  1  0.92229541  0.74797412  0.20047788  1
  Se  Se240  1  0.91257282  0.74817882  0.69825855  1
  Se  Se241  1  0.08216058  0.24219574  0.18992140  1
  Se  Se242  1  0.08860697  0.25157203  0.69803334  1
  Se  Se243  1  0.09092976  0.57508186  0.19682895  1
  Se  Se244  1  0.08465720  0.58691565  0.69502319  1
  Se  Se245  1  0.09501770  0.90587607  0.18679681  1
  Se  Se246  1  0.08162960  0.92035991  0.70038102  1
  Se  Se247  1  0.39619411  0.26463772  0.20390592  1
  Se  Se248  1  0.41620653  0.25151441  0.69390338  1
  Se  Se249  1  0.41833911  0.58311066  0.20214720  1
  Se  Se250  1  0.41266855  0.57859802  0.68196538  1
  Se  Se251  1  0.41577692  0.91627626  0.19228251  1
  Se  Se252  1  0.41744708  0.92163494  0.70177414  1
  Se  Se253  1  0.74068081  0.27107432  0.19336796  1
  Se  Se254  1  0.76716479  0.24345503  0.69452314  1
  Se  Se255  1  0.75728995  0.58223937  0.19171990  1
  Se  Se256  1  0.73610704  0.57359136  0.69921284  1
  Se  Se257  1  0.75050615  0.91728633  0.19752677  1
  Se  Se258  1  0.74872345  0.90658931  0.68485944  1
