# generated using pymatgen
data_In86Cu29Se144
_symmetry_space_group_name_H-M   'P 1'
_cell_length_a   17.57205127
_cell_length_b   17.57609602
_cell_length_c   23.43197203
_cell_angle_alpha   90.00567396
_cell_angle_beta   89.97801045
_cell_angle_gamma   90.01649343
_symmetry_Int_Tables_number   1
_chemical_formula_structural   In86Cu29Se144
_chemical_formula_sum   'In86 Cu29 Se144'
_cell_volume   7236.91824727
_cell_formula_units_Z   1
loop_
 _symmetry_equiv_pos_site_id
 _symmetry_equiv_pos_as_xyz
  1  'x, y, z'
loop_
 _atom_site_type_symbol
 _atom_site_label
 _atom_site_symmetry_multiplicity
 _atom_site_fract_x
 _atom_site_fract_y
 _atom_site_fract_z
 _atom_site_occupancy
  In  In0  1  0.00057842  0.17039471  0.13133623  1
  In  In1  1  -0.00563094  0.15704997  0.63115984  1
  In  In2  1  0.00040214  0.50451881  0.12135543  1
  In  In3  1  0.00057121  0.50649459  0.62431823  1
  In  In4  1  -0.00654210  0.82026093  0.11783469  1
  In  In5  1  0.01367267  0.83231560  0.61993579  1
  In  In6  1  0.34339714  0.15555010  0.12939830  1
  In  In7  1  0.34326701  0.15003503  0.63893964  1
  In  In8  1  0.34017478  0.50407212  0.12911271  1
  In  In9  1  0.33695047  0.49984235  0.63536777  1
  In  In10  1  0.33162772  0.83232337  0.12329654  1
  In  In11  1  0.33431491  0.83797010  0.62677291  1
  In  In12  1  0.66541651  0.18437372  0.12970634  1
  In  In13  1  0.66963818  0.17447667  0.62594511  1
  In  In14  1  0.66063782  0.49885009  0.12694918  1
  In  In15  1  0.64913073  0.49509206  0.62808241  1
  In  In16  1  0.64966788  0.82158112  0.11287691  1
  In  In17  1  0.66074655  0.84395633  0.61757658  1
  In  In18  1  0.16493617  -0.01993187  0.38153806  1
  In  In19  1  0.16099894  -0.00193523  0.86158813  1
  In  In20  1  0.17321586  0.33958108  0.36505455  1
  In  In21  1  0.18058289  0.33376244  0.88120759  1
  In  In22  1  0.17612260  0.67553548  0.36624963  1
  In  In23  1  0.17964006  0.65374136  0.88571125  1
  In  In24  1  0.49513161  0.01405491  0.38599233  1
  In  In25  1  0.49379678  0.00990827  0.88638268  1
  In  In26  1  0.49505083  0.32611137  0.36365582  1
  In  In27  1  0.49961578  0.33245087  0.87991907  1
  In  In28  1  0.50253120  0.67991180  0.35856280  1
  In  In29  1  0.48851498  0.67820426  0.88404282  1
  In  In30  1  0.83595763  -0.00131543  0.37627408  1
  In  In31  1  0.83433675  -0.01354395  0.87766565  1
  In  In32  1  0.82756224  0.32129546  0.35304789  1
  In  In33  1  0.82986698  0.34744534  0.88049985  1
  In  In34  1  0.82246654  0.66049347  0.35991854  1
  In  In35  1  0.82899217  0.67038091  0.88648558  1
  In  In36  1  -0.00803851  0.17197274  0.37243511  1
  In  In37  1  0.01925881  0.16034252  0.87046918  1
  In  In38  1  -0.00594572  0.49727149  0.35971356  1
  In  In39  1  -0.00554135  0.50737966  0.88864283  1
  In  In40  1  0.01326584  0.83359198  0.37250371  1
  In  In41  1  0.00159325  0.83806465  0.88057547  1
  In  In42  1  0.34416539  0.17479908  0.37019065  1
  In  In43  1  0.33752310  0.17884113  0.86721486  1
  In  In44  1  0.34558487  0.50453614  0.35497291  1
  In  In45  1  0.33896367  0.50089693  0.88160230  1
  In  In46  1  0.33222460  0.83705670  0.37161781  1
  In  In47  1  0.33183777  0.83193419  0.87461456  1
  In  In48  1  0.65459586  0.15861944  0.37416434  1
  In  In49  1  0.64059657  0.16437430  0.88241474  1
  In  In50  1  0.65559818  0.51063494  0.35803074  1
  In  In51  1  0.66913126  0.49488112  0.88470559  1
  In  In52  1  0.65695004  0.82132977  0.37451890  1
  In  In53  1  0.66418837  0.84679645  0.89411914  1
  In  In54  1  0.18296674  0.00150563  0.12505708  1
  In  In55  1  0.17454433  -0.00524643  0.63312749  1
  In  In56  1  0.16116127  0.34360281  0.12884730  1
  In  In57  1  0.17611604  0.34865370  0.62323207  1
  In  In58  1  0.16859765  0.66749306  0.12390941  1
  In  In59  1  0.17053648  0.68126686  0.62290245  1
  In  In60  1  0.49274335  -0.01058351  0.11251091  1
  In  In61  1  0.49084441  -0.01130102  0.61307734  1
  In  In62  1  0.50101425  0.33433121  0.12748360  1
  In  In63  1  0.50158159  0.32751036  0.63227709  1
  In  In64  1  0.49743757  0.66606151  0.12883374  1
  In  In65  1  0.48648511  0.66416937  0.62221659  1
  In  In66  1  0.84157837  -0.00558500  0.12140931  1
  In  In67  1  0.83033832  0.00644375  0.63083995  1
  In  In68  1  0.81012190  0.34787784  0.13947701  1
  In  In69  1  0.82693924  0.32038055  0.62721632  1
  In  In70  1  0.83006185  0.66381241  0.12474723  1
  In  In71  1  0.83441724  0.67797112  0.62431428  1
  In  In72  1  0.83106149  0.16587560  0.00330698  1
  In  In73  1  0.17532868  0.16717037  -0.00270468  1
  In  In74  1  0.66295768  0.00449841  0.75350764  1
  In  In75  1  0.00549776  0.00025758  0.25415695  1
  In  In76  1  0.82640688  0.83363455  0.49723683  1
  In  In77  1  0.66073121  0.66576568  0.75198035  1
  In  In78  1  0.82829100  0.16122202  0.49624005  1
  In  In79  1  0.17474102  0.50425418  0.48522685  1
  In  In80  1  0.66708915  0.00023156  0.25150381  1
  In  In81  1  0.17409058  0.16119307  0.51223487  1
  In  In82  1  0.50045619  0.50991194  0.48821087  1
  In  In83  1  0.01058331  0.66154309  0.76031126  1
  In  In84  1  0.00491402  0.33007502  0.75407626  1
  In  In85  1  0.82739561  0.49649880  0.47958291  1
  Cu  Cu86  1  0.16435979  0.50382415  0.24297857  1
  Cu  Cu87  1  0.00375582  0.67077620  0.00436132  1
  Cu  Cu88  1  0.35130404  0.33042723  0.49662894  1
  Cu  Cu89  1  0.49603760  0.49437535  0.75659348  1
  Cu  Cu90  1  0.00764455  -0.00515252  -0.00149011  1
  Cu  Cu91  1  0.00648450  0.32761458  0.49335818  1
  Cu  Cu92  1  0.83922821  0.83100800  0.75930879  1
  Cu  Cu93  1  0.82407423  0.49373429  0.75297895  1
  Cu  Cu94  1  0.49258476  0.83746827  0.75084774  1
  Cu  Cu95  1  0.33840111  0.66661943  0.00594003  1
  Cu  Cu96  1  -0.00440635  0.34009668  0.00786749  1
  Cu  Cu97  1  0.50053130  0.16493119  0.24921735  1
  Cu  Cu98  1  0.82578750  0.82462859  0.24357692  1
  Cu  Cu99  1  0.49790671  0.16916515  0.75238047  1
  Cu  Cu100  1  0.17548952  0.16808409  0.24997924  1
  Cu  Cu101  1  0.82884224  0.16873418  0.75256244  1
  Cu  Cu102  1  0.33949454  0.33511956  0.00280167  1
  Cu  Cu103  1  0.66325580  0.33766629  0.50186071  1
  Cu  Cu104  1  -0.00482296  0.66766999  0.49491200  1
  Cu  Cu105  1  0.17558399  0.83413834  0.74831318  1
  Cu  Cu106  1  0.49192188  0.83967041  0.24314407  1
  Cu  Cu107  1  0.65996646  0.33683916  0.00743872  1
  Cu  Cu108  1  0.83495281  0.50538741  0.24021067  1
  Cu  Cu109  1  0.66666423  0.66149702  0.00661599  1
  Cu  Cu110  1  0.32910553  -0.00326909  0.50245212  1
  Cu  Cu111  1  0.17843625  0.49620706  0.75930724  1
  Cu  Cu112  1  0.32840248  0.68065406  0.49838352  1
  Cu  Cu113  1  0.33387895  -0.00648464  -0.00205918  1
  Cu  Cu114  1  0.16854199  0.83105486  0.24696689  1
  Se  Se115  1  0.08025038  0.08075101  0.05980360  1
  Se  Se116  1  0.07525456  0.07159120  0.56222570  1
  Se  Se117  1  0.08747106  0.42192748  0.05306964  1
  Se  Se118  1  0.07801146  0.41809036  0.55030016  1
  Se  Se119  1  0.09242481  0.75444150  0.05176950  1
  Se  Se120  1  0.08314645  0.74516336  0.54754334  1
  Se  Se121  1  0.41370076  0.08367031  0.04849389  1
  Se  Se122  1  0.41023837  0.08633489  0.55354303  1
  Se  Se123  1  0.42002473  0.41860338  0.05814119  1
  Se  Se124  1  0.41943033  0.42047374  0.55808166  1
  Se  Se125  1  0.42170050  0.75237211  0.05747366  1
  Se  Se126  1  0.41578600  0.75571326  0.55444543  1
  Se  Se127  1  0.74255814  0.08024052  0.06565163  1
  Se  Se128  1  0.73804253  0.07251910  0.55761738  1
  Se  Se129  1  0.74903442  0.42009919  0.05514798  1
  Se  Se130  1  0.74810988  0.41574422  0.55864322  1
  Se  Se131  1  0.75261170  0.74958458  0.05388429  1
  Se  Se132  1  0.73629779  0.73903129  0.55500265  1
  Se  Se133  1  0.25762266  0.25490880  0.06369482  1
  Se  Se134  1  0.26530449  0.26205260  0.55982562  1
  Se  Se135  1  0.25447571  0.58190800  0.05833278  1
  Se  Se136  1  0.25831501  0.58736665  0.55729863  1
  Se  Se137  1  0.24796706  0.91388208  0.05134924  1
  Se  Se138  1  0.24591721  0.91468065  0.55660083  1
  Se  Se139  1  0.57760227  0.24695062  0.05407970  1
  Se  Se140  1  0.58394496  0.25454907  0.55758759  1
  Se  Se141  1  0.57876054  0.58173206  0.05791582  1
  Se  Se142  1  0.58941871  0.59197421  0.55641362  1
  Se  Se143  1  0.58703599  0.91996318  0.04625902  1
  Se  Se144  1  0.58124251  0.91707058  0.54547159  1
  Se  Se145  1  0.91609402  0.25795502  0.06533173  1
  Se  Se146  1  0.92478287  0.25354219  0.55563757  1
  Se  Se147  1  0.91597487  0.58658511  0.05316595  1
  Se  Se148  1  0.91395057  0.58571521  0.55146160  1
  Se  Se149  1  0.92051471  0.91450897  0.05053770  1
  Se  Se150  1  0.91464520  0.91941869  0.56186853  1
  Se  Se151  1  0.09263301  0.24957094  0.43937749  1
  Se  Se152  1  0.07393668  0.25953883  0.94628785  1
  Se  Se153  1  0.07301799  0.58825490  0.43241274  1
  Se  Se154  1  0.08612877  0.58259523  0.95342252  1
  Se  Se155  1  0.07226822  0.91543916  0.45087385  1
  Se  Se156  1  0.09479410  0.91985273  0.94245090  1
  Se  Se157  1  0.43088905  0.24518284  0.44413392  1
  Se  Se158  1  0.41501171  0.24632398  0.94701728  1
  Se  Se159  1  0.40236451  0.59712337  0.43514305  1
  Se  Se160  1  0.42146765  0.58219038  0.95200982  1
  Se  Se161  1  0.41249463  0.91796939  0.44402124  1
  Se  Se162  1  0.41842590  0.90960369  0.94543203  1
  Se  Se163  1  0.74501816  0.26019616  0.43893073  1
  Se  Se164  1  0.73901014  0.25653186  0.94343383  1
  Se  Se165  1  0.73116208  0.59353411  0.43660442  1
  Se  Se166  1  0.75182114  0.58009334  0.95149062  1
  Se  Se167  1  0.73638346  0.92388555  0.43762827  1
  Se  Se168  1  0.76216127  0.91699850  0.95628969  1
  Se  Se169  1  0.25515388  0.08023979  0.43900391  1
  Se  Se170  1  0.25737881  0.07559767  0.93486479  1
  Se  Se171  1  0.27170800  0.41104801  0.43600828  1
  Se  Se172  1  0.25357490  0.41895132  0.95186252  1
  Se  Se173  1  0.24334100  0.75855649  0.44261492  1
  Se  Se174  1  0.25580719  0.74835714  0.94867326  1
  Se  Se175  1  0.58752393  0.08601372  0.45333252  1
  Se  Se176  1  0.59648077  0.06541055  0.95432362  1
  Se  Se177  1  0.59009261  0.41297129  0.43426315  1
  Se  Se178  1  0.57752111  0.41831738  0.95047662  1
  Se  Se179  1  0.57316151  0.74193506  0.44208450  1
  Se  Se180  1  0.58695918  0.74596853  0.95004190  1
  Se  Se181  1  0.93028854  0.07276649  0.44553654  1
  Se  Se182  1  0.92888188  0.08152069  0.94155726  1
  Se  Se183  1  0.92248205  0.39961348  0.43172593  1
  Se  Se184  1  0.91054132  0.42148130  0.95389404  1
  Se  Se185  1  0.91163808  0.74201412  0.43315392  1
  Se  Se186  1  0.92048444  0.75210937  0.94765512  1
  Se  Se187  1  0.25851832  0.25381179  0.30148425  1
  Se  Se188  1  0.22950775  0.23964992  0.80724949  1
  Se  Se189  1  0.24897554  0.58569411  0.29748342  1
  Se  Se190  1  0.25964953  0.58472700  0.80842225  1
  Se  Se191  1  0.24599194  0.91876430  0.30193941  1
  Se  Se192  1  0.25784167  0.91827105  0.80203508  1
  Se  Se193  1  0.58883803  0.24570561  0.30042910  1
  Se  Se194  1  0.58160386  0.25137814  0.80614632  1
  Se  Se195  1  0.55187258  0.56975448  0.29338267  1
  Se  Se196  1  0.57552111  0.57832179  0.81604377  1
  Se  Se197  1  0.57116438  0.91482873  0.30943300  1
  Se  Se198  1  0.57726449  0.91077804  0.81302155  1
  Se  Se199  1  0.93136739  0.25378704  0.29499172  1
  Se  Se200  1  0.91016169  0.24526034  0.81600801  1
  Se  Se201  1  0.91793091  0.58904112  0.29472807  1
  Se  Se202  1  0.90397336  0.57674098  0.81025182  1
  Se  Se203  1  0.90659447  0.90401234  0.30507083  1
  Se  Se204  1  0.92402160  0.91816894  0.80574969  1
  Se  Se205  1  0.09682734  0.08995818  0.31437417  1
  Se  Se206  1  0.08447101  0.08465071  0.79203735  1
  Se  Se207  1  0.08494622  0.41600252  0.29744364  1
  Se  Se208  1  0.08475884  0.42746820  0.81586864  1
  Se  Se209  1  0.08202877  0.74886024  0.29859745  1
  Se  Se210  1  0.10014894  0.75498786  0.81455930  1
  Se  Se211  1  0.41928233  0.08037392  0.30462033  1
  Se  Se212  1  0.41963580  0.08256397  0.80759572  1
  Se  Se213  1  0.41540451  0.40598096  0.29434984  1
  Se  Se214  1  0.41281246  0.41167192  0.81076289  1
  Se  Se215  1  0.40701875  0.75535604  0.29640445  1
  Se  Se216  1  0.41531802  0.74850432  0.80383301  1
  Se  Se217  1  0.76157376  0.09157571  0.30873506  1
  Se  Se218  1  0.75228122  0.09070312  0.81780695  1
  Se  Se219  1  0.75266562  0.42772231  0.30117094  1
  Se  Se220  1  0.74124577  0.41352885  0.80682562  1
  Se  Se221  1  0.73675126  0.74870032  0.29808733  1
  Se  Se222  1  0.74844116  0.75778650  0.81416748  1
  Se  Se223  1  0.25612808  0.07958268  0.20037370  1
  Se  Se224  1  0.24034297  0.08950027  0.70097338  1
  Se  Se225  1  0.25222512  0.41920042  0.19530859  1
  Se  Se226  1  0.25661578  0.41231146  0.70231044  1
  Se  Se227  1  0.25321364  0.74798486  0.19443019  1
  Se  Se228  1  0.25674695  0.74734178  0.69626202  1
  Se  Se229  1  0.57572539  0.08224390  0.18684276  1
  Se  Se230  1  0.57424690  0.08803099  0.68876741  1
  Se  Se231  1  0.61085690  0.38798621  0.19064056  1
  Se  Se232  1  0.58143785  0.41303326  0.70282188  1
  Se  Se233  1  0.58067542  0.75459150  0.19618542  1
  Se  Se234  1  0.57583852  0.75966379  0.69035847  1
  Se  Se235  1  0.90917433  0.08564631  0.19642773  1
  Se  Se236  1  0.91178193  0.08150079  0.70380485  1
  Se  Se237  1  0.92018663  0.41866272  0.19184921  1
  Se  Se238  1  0.91081711  0.42135316  0.69145595  1
  Se  Se239  1  0.91683620  0.74614623  0.19402573  1
  Se  Se240  1  0.91964502  0.75258276  0.69799867  1
  Se  Se241  1  0.09002378  0.24781282  0.19624832  1
  Se  Se242  1  0.08939409  0.25100590  0.68405262  1
  Se  Se243  1  0.07999728  0.58837034  0.19229442  1
  Se  Se244  1  0.09909720  0.57336787  0.69362069  1
  Se  Se245  1  0.08703240  0.91235137  0.18664784  1
  Se  Se246  1  0.08313762  0.91035944  0.69680230  1
  Se  Se247  1  0.41676971  0.24864121  0.19585763  1
  Se  Se248  1  0.41169640  0.25303330  0.70048970  1
  Se  Se249  1  0.43327817  0.57188421  0.20125492  1
  Se  Se250  1  0.42129215  0.58387376  0.70112234  1
  Se  Se251  1  0.41058413  0.92425469  0.19055213  1
  Se  Se252  1  0.41577326  0.92456212  0.69551817  1
  Se  Se253  1  0.75730432  0.24100104  0.20342126  1
  Se  Se254  1  0.74427452  0.25280832  0.70266663  1
  Se  Se255  1  0.74282136  0.58715232  0.19450664  1
  Se  Se256  1  0.75483970  0.57826235  0.68863602  1
  Se  Se257  1  0.74952502  0.90936633  0.18578037  1
  Se  Se258  1  0.75418523  0.90561946  0.69682213  1
