# generated using pymatgen
data_In86Cu29Se144
_symmetry_space_group_name_H-M   'P 1'
_cell_length_a   17.58523446
_cell_length_b   17.58731279
_cell_length_c   23.44484156
_cell_angle_alpha   90.00305908
_cell_angle_beta   90.00752769
_cell_angle_gamma   89.98934587
_symmetry_Int_Tables_number   1
_chemical_formula_structural   In86Cu29Se144
_chemical_formula_sum   'In86 Cu29 Se144'
_cell_volume   7250.95050945
_cell_formula_units_Z   1
loop_
 _symmetry_equiv_pos_site_id
 _symmetry_equiv_pos_as_xyz
  1  'x, y, z'
loop_
 _atom_site_type_symbol
 _atom_site_label
 _atom_site_symmetry_multiplicity
 _atom_site_fract_x
 _atom_site_fract_y
 _atom_site_fract_z
 _atom_site_occupancy
  In  In0  1  0.00883899  0.16364419  0.12484453  1
  In  In1  1  -0.00701630  0.15924476  0.61632147  1
  In  In2  1  -0.01432310  0.51289742  0.13531482  1
  In  In3  1  -0.00183472  0.50900517  0.61761276  1
  In  In4  1  -0.01778448  0.83309761  0.12299792  1
  In  In5  1  -0.00421636  0.83238456  0.62628797  1
  In  In6  1  0.31857251  0.16617214  0.12610015  1
  In  In7  1  0.33727258  0.17138461  0.62070014  1
  In  In8  1  0.34136536  0.48816317  0.12278714  1
  In  In9  1  0.33815372  0.49655614  0.62663017  1
  In  In10  1  0.35512469  0.82604452  0.13149346  1
  In  In11  1  0.33989391  0.81902550  0.62478711  1
  In  In12  1  0.67753555  0.17614664  0.13273386  1
  In  In13  1  0.67370664  0.17243945  0.61252149  1
  In  In14  1  0.66965126  0.50198524  0.12791122  1
  In  In15  1  0.67972862  0.50858886  0.61662597  1
  In  In16  1  0.65666275  0.81719314  0.12407048  1
  In  In17  1  0.65684866  0.82600847  0.61715229  1
  In  In18  1  0.17581857  0.00590689  0.37326934  1
  In  In19  1  0.16337132  0.01678276  0.87380581  1
  In  In20  1  0.14081038  0.33339123  0.38041276  1
  In  In21  1  0.16747276  0.31715493  0.87187084  1
  In  In22  1  0.16227196  0.67640207  0.37659699  1
  In  In23  1  0.16543168  0.66145348  0.86373162  1
  In  In24  1  0.49480727  0.00278332  0.37931241  1
  In  In25  1  0.48663895  -0.01024847  0.87646242  1
  In  In26  1  0.51060844  0.32955740  0.37942922  1
  In  In27  1  0.50814925  0.34903802  0.87053033  1
  In  In28  1  0.50272939  0.65880569  0.38574910  1
  In  In29  1  0.50558991  0.66534627  0.87261102  1
  In  In30  1  0.83092682  0.00047038  0.38072180  1
  In  In31  1  0.82985243  -0.01295858  0.87060578  1
  In  In32  1  0.83219677  0.34095539  0.37489966  1
  In  In33  1  0.84624862  0.34274292  0.87799550  1
  In  In34  1  0.83173789  0.66974524  0.37883536  1
  In  In35  1  0.83103258  0.66712539  0.87240783  1
  In  In36  1  -0.03103928  0.21173981  0.41808532  1
  In  In37  1  0.01392669  0.17236726  0.86766495  1
  In  In38  1  -0.01388306  0.49343841  0.37425283  1
  In  In39  1  -0.01471971  0.50113209  0.87675314  1
  In  In40  1  -0.00677490  0.81887482  0.37499825  1
  In  In41  1  -0.01021705  0.82083681  0.86435648  1
  In  In42  1  0.33764669  0.16304939  0.38243569  1
  In  In43  1  0.31811670  0.16394605  0.86989871  1
  In  In44  1  0.34960144  0.50919089  0.38280653  1
  In  In45  1  0.34265838  0.50900153  0.86440260  1
  In  In46  1  0.32631738  0.84528134  0.37741886  1
  In  In47  1  0.34853984  0.82950780  0.87609585  1
  In  In48  1  0.66461213  0.17061580  0.37556980  1
  In  In49  1  0.67299249  0.16225475  0.87103244  1
  In  In50  1  0.66713622  0.50370902  0.37607077  1
  In  In51  1  0.65760321  0.50963440  0.88105234  1
  In  In52  1  0.67009467  0.82903094  0.37870939  1
  In  In53  1  0.68149041  0.82043966  0.88230482  1
  In  In54  1  0.16381533  0.01416273  0.12568236  1
  In  In55  1  0.15172502  0.00222232  0.63057860  1
  In  In56  1  0.16964000  0.31805783  0.12312926  1
  In  In57  1  0.17572035  0.33667506  0.62315258  1
  In  In58  1  0.15814017  0.65475680  0.12765716  1
  In  In59  1  0.16376423  0.66783382  0.63313433  1
  In  In60  1  0.50274206  -0.02361812  0.13485647  1
  In  In61  1  0.50092729  0.00084139  0.61627306  1
  In  In62  1  0.50328736  0.34745638  0.12405637  1
  In  In63  1  0.49397146  0.32827351  0.61559992  1
  In  In64  1  0.51571698  0.67445076  0.12010589  1
  In  In65  1  0.50350461  0.66732031  0.62170163  1
  In  In66  1  0.84271316  -0.00279526  0.12405984  1
  In  In67  1  0.84669220  0.00708531  0.61649902  1
  In  In68  1  0.81960089  0.34342662  0.14083572  1
  In  In69  1  0.84035448  0.32875133  0.61117561  1
  In  In70  1  0.82924900  0.66479898  0.12661885  1
  In  In71  1  0.83164132  0.66474452  0.62250201  1
  In  In72  1  0.83782301  0.16607803  0.00259983  1
  In  In73  1  0.33120341  0.33222558  0.24788860  1
  In  In74  1  0.67113401  -0.00531517  0.74943922  1
  In  In75  1  0.32978190  -0.00464796  0.75005990  1
  In  In76  1  0.66713921  0.00204131  0.25776180  1
  In  In77  1  0.16622612  0.83364397  0.50896448  1
  In  In78  1  0.16724345  0.49441828  -0.00085285  1
  In  In79  1  0.00366129  0.33567613  0.74432064  1
  In  In80  1  0.67301847  0.33868640  0.73557387  1
  In  In81  1  0.16483864  0.49875231  0.50173662  1
  In  In82  1  0.49443945  0.16189870  -0.00045895  1
  In  In83  1  0.17101010  0.83726851  -0.00486881  1
  In  In84  1  0.00152228  0.00890116  0.25246377  1
  In  In85  1  0.33265961  0.66762700  0.25402983  1
  Cu  Cu86  1  0.15524948  0.50019684  0.25531900  1
  Cu  Cu87  1  0.16846271  0.49672322  0.74476288  1
  Cu  Cu88  1  0.00337040  -0.00513379  0.50077593  1
  Cu  Cu89  1  0.66270751  -0.01130654  0.00155472  1
  Cu  Cu90  1  0.50704053  0.82198705  0.75080157  1
  Cu  Cu91  1  0.50855865  0.50426545  0.25048770  1
  Cu  Cu92  1  0.16075565  0.16959862  0.25420535  1
  Cu  Cu93  1  0.33696850  0.33148696  -0.00159369  1
  Cu  Cu94  1  0.82734960  0.82590308  0.24913930  1
  Cu  Cu95  1  0.49916518  0.50659001  0.74697637  1
  Cu  Cu96  1  0.34653880  0.66058187  -0.00307191  1
  Cu  Cu97  1  0.67027500  0.66369821  0.00052516  1
  Cu  Cu98  1  0.49694884  0.16496049  0.25748366  1
  Cu  Cu99  1  0.66220084  0.33835607  0.49562971  1
  Cu  Cu100  1  0.82891327  0.50827166  0.74975214  1
  Cu  Cu101  1  0.82857285  0.50611555  0.25490552  1
  Cu  Cu102  1  0.66761563  -0.00151150  0.49658193  1
  Cu  Cu103  1  0.33264770  -0.00539688  0.00097481  1
  Cu  Cu104  1  0.16500505  0.83187247  0.74810037  1
  Cu  Cu105  1  0.33569386  0.33541700  0.49883661  1
  Cu  Cu106  1  0.67175866  0.34162443  0.00417540  1
  Cu  Cu107  1  0.00060307  0.00038318  -0.00030425  1
  Cu  Cu108  1  0.33512793  0.00304297  0.50159018  1
  Cu  Cu109  1  0.50140390  0.17268206  0.74112931  1
  Cu  Cu110  1  0.16225865  0.83516568  0.25342405  1
  Cu  Cu111  1  -0.00073689  0.33736908  0.00198691  1
  Cu  Cu112  1  0.66948958  0.66512453  0.49935390  1
  Cu  Cu113  1  0.83298042  0.82847860  0.74563232  1
  Cu  Cu114  1  -0.00967038  0.67223744  -0.00054018  1
  Se  Se115  1  0.08449478  0.08608239  0.04890214  1
  Se  Se116  1  0.08690140  0.08032368  0.55104130  1
  Se  Se117  1  0.07746854  0.41521284  0.06634315  1
  Se  Se118  1  0.07372778  0.40494428  0.55697119  1
  Se  Se119  1  0.07930046  0.74670379  0.05693522  1
  Se  Se120  1  0.07364802  0.73653601  0.55728328  1
  Se  Se121  1  0.41138579  0.07377257  0.06504220  1
  Se  Se122  1  0.42020596  0.08906265  0.55176156  1
  Se  Se123  1  0.42130202  0.41661559  0.04733140  1
  Se  Se124  1  0.41701365  0.42141003  0.55059187  1
  Se  Se125  1  0.42173244  0.74818898  0.05248865  1
  Se  Se126  1  0.42995479  0.75916883  0.55285196  1
  Se  Se127  1  0.73963597  0.07566256  0.05916535  1
  Se  Se128  1  0.75306647  0.08093086  0.54971737  1
  Se  Se129  1  0.75620850  0.41965189  0.05915639  1
  Se  Se130  1  0.75121405  0.41404706  0.55033183  1
  Se  Se131  1  0.75073889  0.74958346  0.05530823  1
  Se  Se132  1  0.75095422  0.75038818  0.55297147  1
  Se  Se133  1  0.25143277  0.24719052  0.04773324  1
  Se  Se134  1  0.25263145  0.25269154  0.55184927  1
  Se  Se135  1  0.26033987  0.58809658  0.05808811  1
  Se  Se136  1  0.25228909  0.59016633  0.56132060  1
  Se  Se137  1  0.25446053  0.91816068  0.06588724  1
  Se  Se138  1  0.25812302  0.92579458  0.56751387  1
  Se  Se139  1  0.59015763  0.25239895  0.05697637  1
  Se  Se140  1  0.58244483  0.24991308  0.54847858  1
  Se  Se141  1  0.58682280  0.57941754  0.05449223  1
  Se  Se142  1  0.58456831  0.58211667  0.55209837  1
  Se  Se143  1  0.57947255  0.90862796  0.05586003  1
  Se  Se144  1  0.58198759  0.91676596  0.54928977  1
  Se  Se145  1  0.91906056  0.25933876  0.06510263  1
  Se  Se146  1  0.92068295  0.24453003  0.54346522  1
  Se  Se147  1  0.91472683  0.58510116  0.05524763  1
  Se  Se148  1  0.90101509  0.57239768  0.55223806  1
  Se  Se149  1  0.91354896  0.91706926  0.04778767  1
  Se  Se150  1  0.91867630  0.91033290  0.55127640  1
  Se  Se151  1  0.10558685  0.23376922  0.45529965  1
  Se  Se152  1  0.07906518  0.25308473  0.94710466  1
  Se  Se153  1  0.07617798  0.58694144  0.43962749  1
  Se  Se154  1  0.07746739  0.59191650  0.94323650  1
  Se  Se155  1  0.08227859  0.91661778  0.43771695  1
  Se  Se156  1  0.07567963  0.91987583  0.93505070  1
  Se  Se157  1  0.42034981  0.25184347  0.44567876  1
  Se  Se158  1  0.41524577  0.25386346  0.93349611  1
  Se  Se159  1  0.41173923  0.59205114  0.45789717  1
  Se  Se160  1  0.42473928  0.57676461  0.94124590  1
  Se  Se161  1  0.41443903  0.91709189  0.44854492  1
  Se  Se162  1  0.41876603  0.90950020  0.95349384  1
  Se  Se163  1  0.74637166  0.25504534  0.44305649  1
  Se  Se164  1  0.74528532  0.25778846  0.94161038  1
  Se  Se165  1  0.75288243  0.58071867  0.44656263  1
  Se  Se166  1  0.75404268  0.58252071  0.94461326  1
  Se  Se167  1  0.75227524  0.91298441  0.44711675  1
  Se  Se168  1  0.75403599  0.91531460  0.94847996  1
  Se  Se169  1  0.24892325  0.08393976  0.44997516  1
  Se  Se170  1  0.25326008  0.08105235  0.94784002  1
  Se  Se171  1  0.25456143  0.41200725  0.43573093  1
  Se  Se172  1  0.25746335  0.41092600  0.93552882  1
  Se  Se173  1  0.25665219  0.74506637  0.44690781  1
  Se  Se174  1  0.25667173  0.73602639  0.93996468  1
  Se  Se175  1  0.58489769  0.08370866  0.44336383  1
  Se  Se176  1  0.58990235  0.07267489  0.93902507  1
  Se  Se177  1  0.57851337  0.42570404  0.44613687  1
  Se  Se178  1  0.58395450  0.41768455  0.94946720  1
  Se  Se179  1  0.58515564  0.75041363  0.44857201  1
  Se  Se180  1  0.58539993  0.74638404  0.94548136  1
  Se  Se181  1  0.91784882  0.07746396  0.44908919  1
  Se  Se182  1  0.92166310  0.07997756  0.93567672  1
  Se  Se183  1  0.92158661  0.40875116  0.44924390  1
  Se  Se184  1  0.91409564  0.42354868  0.95473115  1
  Se  Se185  1  0.90920648  0.75570127  0.44946518  1
  Se  Se186  1  0.91060533  0.75417182  0.94303095  1
  Se  Se187  1  0.24398420  0.24971433  0.31391154  1
  Se  Se188  1  0.25121881  0.25013467  0.79792063  1
  Se  Se189  1  0.24324721  0.57341669  0.31364032  1
  Se  Se190  1  0.25206908  0.58301996  0.79677855  1
  Se  Se191  1  0.24808016  0.91927195  0.30096681  1
  Se  Se192  1  0.24246295  0.90644945  0.81518430  1
  Se  Se193  1  0.58310179  0.25084365  0.30302878  1
  Se  Se194  1  0.58517588  0.24679183  0.80320660  1
  Se  Se195  1  0.58306720  0.58937852  0.30793728  1
  Se  Se196  1  0.58742544  0.58333576  0.80132665  1
  Se  Se197  1  0.57557524  0.91016658  0.31099890  1
  Se  Se198  1  0.58029568  0.90755100  0.81242668  1
  Se  Se199  1  0.92625058  0.25242007  0.31832331  1
  Se  Se200  1  0.90998989  0.24868511  0.80604894  1
  Se  Se201  1  0.91430992  0.58776788  0.30743414  1
  Se  Se202  1  0.91799735  0.58623524  0.80276299  1
  Se  Se203  1  0.90923739  0.91103399  0.30542882  1
  Se  Se204  1  0.91459831  0.91441464  0.79851320  1
  Se  Se205  1  0.08112963  0.09600135  0.31815321  1
  Se  Se206  1  0.08338041  0.08391664  0.79803182  1
  Se  Se207  1  0.07235532  0.41339955  0.30367882  1
  Se  Se208  1  0.08859641  0.42446389  0.81253390  1
  Se  Se209  1  0.08021100  0.74842211  0.30182848  1
  Se  Se210  1  0.08089126  0.74465356  0.79837754  1
  Se  Se211  1  0.41211601  0.08272158  0.30717436  1
  Se  Se212  1  0.42665122  0.09050808  0.80509470  1
  Se  Se213  1  0.42272195  0.42310348  0.30654570  1
  Se  Se214  1  0.42041853  0.41663022  0.79846802  1
  Se  Se215  1  0.41810047  0.75354570  0.31717630  1
  Se  Se216  1  0.41697015  0.74434094  0.80274759  1
  Se  Se217  1  0.76311688  0.09371561  0.30803746  1
  Se  Se218  1  0.76454211  0.09125340  0.80165491  1
  Se  Se219  1  0.74563355  0.41930545  0.30533511  1
  Se  Se220  1  0.75323300  0.42225834  0.80930485  1
  Se  Se221  1  0.74590294  0.74656792  0.30593497  1
  Se  Se222  1  0.74806834  0.74798807  0.80066724  1
  Se  Se223  1  0.24525674  0.08590553  0.20144341  1
  Se  Se224  1  0.24646588  0.08921942  0.69123160  1
  Se  Se225  1  0.23701210  0.42603239  0.19150986  1
  Se  Se226  1  0.25487165  0.41397516  0.69617193  1
  Se  Se227  1  0.24036638  0.75456675  0.18938315  1
  Se  Se228  1  0.25231080  0.75049673  0.69764219  1
  Se  Se229  1  0.57663653  0.08931851  0.19116387  1
  Se  Se230  1  0.58435878  0.08939860  0.68757445  1
  Se  Se231  1  0.58740129  0.41584533  0.19768363  1
  Se  Se232  1  0.57615489  0.42667631  0.68272151  1
  Se  Se233  1  0.57322587  0.75435927  0.20084798  1
  Se  Se234  1  0.59014047  0.74382469  0.69460642  1
  Se  Se235  1  0.90661635  0.09594477  0.19265413  1
  Se  Se236  1  0.92500352  0.07739778  0.69287668  1
  Se  Se237  1  0.91450739  0.42094029  0.20324800  1
  Se  Se238  1  0.90535951  0.42330301  0.68956542  1
  Se  Se239  1  0.91575715  0.74695493  0.19625037  1
  Se  Se240  1  0.91697535  0.74394342  0.69359832  1
  Se  Se241  1  0.08173791  0.25135197  0.19637142  1
  Se  Se242  1  0.08780113  0.24388650  0.68462059  1
  Se  Se243  1  0.07614175  0.58907199  0.20379274  1
  Se  Se244  1  0.07967319  0.57731108  0.69481655  1
  Se  Se245  1  0.08367627  0.91218739  0.18791302  1
  Se  Se246  1  0.07819905  0.91295270  0.69793361  1
  Se  Se247  1  0.42424103  0.24318548  0.18776940  1
  Se  Se248  1  0.41535724  0.25513753  0.69246153  1
  Se  Se249  1  0.42125495  0.57795975  0.19030267  1
  Se  Se250  1  0.41624237  0.58836964  0.69195329  1
  Se  Se251  1  0.40556690  0.92134314  0.20477553  1
  Se  Se252  1  0.43014152  0.91143038  0.69427035  1
  Se  Se253  1  0.74987028  0.25013170  0.20797817  1
  Se  Se254  1  0.76537220  0.24080727  0.68763071  1
  Se  Se255  1  0.74570323  0.58792764  0.19867101  1
  Se  Se256  1  0.74469099  0.58853589  0.69571989  1
  Se  Se257  1  0.75281837  0.91340098  0.19000433  1
  Se  Se258  1  0.75597426  0.90988583  0.68337514  1
