# generated using pymatgen
data_In86Cu29Se144
_symmetry_space_group_name_H-M   'P 1'
_cell_length_a   17.57396903
_cell_length_b   17.57332060
_cell_length_c   23.43189513
_cell_angle_alpha   89.98930419
_cell_angle_beta   90.00940475
_cell_angle_gamma   90.01264393
_symmetry_Int_Tables_number   1
_chemical_formula_structural   In86Cu29Se144
_chemical_formula_sum   'In86 Cu29 Se144'
_cell_volume   7236.54187920
_cell_formula_units_Z   1
loop_
 _symmetry_equiv_pos_site_id
 _symmetry_equiv_pos_as_xyz
  1  'x, y, z'
loop_
 _atom_site_type_symbol
 _atom_site_label
 _atom_site_symmetry_multiplicity
 _atom_site_fract_x
 _atom_site_fract_y
 _atom_site_fract_z
 _atom_site_occupancy
  In  In0  1  -0.00124478  0.16488561  0.12623176  1
  In  In1  1  0.00109428  0.16823481  0.62429794  1
  In  In2  1  -0.01150654  0.50821489  0.13363365  1
  In  In3  1  -0.00240450  0.48810383  0.62102393  1
  In  In4  1  0.00415251  0.83437579  0.12572568  1
  In  In5  1  0.00665408  0.83815406  0.62882804  1
  In  In6  1  0.31612049  0.15518127  0.11440774  1
  In  In7  1  0.32943589  0.17927995  0.62369760  1
  In  In8  1  0.34164027  0.50327087  0.12972385  1
  In  In9  1  0.33599165  0.49593654  0.61159465  1
  In  In10  1  0.33284262  0.83550116  0.12684936  1
  In  In11  1  0.33883136  0.82495746  0.62432056  1
  In  In12  1  0.67548882  0.17221753  0.11291793  1
  In  In13  1  0.68457882  0.15944339  0.62916969  1
  In  In14  1  0.67587954  0.48772359  0.13375851  1
  In  In15  1  0.65556264  0.50083076  0.62252243  1
  In  In16  1  0.65722604  0.83007886  0.11674535  1
  In  In17  1  0.65657718  0.85175005  0.62319149  1
  In  In18  1  0.16797608  0.00155698  0.37060854  1
  In  In19  1  0.15458016  0.01424891  0.88381328  1
  In  In20  1  0.15587964  0.34143656  0.37947661  1
  In  In21  1  0.15248002  0.33379560  0.87568562  1
  In  In22  1  0.15550307  0.65303194  0.36715847  1
  In  In23  1  0.17429425  0.67020278  0.87896097  1
  In  In24  1  0.48593980  0.00108391  0.37296466  1
  In  In25  1  0.50531713  0.00715496  0.88714424  1
  In  In26  1  0.51622190  0.33315544  0.37369370  1
  In  In27  1  0.51015400  0.31032101  0.87510707  1
  In  In28  1  0.50092642  0.66734749  0.37108957  1
  In  In29  1  0.50743307  0.67036342  0.87750561  1
  In  In30  1  0.84473575  -0.00294584  0.37134471  1
  In  In31  1  0.83680793  -0.00224575  0.88744532  1
  In  In32  1  0.82753091  0.32252871  0.36903487  1
  In  In33  1  0.83363133  0.33103049  0.87784458  1
  In  In34  1  0.83784512  0.67297151  0.36352729  1
  In  In35  1  0.82967882  0.67207795  0.88766063  1
  In  In36  1  -0.00224002  0.16542233  0.37296638  1
  In  In37  1  -0.00137082  0.16842185  0.87823461  1
  In  In38  1  0.01190096  0.50826224  0.36991897  1
  In  In39  1  0.00135624  0.48071585  0.87243518  1
  In  In40  1  -0.00235437  0.83275527  0.36437207  1
  In  In41  1  -0.01132148  0.84738211  0.88748542  1
  In  In42  1  0.32847050  0.14935707  0.37141733  1
  In  In43  1  0.34050113  0.16262737  0.88862400  1
  In  In44  1  0.32370330  0.50835478  0.37815525  1
  In  In45  1  0.32493584  0.50271595  0.87185532  1
  In  In46  1  0.34122100  0.83937985  0.36764539  1
  In  In47  1  0.33735358  0.82946513  0.88486764  1
  In  In48  1  0.66568979  0.17840792  0.37225820  1
  In  In49  1  0.65968750  0.17816074  0.88482696  1
  In  In50  1  0.66365157  0.49582503  0.37019385  1
  In  In51  1  0.68066587  0.50433831  0.87496878  1
  In  In52  1  0.67215505  0.82238109  0.36999399  1
  In  In53  1  0.65684357  0.85146718  0.89924236  1
  In  In54  1  0.16684440  -0.00068665  0.12824088  1
  In  In55  1  0.14778454  0.00182439  0.63035151  1
  In  In56  1  0.15937959  0.31223233  0.12079788  1
  In  In57  1  0.16449297  0.32829311  0.61748810  1
  In  In58  1  0.15758443  0.67547435  0.13422716  1
  In  In59  1  0.17503105  0.66709113  0.61839740  1
  In  In60  1  0.49482382  -0.01141143  0.11609076  1
  In  In61  1  0.51278296  -0.00780282  0.62373655  1
  In  In62  1  0.50656945  0.33728111  0.12380625  1
  In  In63  1  0.49475504  0.33990970  0.62523098  1
  In  In64  1  0.49102001  0.67704158  0.13491969  1
  In  In65  1  0.50449748  0.66869863  0.61446892  1
  In  In66  1  0.83600823  0.01565834  0.10943214  1
  In  In67  1  0.82536494  0.01865920  0.62807144  1
  In  In68  1  0.83475034  0.33327059  0.12441568  1
  In  In69  1  0.84990805  0.32522507  0.63276794  1
  In  In70  1  0.83325518  0.66413031  0.12688602  1
  In  In71  1  0.83335050  0.66280102  0.62093672  1
  In  In72  1  0.16327615  0.49675150  -0.00315164  1
  In  In73  1  0.33215838  0.33383049  0.24815190  1
  In  In74  1  0.83204292  0.83606427  0.49107913  1
  In  In75  1  0.33135345  0.66564369  0.75384847  1
  In  In76  1  0.50083490  0.49991370  0.00796528  1
  In  In77  1  -0.00051073  0.66331893  0.74542943  1
  In  In78  1  0.66516491  0.00853283  0.76206837  1
  In  In79  1  0.49889467  0.16681386  0.50043189  1
  In  In80  1  0.33220889  0.33371052  0.75022219  1
  In  In81  1  0.66698438  0.00048251  0.23801942  1
  In  In82  1  0.83668216  0.49662026  0.49627465  1
  In  In83  1  0.33540884  0.00155303  0.76035675  1
  In  In84  1  0.16999704  0.83204297  0.49642285  1
  In  In85  1  0.67066764  0.67225928  0.74475928  1
  Cu  Cu86  1  0.33212975  0.33249958  0.49651292  1
  Cu  Cu87  1  0.50347015  0.50512425  0.25054479  1
  Cu  Cu88  1  0.17213188  0.83525467  0.24919936  1
  Cu  Cu89  1  0.66228558  0.66938406  0.49547735  1
  Cu  Cu90  1  0.83753788  0.83325854  0.24280672  1
  Cu  Cu91  1  0.83318288  0.16744018  0.24191952  1
  Cu  Cu92  1  0.84413316  0.17335976  0.75358356  1
  Cu  Cu93  1  -0.00621742  0.32962164  0.00100689  1
  Cu  Cu94  1  0.83881448  0.48933715  0.75521809  1
  Cu  Cu95  1  0.66649289  0.66576456  0.00545258  1
  Cu  Cu96  1  0.33076618  -0.00346770  0.00311199  1
  Cu  Cu97  1  -0.00099283  0.66693727  0.00904728  1
  Cu  Cu98  1  0.83143976  0.83725662  0.76338024  1
  Cu  Cu99  1  0.50025110  0.83331339  0.24519209  1
  Cu  Cu100  1  0.16179702  0.16894356  0.75177845  1
  Cu  Cu101  1  0.00946226  0.00320028  0.00445042  1
  Cu  Cu102  1  0.16408177  0.49735150  0.25214793  1
  Cu  Cu103  1  0.49831123  0.16743015  0.24853603  1
  Cu  Cu104  1  0.67120106  0.33300654  0.49834340  1
  Cu  Cu105  1  0.16130732  0.16228871  0.24837611  1
  Cu  Cu106  1  0.49991018  0.49432843  0.74449972  1
  Cu  Cu107  1  0.67157271  0.33865001  0.00159716  1
  Cu  Cu108  1  0.33828040  0.66604045  0.49452849  1
  Cu  Cu109  1  0.33218534  0.67141273  0.00685642  1
  Cu  Cu110  1  0.15614143  0.84048656  0.75752231  1
  Cu  Cu111  1  0.83417904  0.49463088  0.25126536  1
  Cu  Cu112  1  -0.00514931  0.00786665  0.50077763  1
  Cu  Cu113  1  0.32906357  -0.00273272  0.49665109  1
  Cu  Cu114  1  -0.00056132  0.32523020  0.49950341  1
  Se  Se115  1  0.08984671  0.08816219  0.05872336  1
  Se  Se116  1  0.08441391  0.08529226  0.55354444  1
  Se  Se117  1  0.07304012  0.41351199  0.06164150  1
  Se  Se118  1  0.08182876  0.41347605  0.54933825  1
  Se  Se119  1  0.08753178  0.75086950  0.05504311  1
  Se  Se120  1  0.07432867  0.74617814  0.55629609  1
  Se  Se121  1  0.41618316  0.08279002  0.05267282  1
  Se  Se122  1  0.40813092  0.07593264  0.56178812  1
  Se  Se123  1  0.40318958  0.40710588  0.05681168  1
  Se  Se124  1  0.42232978  0.41316638  0.54607498  1
  Se  Se125  1  0.41931248  0.75373099  0.05698117  1
  Se  Se126  1  0.41749792  0.75196550  0.54928929  1
  Se  Se127  1  0.73200236  0.07266055  0.04240470  1
  Se  Se128  1  0.73767198  0.07238256  0.55077388  1
  Se  Se129  1  0.75489465  0.42126014  0.05482740  1
  Se  Se130  1  0.75028657  0.41077131  0.56243005  1
  Se  Se131  1  0.75248968  0.74823900  0.05675161  1
  Se  Se132  1  0.74118923  0.74811584  0.55841051  1
  Se  Se133  1  0.24990330  0.25303008  0.04842161  1
  Se  Se134  1  0.24886886  0.24699969  0.54746851  1
  Se  Se135  1  0.25129133  0.58627211  0.06149946  1
  Se  Se136  1  0.25284115  0.58494099  0.54820883  1
  Se  Se137  1  0.24721403  0.91486665  0.05770590  1
  Se  Se138  1  0.25130733  0.92317876  0.56454867  1
  Se  Se139  1  0.58326628  0.25641180  0.05114857  1
  Se  Se140  1  0.59105715  0.25384858  0.56142791  1
  Se  Se141  1  0.58786784  0.58846557  0.06952217  1
  Se  Se142  1  0.58304785  0.58055378  0.54735698  1
  Se  Se143  1  0.58444404  0.91715999  0.04728792  1
  Se  Se144  1  0.57624026  0.91356730  0.54516339  1
  Se  Se145  1  0.91309280  0.24484347  0.05596783  1
  Se  Se146  1  0.91341089  0.24539672  0.55313575  1
  Se  Se147  1  0.91367264  0.57975923  0.05502315  1
  Se  Se148  1  0.92718151  0.59107859  0.55356554  1
  Se  Se149  1  0.92370949  0.91956120  0.05541507  1
  Se  Se150  1  0.91810062  0.92222840  0.56044623  1
  Se  Se151  1  0.08352882  0.24446260  0.44369276  1
  Se  Se152  1  0.08271700  0.24974888  0.94954380  1
  Se  Se153  1  0.08842157  0.57902696  0.44737272  1
  Se  Se154  1  0.07160537  0.58978979  0.93899288  1
  Se  Se155  1  0.07189754  0.92151479  0.44170109  1
  Se  Se156  1  0.08951465  0.91520159  0.95089867  1
  Se  Se157  1  0.41029850  0.25292928  0.43355566  1
  Se  Se158  1  0.42394269  0.25097024  0.95006318  1
  Se  Se159  1  0.42130605  0.58144361  0.44158540  1
  Se  Se160  1  0.40828740  0.58943712  0.94351500  1
  Se  Se161  1  0.41501166  0.91543058  0.44641324  1
  Se  Se162  1  0.41846585  0.91852610  0.94858321  1
  Se  Se163  1  0.75164196  0.24672772  0.44678340  1
  Se  Se164  1  0.75404402  0.25134857  0.95066950  1
  Se  Se165  1  0.74943841  0.59318745  0.43805922  1
  Se  Se166  1  0.74946143  0.58207243  0.95267787  1
  Se  Se167  1  0.73997721  0.92689983  0.43549083  1
  Se  Se168  1  0.77301637  0.89805642  0.95343537  1
  Se  Se169  1  0.24429340  0.08099570  0.44676761  1
  Se  Se170  1  0.24866007  0.08388886  0.95155847  1
  Se  Se171  1  0.24810181  0.41761456  0.44508137  1
  Se  Se172  1  0.25754945  0.40688915  0.94077080  1
  Se  Se173  1  0.25583993  0.74380747  0.43335444  1
  Se  Se174  1  0.24754254  0.75221391  0.95202978  1
  Se  Se175  1  0.58507263  0.08053909  0.43569752  1
  Se  Se176  1  0.60933803  0.06935756  0.95092308  1
  Se  Se177  1  0.58789011  0.41769893  0.44706735  1
  Se  Se178  1  0.58844144  0.41730858  0.94023683  1
  Se  Se179  1  0.58217175  0.75366212  0.44089130  1
  Se  Se180  1  0.57897234  0.74731327  0.95358669  1
  Se  Se181  1  0.91123399  0.08604005  0.44418469  1
  Se  Se182  1  0.92227940  0.08499947  0.95095863  1
  Se  Se183  1  0.92381182  0.40699263  0.43525102  1
  Se  Se184  1  0.91506705  0.41768390  0.94767810  1
  Se  Se185  1  0.92700502  0.74256249  0.44036766  1
  Se  Se186  1  0.91810511  0.75097018  0.95317522  1
  Se  Se187  1  0.24187643  0.24478181  0.30942714  1
  Se  Se188  1  0.24851434  0.24023825  0.81312476  1
  Se  Se189  1  0.25142586  0.58287534  0.29928690  1
  Se  Se190  1  0.23106203  0.57331991  0.80139640  1
  Se  Se191  1  0.25322003  0.92109382  0.30272758  1
  Se  Se192  1  0.24223480  0.91168369  0.81770099  1
  Se  Se193  1  0.58461884  0.25092487  0.29713686  1
  Se  Se194  1  0.59406581  0.24637843  0.80034479  1
  Se  Se195  1  0.58928210  0.58752542  0.30290144  1
  Se  Se196  1  0.57829032  0.57783486  0.80422361  1
  Se  Se197  1  0.58020501  0.91518983  0.30593012  1
  Se  Se198  1  0.57537106  0.90987843  0.81370469  1
  Se  Se199  1  0.91614341  0.24651431  0.30073100  1
  Se  Se200  1  0.92488516  0.25825758  0.80783933  1
  Se  Se201  1  0.91858753  0.58070917  0.30216633  1
  Se  Se202  1  0.90844759  0.58244617  0.81277500  1
  Se  Se203  1  0.91839399  0.91880085  0.29609161  1
  Se  Se204  1  0.91638163  0.92387519  0.80962895  1
  Se  Se205  1  0.07860552  0.07926516  0.30375526  1
  Se  Se206  1  0.07924099  0.08507461  0.80536885  1
  Se  Se207  1  0.07909054  0.41165340  0.30090421  1
  Se  Se208  1  0.09167506  0.41970606  0.80005648  1
  Se  Se209  1  0.08679119  0.75084634  0.30124151  1
  Se  Se210  1  0.07948773  0.75316735  0.81449299  1
  Se  Se211  1  0.41454750  0.08127325  0.29704392  1
  Se  Se212  1  0.43007303  0.09405357  0.81141604  1
  Se  Se213  1  0.42250598  0.42166707  0.31077056  1
  Se  Se214  1  0.42491970  0.42181585  0.81252459  1
  Se  Se215  1  0.41810529  0.74958568  0.30070603  1
  Se  Se216  1  0.42493882  0.75752713  0.80730859  1
  Se  Se217  1  0.75307931  0.08735197  0.30468825  1
  Se  Se218  1  0.76329297  0.09485924  0.81601244  1
  Se  Se219  1  0.74783782  0.41242330  0.30370393  1
  Se  Se220  1  0.74870117  0.41211973  0.80628453  1
  Se  Se221  1  0.75144370  0.75061350  0.29442152  1
  Se  Se222  1  0.74515547  0.75897407  0.81762161  1
  Se  Se223  1  0.25135947  0.08316271  0.19778463  1
  Se  Se224  1  0.24574587  0.08845618  0.69369622  1
  Se  Se225  1  0.23850328  0.41894359  0.18635922  1
  Se  Se226  1  0.24825782  0.42206995  0.68561101  1
  Se  Se227  1  0.25471784  0.74919769  0.19737608  1
  Se  Se228  1  0.23693627  0.76178213  0.69662563  1
  Se  Se229  1  0.57555936  0.09198437  0.18191935  1
  Se  Se230  1  0.57732010  0.09078314  0.69311603  1
  Se  Se231  1  0.58125730  0.41416978  0.19981273  1
  Se  Se232  1  0.58650238  0.41227494  0.69456097  1
  Se  Se233  1  0.58972779  0.75159124  0.19689103  1
  Se  Se234  1  0.57325047  0.75979022  0.69098528  1
  Se  Se235  1  0.91299782  0.07854476  0.19206320  1
  Se  Se236  1  0.91893122  0.08609811  0.69617989  1
  Se  Se237  1  0.91729256  0.41071077  0.19792823  1
  Se  Se238  1  0.92690709  0.41425379  0.70062439  1
  Se  Se239  1  0.92193802  0.74658534  0.19297900  1
  Se  Se240  1  0.90185887  0.75948902  0.69357166  1
  Se  Se241  1  0.07796962  0.24858590  0.19912345  1
  Se  Se242  1  0.08569941  0.25213616  0.69251762  1
  Se  Se243  1  0.08121350  0.58353883  0.19942372  1
  Se  Se244  1  0.09098597  0.57804063  0.68507872  1
  Se  Se245  1  0.08432624  0.91667195  0.19762076  1
  Se  Se246  1  0.07227071  0.92223776  0.70498951  1
  Se  Se247  1  0.41656707  0.24364754  0.18542346  1
  Se  Se248  1  0.42625722  0.24071977  0.69554936  1
  Se  Se249  1  0.41402071  0.58625229  0.20214794  1
  Se  Se250  1  0.42137258  0.57912859  0.68732227  1
  Se  Se251  1  0.41699708  0.92013678  0.19540925  1
  Se  Se252  1  0.42044662  0.91236825  0.69431121  1
  Se  Se253  1  0.74659686  0.24952881  0.19112647  1
  Se  Se254  1  0.75608022  0.24995170  0.69818300  1
  Se  Se255  1  0.75225590  0.58091639  0.19832621  1
  Se  Se256  1  0.76094144  0.57022479  0.69262006  1
  Se  Se257  1  0.75951675  0.91238073  0.18027713  1
  Se  Se258  1  0.75300317  0.91511214  0.69767677  1
