# generated using pymatgen
data_In86Cu29Se144
_symmetry_space_group_name_H-M   'P 1'
_cell_length_a   17.58616862
_cell_length_b   17.58733211
_cell_length_c   23.44322544
_cell_angle_alpha   89.99249953
_cell_angle_beta   90.00670863
_cell_angle_gamma   89.98305307
_symmetry_Int_Tables_number   1
_chemical_formula_structural   In86Cu29Se144
_chemical_formula_sum   'In86 Cu29 Se144'
_cell_volume   7250.84357017
_cell_formula_units_Z   1
loop_
 _symmetry_equiv_pos_site_id
 _symmetry_equiv_pos_as_xyz
  1  'x, y, z'
loop_
 _atom_site_type_symbol
 _atom_site_label
 _atom_site_symmetry_multiplicity
 _atom_site_fract_x
 _atom_site_fract_y
 _atom_site_fract_z
 _atom_site_occupancy
  In  In0  1  -0.00065299  0.17002079  0.12007189  1
  In  In1  1  0.01129121  0.17042971  0.62939316  1
  In  In2  1  -0.02025529  0.49617498  0.12983460  1
  In  In3  1  -0.01394640  0.49171258  0.62224623  1
  In  In4  1  0.00608060  0.84222935  0.11818511  1
  In  In5  1  -0.00716706  0.83270722  0.62983074  1
  In  In6  1  0.33904746  0.17878588  0.11409516  1
  In  In7  1  0.33933559  0.16511512  0.63766271  1
  In  In8  1  0.33955829  0.49423147  0.12226515  1
  In  In9  1  0.34304406  0.49693990  0.63861949  1
  In  In10  1  0.32912159  0.82105631  0.10939200  1
  In  In11  1  0.33856460  0.83238763  0.64211518  1
  In  In12  1  0.65683217  0.15325105  0.11847726  1
  In  In13  1  0.65380979  0.17988107  0.63714358  1
  In  In14  1  0.67884641  0.50885420  0.12110987  1
  In  In15  1  0.66929147  0.48481479  0.62333589  1
  In  In16  1  0.66886752  0.83609361  0.12195317  1
  In  In17  1  0.67236648  0.85156164  0.63257029  1
  In  In18  1  0.16093193  0.01304443  0.37010977  1
  In  In19  1  0.17425107  -0.00714183  0.88425826  1
  In  In20  1  0.17195089  0.33318818  0.36741491  1
  In  In21  1  0.15825249  0.32011249  0.86140285  1
  In  In22  1  0.17323036  0.65336074  0.36617087  1
  In  In23  1  0.18371197  0.67255033  0.88389388  1
  In  In24  1  0.50778496  0.00172519  0.37320240  1
  In  In25  1  0.50238095  0.00195009  0.87797353  1
  In  In26  1  0.48925415  0.33438675  0.37751113  1
  In  In27  1  0.50042228  0.33254017  0.87659399  1
  In  In28  1  0.50334160  0.65972104  0.35874932  1
  In  In29  1  0.47753983  0.67605387  0.89705682  1
  In  In30  1  0.82886801  -0.00402611  0.35247429  1
  In  In31  1  0.83194531  0.00189006  0.88037225  1
  In  In32  1  0.84395078  0.32987641  0.37513084  1
  In  In33  1  0.82759918  0.33281558  0.87759224  1
  In  In34  1  0.81920414  0.65991597  0.36213446  1
  In  In35  1  0.82848572  0.66897327  0.88629032  1
  In  In36  1  -0.00231987  0.16452124  0.36121007  1
  In  In37  1  -0.00681572  0.17226072  0.88220047  1
  In  In38  1  0.00316293  0.48178986  0.36993960  1
  In  In39  1  -0.00251887  0.48747283  0.87748687  1
  In  In40  1  -0.02063858  0.83211960  0.36048898  1
  In  In41  1  -0.00200949  0.83730456  0.88783059  1
  In  In42  1  0.33630889  0.17562152  0.37378125  1
  In  In43  1  0.33250823  0.16776684  0.87393400  1
  In  In44  1  0.33493557  0.49699812  0.36377814  1
  In  In45  1  0.34121687  0.50595312  0.87295728  1
  In  In46  1  0.34882070  0.82940953  0.36951935  1
  In  In47  1  0.33355214  0.83704301  0.88182629  1
  In  In48  1  0.66762423  0.16030026  0.37453118  1
  In  In49  1  0.66928963  0.16629096  0.87732987  1
  In  In50  1  0.66236657  0.51059135  0.37047004  1
  In  In51  1  0.67037311  0.49097147  0.88409468  1
  In  In52  1  0.67179995  0.83562369  0.35724385  1
  In  In53  1  0.66364266  0.83582842  0.88150844  1
  In  In54  1  0.15665836  -0.00204977  0.11544962  1
  In  In55  1  0.17162330  0.01578570  0.63465745  1
  In  In56  1  0.17194657  0.32749208  0.12470548  1
  In  In57  1  0.17390790  0.32044728  0.64818056  1
  In  In58  1  0.17233463  0.67859597  0.11972962  1
  In  In59  1  0.17447274  0.67419898  0.63041252  1
  In  In60  1  0.51040312  0.00215076  0.11693085  1
  In  In61  1  0.48942748  0.01304190  0.63952672  1
  In  In62  1  0.49130959  0.32501075  0.11677249  1
  In  In63  1  0.50946325  0.32730935  0.63256957  1
  In  In64  1  0.50099092  0.66687611  0.11690712  1
  In  In65  1  0.49652188  0.65726815  0.63193709  1
  In  In66  1  0.82925100  -0.00046802  0.12306139  1
  In  In67  1  0.81621625  -0.00818361  0.63297801  1
  In  In68  1  0.84308169  0.34149002  0.12113954  1
  In  In69  1  0.81986397  0.34480551  0.63719408  1
  In  In70  1  0.82434053  0.65993048  0.12228960  1
  In  In71  1  0.83765527  0.66019416  0.62645456  1
  In  In72  1  0.16371696  0.83413347  0.50507977  1
  In  In73  1  0.50334801  0.83022773  0.49829393  1
  In  In74  1  -0.00053231  0.00462607  0.75704177  1
  In  In75  1  0.67049428  0.33517984  0.24837439  1
  In  In76  1  0.00690764  0.67034864  0.23717672  1
  In  In77  1  0.33045300  -0.00472870  0.23413763  1
  In  In78  1  0.83213145  0.16968829  0.49991861  1
  In  In79  1  0.17105460  0.17212250  0.51028401  1
  In  In80  1  0.50220525  0.49366143  0.50192962  1
  In  In81  1  0.82086925  0.83344309  0.49043623  1
  In  In82  1  0.65644670  0.66815287  0.76176752  1
  In  In83  1  0.00171413  0.66470760  0.74702786  1
  In  In84  1  0.16667001  0.49931530  -0.00002399  1
  In  In85  1  0.16933397  0.49037907  0.49892018  1
  Cu  Cu86  1  -0.01095472  0.65391729  0.49983452  1
  Cu  Cu87  1  0.16714888  0.50359429  0.75931945  1
  Cu  Cu88  1  0.49421445  0.16710001  0.24135319  1
  Cu  Cu89  1  0.33306626  0.66352619  0.49773198  1
  Cu  Cu90  1  0.00290615  0.33291021  0.49859519  1
  Cu  Cu91  1  0.50406630  0.16721184  0.75805258  1
  Cu  Cu92  1  0.17714067  0.49543259  0.24470873  1
  Cu  Cu93  1  0.65622640  0.01016047  0.49976937  1
  Cu  Cu94  1  0.83417593  0.16840349  0.75949714  1
  Cu  Cu95  1  0.49799588  0.83582803  0.76315724  1
  Cu  Cu96  1  0.66540873  0.32749031  0.00336373  1
  Cu  Cu97  1  -0.00468135  0.33342219  -0.00282281  1
  Cu  Cu98  1  0.66552238  0.66391862  0.00116996  1
  Cu  Cu99  1  0.67121220  -0.00149287  -0.00258091  1
  Cu  Cu100  1  -0.00286182  0.00724286  0.00097034  1
  Cu  Cu101  1  0.33860611  0.00963560  0.51244816  1
  Cu  Cu102  1  0.32989194  0.33295622  -0.00750946  1
  Cu  Cu103  1  0.17195478  0.83174841  0.75985885  1
  Cu  Cu104  1  0.67074417  0.66707375  0.49342756  1
  Cu  Cu105  1  0.50321015  0.82255149  0.24163199  1
  Cu  Cu106  1  0.33919253  0.00376049  0.00063842  1
  Cu  Cu107  1  0.83403588  0.16481926  0.24215749  1
  Cu  Cu108  1  0.49989687  0.50315591  0.75801008  1
  Cu  Cu109  1  0.17413198  0.83665032  0.23954530  1
  Cu  Cu110  1  -0.00892069  -0.00498213  0.49149576  1
  Cu  Cu111  1  0.50269014  0.50190088  0.24298770  1
  Cu  Cu112  1  0.16086015  0.16815933  0.24479342  1
  Cu  Cu113  1  0.82983864  0.49755203  0.75507651  1
  Cu  Cu114  1  -0.00249721  0.66673404  0.00623422  1
  Se  Se115  1  0.08537585  0.09190945  0.04860291  1
  Se  Se116  1  0.07334628  0.06949995  0.55537517  1
  Se  Se117  1  0.07301616  0.41324695  0.06075311  1
  Se  Se118  1  0.08481800  0.40320906  0.56488452  1
  Se  Se119  1  0.08501346  0.75286379  0.05098620  1
  Se  Se120  1  0.06867511  0.73633529  0.55927862  1
  Se  Se121  1  0.42254046  0.08708471  0.05340355  1
  Se  Se122  1  0.42239318  0.09329375  0.56140236  1
  Se  Se123  1  0.41410557  0.41332681  0.04755230  1
  Se  Se124  1  0.41139676  0.41039916  0.56350409  1
  Se  Se125  1  0.42514760  0.75201822  0.04560283  1
  Se  Se126  1  0.40848095  0.74444649  0.56052067  1
  Se  Se127  1  0.75211646  0.08510588  0.05042847  1
  Se  Se128  1  0.74191029  0.08078640  0.56151443  1
  Se  Se129  1  0.74930122  0.41335408  0.05403756  1
  Se  Se130  1  0.76008973  0.41821422  0.55425727  1
  Se  Se131  1  0.75010123  0.74877225  0.05310974  1
  Se  Se132  1  0.73964043  0.74678874  0.56183183  1
  Se  Se133  1  0.24529529  0.25155993  0.04664571  1
  Se  Se134  1  0.26105137  0.26219361  0.56653002  1
  Se  Se135  1  0.25880476  0.58992270  0.05492252  1
  Se  Se136  1  0.25692789  0.58519189  0.56115597  1
  Se  Se137  1  0.25229790  0.92223312  0.05236801  1
  Se  Se138  1  0.25720025  0.92175983  0.56655910  1
  Se  Se139  1  0.57849259  0.24270210  0.05146998  1
  Se  Se140  1  0.59524689  0.26162740  0.55795555  1
  Se  Se141  1  0.58446408  0.57633138  0.05254353  1
  Se  Se142  1  0.59143518  0.59304943  0.55826140  1
  Se  Se143  1  0.58529726  0.91384339  0.04796208  1
  Se  Se144  1  0.58170571  0.92672076  0.56146036  1
  Se  Se145  1  0.91301806  0.24992843  0.05086275  1
  Se  Se146  1  0.92491667  0.25386972  0.56154986  1
  Se  Se147  1  0.91343944  0.57998515  0.05399058  1
  Se  Se148  1  0.90514934  0.57413015  0.55264054  1
  Se  Se149  1  0.91555328  0.92019714  0.05249613  1
  Se  Se150  1  0.91389235  0.91937820  0.55585623  1
  Se  Se151  1  0.07960050  0.24971082  0.43805504  1
  Se  Se152  1  0.08454788  0.25554510  0.94503246  1
  Se  Se153  1  0.07941410  0.58557793  0.44042375  1
  Se  Se154  1  0.07463472  0.59088440  0.93951805  1
  Se  Se155  1  0.07681163  0.91602184  0.43486305  1
  Se  Se156  1  0.08311501  0.91972239  0.95277610  1
  Se  Se157  1  0.41660138  0.24696805  0.44693960  1
  Se  Se158  1  0.41755631  0.24795595  0.94483031  1
  Se  Se159  1  0.41605569  0.58798853  0.43753589  1
  Se  Se160  1  0.41260087  0.57035661  0.95558636  1
  Se  Se161  1  0.40746910  0.92634438  0.44593744  1
  Se  Se162  1  0.42137044  0.91902933  0.94821592  1
  Se  Se163  1  0.74187587  0.25854337  0.44039887  1
  Se  Se164  1  0.75107496  0.24751293  0.94864208  1
  Se  Se165  1  0.75230130  0.58178339  0.44197403  1
  Se  Se166  1  0.75105585  0.57878440  0.95091169  1
  Se  Se167  1  0.73580568  0.93353405  0.43520994  1
  Se  Se168  1  0.75572700  0.91159655  0.94814515  1
  Se  Se169  1  0.25379888  0.07759789  0.44668766  1
  Se  Se170  1  0.25396492  0.08540534  0.94759058  1
  Se  Se171  1  0.26452938  0.40656999  0.43969341  1
  Se  Se172  1  0.24685646  0.41103102  0.93340754  1
  Se  Se173  1  0.25361565  0.74639864  0.43917259  1
  Se  Se174  1  0.24929154  0.76063107  0.95438421  1
  Se  Se175  1  0.57446173  0.09178061  0.44528713  1
  Se  Se176  1  0.58649760  0.08378384  0.94687512  1
  Se  Se177  1  0.59310940  0.41125024  0.43850117  1
  Se  Se178  1  0.58163324  0.41198240  0.95042747  1
  Se  Se179  1  0.59068483  0.74423608  0.43245374  1
  Se  Se180  1  0.58389326  0.75012990  0.94977195  1
  Se  Se181  1  0.91393778  0.07684542  0.43273085  1
  Se  Se182  1  0.91073994  0.08791164  0.94895481  1
  Se  Se183  1  0.91932708  0.41640788  0.44680328  1
  Se  Se184  1  0.90945063  0.41850847  0.94813654  1
  Se  Se185  1  0.91759045  0.74018851  0.43840140  1
  Se  Se186  1  0.91395204  0.75142842  0.95227170  1
  Se  Se187  1  0.24916122  0.24373720  0.30084812  1
  Se  Se188  1  0.26316931  0.25743786  0.80208049  1
  Se  Se189  1  0.25890890  0.58452255  0.29394909  1
  Se  Se190  1  0.25056782  0.58864069  0.80827671  1
  Se  Se191  1  0.24755558  0.91292458  0.30970753  1
  Se  Se192  1  0.25389796  0.91927607  0.80836271  1
  Se  Se193  1  0.57436332  0.24455704  0.30599068  1
  Se  Se194  1  0.58811306  0.25197613  0.80848780  1
  Se  Se195  1  0.59213334  0.58504468  0.29056914  1
  Se  Se196  1  0.57153560  0.58144634  0.82496028  1
  Se  Se197  1  0.57331047  0.91334339  0.29967367  1
  Se  Se198  1  0.58677146  0.91776208  0.80889375  1
  Se  Se199  1  0.91358881  0.25034466  0.29745545  1
  Se  Se200  1  0.91695385  0.25382044  0.80881518  1
  Se  Se201  1  0.92666766  0.58149082  0.30644823  1
  Se  Se202  1  0.90999453  0.58162541  0.81094206  1
  Se  Se203  1  0.92267424  0.92416575  0.28865447  1
  Se  Se204  1  0.91343175  0.90755398  0.81079154  1
  Se  Se205  1  0.07930514  0.07900582  0.29374149  1
  Se  Se206  1  0.08898532  0.08742549  0.81869286  1
  Se  Se207  1  0.09096655  0.41402696  0.29718664  1
  Se  Se208  1  0.07780970  0.41797893  0.80203549  1
  Se  Se209  1  0.09447264  0.75796433  0.30630680  1
  Se  Se210  1  0.08476250  0.75272687  0.81396382  1
  Se  Se211  1  0.41560214  0.08247874  0.30258276  1
  Se  Se212  1  0.41904163  0.08227671  0.80759970  1
  Se  Se213  1  0.42413725  0.41643928  0.29934149  1
  Se  Se214  1  0.41699641  0.41500291  0.80620316  1
  Se  Se215  1  0.41554520  0.74407047  0.29552483  1
  Se  Se216  1  0.41536341  0.74924305  0.81278852  1
  Se  Se217  1  0.74345412  0.08964829  0.29606105  1
  Se  Se218  1  0.75171688  0.08078652  0.80777088  1
  Se  Se219  1  0.75815100  0.42196287  0.31068330  1
  Se  Se220  1  0.74475927  0.41519181  0.80628214  1
  Se  Se221  1  0.76590286  0.76196028  0.29586188  1
  Se  Se222  1  0.75681608  0.75510592  0.81131303  1
  Se  Se223  1  0.24264891  0.09301401  0.18195624  1
  Se  Se224  1  0.24942971  0.09070563  0.70601341  1
  Se  Se225  1  0.25786259  0.41027417  0.19119804  1
  Se  Se226  1  0.25215622  0.42053518  0.70464194  1
  Se  Se227  1  0.25763606  0.75037601  0.19261060  1
  Se  Se228  1  0.25313930  0.74553076  0.70565151  1
  Se  Se229  1  0.57983071  0.08001753  0.19641197  1
  Se  Se230  1  0.58730758  0.08228411  0.70379682  1
  Se  Se231  1  0.57906287  0.41639384  0.18325970  1
  Se  Se232  1  0.58094409  0.42496660  0.69894286  1
  Se  Se233  1  0.58821790  0.74403524  0.18756132  1
  Se  Se234  1  0.57392679  0.76071680  0.69305207  1
  Se  Se235  1  0.91838913  0.08398678  0.18850586  1
  Se  Se236  1  0.90702618  0.08966607  0.69078893  1
  Se  Se237  1  0.91403304  0.41024241  0.20292620  1
  Se  Se238  1  0.91748144  0.41678429  0.70208789  1
  Se  Se239  1  0.91289564  0.75745676  0.18260267  1
  Se  Se240  1  0.90114197  0.75818882  0.69836639  1
  Se  Se241  1  0.07965567  0.25336419  0.19216090  1
  Se  Se242  1  0.07860299  0.24415847  0.70810071  1
  Se  Se243  1  0.09656880  0.57315602  0.18187128  1
  Se  Se244  1  0.09042767  0.57174041  0.68713793  1
  Se  Se245  1  0.08608304  0.91914971  0.19325138  1
  Se  Se246  1  0.09130746  0.90808363  0.69485459  1
  Se  Se247  1  0.41026222  0.25359448  0.19411272  1
  Se  Se248  1  0.42281578  0.25228228  0.70260975  1
  Se  Se249  1  0.41864369  0.58397671  0.18880197  1
  Se  Se250  1  0.41505851  0.58928029  0.70718605  1
  Se  Se251  1  0.42420094  0.90427020  0.18111140  1
  Se  Se252  1  0.41657947  0.92061892  0.70680490  1
  Se  Se253  1  0.75002675  0.24342087  0.18302863  1
  Se  Se254  1  0.75056118  0.24975451  0.70291878  1
  Se  Se255  1  0.76105420  0.57372320  0.19823063  1
  Se  Se256  1  0.74862476  0.58036910  0.69651789  1
  Se  Se257  1  0.73441387  0.93143103  0.19120402  1
  Se  Se258  1  0.75184249  0.91367397  0.71111157  1
