# generated using pymatgen
data_In86Cu29Se144
_symmetry_space_group_name_H-M   'P 1'
_cell_length_a   17.58493658
_cell_length_b   17.58219883
_cell_length_c   23.44047690
_cell_angle_alpha   89.98531550
_cell_angle_beta   89.99971305
_cell_angle_gamma   89.96575744
_symmetry_Int_Tables_number   1
_chemical_formula_structural   In86Cu29Se144
_chemical_formula_sum   'In86 Cu29 Se144'
_cell_volume   7247.36850943
_cell_formula_units_Z   1
loop_
 _symmetry_equiv_pos_site_id
 _symmetry_equiv_pos_as_xyz
  1  'x, y, z'
loop_
 _atom_site_type_symbol
 _atom_site_label
 _atom_site_symmetry_multiplicity
 _atom_site_fract_x
 _atom_site_fract_y
 _atom_site_fract_z
 _atom_site_occupancy
  In  In0  1  -0.00019326  0.16645261  0.13112548  1
  In  In1  1  -0.01063735  0.17895271  0.62246664  1
  In  In2  1  -0.00953999  0.51036167  0.13326694  1
  In  In3  1  0.01253768  0.50460888  0.62395951  1
  In  In4  1  0.01033861  0.82874728  0.13232996  1
  In  In5  1  -0.00440985  0.82639163  0.61559710  1
  In  In6  1  0.32857615  0.16073709  0.12139482  1
  In  In7  1  0.33192221  0.15805650  0.62389636  1
  In  In8  1  0.34690849  0.50652853  0.12453542  1
  In  In9  1  0.32732094  0.49611176  0.60736106  1
  In  In10  1  0.33571385  0.83120151  0.12632857  1
  In  In11  1  0.32655804  0.83634389  0.61492693  1
  In  In12  1  0.66661251  0.17101439  0.11823407  1
  In  In13  1  0.68262444  0.16985804  0.62615045  1
  In  In14  1  0.67044507  0.49449777  0.12851188  1
  In  In15  1  0.65863399  0.49722859  0.62267985  1
  In  In16  1  0.65391598  0.84465799  0.13482767  1
  In  In17  1  0.66831247  0.81770644  0.61649801  1
  In  In18  1  0.15664810  -0.01105726  0.36583595  1
  In  In19  1  0.16719881  -0.00822450  0.88787010  1
  In  In20  1  0.16625921  0.35384441  0.37413758  1
  In  In21  1  0.15238410  0.33392306  0.87936906  1
  In  In22  1  0.16873891  0.67164460  0.37564361  1
  In  In23  1  0.17332718  0.67448375  0.87523541  1
  In  In24  1  0.49795705  0.00150733  0.35758795  1
  In  In25  1  0.49624090  -0.00253680  0.88718179  1
  In  In26  1  0.50647591  0.34090670  0.37447934  1
  In  In27  1  0.51864418  0.32043940  0.89493702  1
  In  In28  1  0.49125274  0.65233595  0.36545201  1
  In  In29  1  0.50040193  0.65445213  0.89889186  1
  In  In30  1  0.83330435  0.00072531  0.36958490  1
  In  In31  1  0.84447200  0.00650423  0.88123883  1
  In  In32  1  0.82194950  0.32024516  0.37063537  1
  In  In33  1  0.82686178  0.33580971  0.88449481  1
  In  In34  1  0.84545012  0.67713512  0.36364928  1
  In  In35  1  0.83020102  0.65499574  0.87359973  1
  In  In36  1  -0.01096110  0.15865009  0.36665408  1
  In  In37  1  -0.00713057  0.17735371  0.89154263  1
  In  In38  1  0.00897643  0.51272981  0.36287904  1
  In  In39  1  -0.01084626  0.49503495  0.87189838  1
  In  In40  1  0.00208612  0.83424318  0.37258932  1
  In  In41  1  0.01241143  0.83166203  0.87913431  1
  In  In42  1  0.34503549  0.16849074  0.36692105  1
  In  In43  1  0.33207504  0.16432090  0.88633207  1
  In  In44  1  0.31573290  0.52199885  0.39757217  1
  In  In45  1  0.34906856  0.50924356  0.87986756  1
  In  In46  1  0.31957606  0.81771618  0.36368487  1
  In  In47  1  0.33266095  0.81781419  0.89606074  1
  In  In48  1  0.67609769  0.17920081  0.36453695  1
  In  In49  1  0.66783636  0.17305544  0.88695339  1
  In  In50  1  0.65552609  0.48598165  0.36888290  1
  In  In51  1  0.68152843  0.48493472  0.89766721  1
  In  In52  1  0.67504863  0.84291598  0.36188806  1
  In  In53  1  0.66561483  0.81468716  0.88194713  1
  In  In54  1  0.16822243  -0.00031678  0.13189310  1
  In  In55  1  0.17663428  -0.00498804  0.61830813  1
  In  In56  1  0.16680349  0.32055459  0.12656690  1
  In  In57  1  0.16281291  0.33865293  0.61772341  1
  In  In58  1  0.15951165  0.67815459  0.12968613  1
  In  In59  1  0.15289477  0.64972614  0.60778871  1
  In  In60  1  0.49859017  -0.00082796  0.12455948  1
  In  In61  1  0.49109571  0.00225942  0.62102364  1
  In  In62  1  0.52030761  0.34378926  0.10995484  1
  In  In63  1  0.50563201  0.35188653  0.62688825  1
  In  In64  1  0.49755774  0.66987071  0.13117344  1
  In  In65  1  0.50287153  0.65262931  0.62134370  1
  In  In66  1  0.82290542  0.01404304  0.13509170  1
  In  In67  1  0.84146337  0.00633882  0.61492794  1
  In  In68  1  0.82870075  0.33553611  0.12165212  1
  In  In69  1  0.82937635  0.32127629  0.61946232  1
  In  In70  1  0.84002024  0.65589768  0.13253479  1
  In  In71  1  0.83689371  0.67916895  0.61710502  1
  In  In72  1  0.33456279  0.33906586  0.74408936  1
  In  In73  1  0.00081875  0.00516501  0.74698937  1
  In  In74  1  -0.00648227  0.33642833  0.75520557  1
  In  In75  1  0.67338454  0.00028494  0.75602113  1
  In  In76  1  0.83091588  0.49537770  0.48899863  1
  In  In77  1  0.16831378  0.49896241  -0.00141259  1
  In  In78  1  0.33276202  -0.00193183  0.76530750  1
  In  In79  1  0.83282201  0.83630125  0.00884807  1
  In  In80  1  0.16388999  0.16864206  0.50233717  1
  In  In81  1  0.66475451  0.65701059  0.75008031  1
  In  In82  1  0.32975863  0.66203560  0.75113112  1
  In  In83  1  0.34032422  0.33603870  0.24750525  1
  In  In84  1  0.50724163  0.17560483  0.48504773  1
  In  In85  1  0.50036870  0.82760795  0.49370737  1
  Cu  Cu86  1  0.67472207  -0.00147682  0.49342052  1
  Cu  Cu87  1  0.66130176  0.66479148  0.01217439  1
  Cu  Cu88  1  0.82902782  0.49293350  0.25240756  1
  Cu  Cu89  1  0.50760875  0.49594863  0.75537361  1
  Cu  Cu90  1  -0.00112603  0.33113930  0.00633697  1
  Cu  Cu91  1  0.50261875  0.16779251  0.23987071  1
  Cu  Cu92  1  0.83361799  0.49739298  0.75109244  1
  Cu  Cu93  1  0.15991977  0.82210174  0.75145825  1
  Cu  Cu94  1  0.83897292  0.83468471  0.74074297  1
  Cu  Cu95  1  0.00174666  0.66922099  0.49045851  1
  Cu  Cu96  1  0.67281258  0.66957120  0.48892212  1
  Cu  Cu97  1  -0.00318142  0.33258933  0.49484586  1
  Cu  Cu98  1  0.51610311  0.17890597  0.75453370  1
  Cu  Cu99  1  0.66609926  0.00126707  0.00656327  1
  Cu  Cu100  1  -0.00376597  -0.00225128  0.49127874  1
  Cu  Cu101  1  0.33522566  0.32828119  0.00648340  1
  Cu  Cu102  1  0.32541736  -0.00530058  0.48669833  1
  Cu  Cu103  1  0.15989792  0.16825667  0.75920401  1
  Cu  Cu104  1  0.17082665  0.83456376  0.25123401  1
  Cu  Cu105  1  0.00345837  0.00449362  0.00850368  1
  Cu  Cu106  1  0.16985623  0.50755076  0.25056004  1
  Cu  Cu107  1  0.49335811  0.82989917  0.75834398  1
  Cu  Cu108  1  0.50051038  0.83313993  0.24792910  1
  Cu  Cu109  1  0.50096233  0.49869146  0.24750277  1
  Cu  Cu110  1  0.83120708  0.16903768  0.24524826  1
  Cu  Cu111  1  0.83802474  0.83346981  0.24603133  1
  Cu  Cu112  1  0.16372743  0.16631771  0.24879488  1
  Cu  Cu113  1  -0.00553759  0.66261093  0.00555389  1
  Cu  Cu114  1  0.32994126  -0.00350025  0.00831073  1
  Se  Se115  1  0.08717035  0.08592227  0.06244434  1
  Se  Se116  1  0.07104436  0.07527020  0.56052432  1
  Se  Se117  1  0.07889715  0.41524507  0.06450357  1
  Se  Se118  1  0.07760666  0.41611176  0.54919171  1
  Se  Se119  1  0.07799860  0.74978216  0.05310493  1
  Se  Se120  1  0.08422717  0.75211759  0.54672517  1
  Se  Se121  1  0.41750949  0.08287059  0.05399130  1
  Se  Se122  1  0.40813435  0.07754925  0.54466430  1
  Se  Se123  1  0.41569379  0.41801135  0.05345841  1
  Se  Se124  1  0.42693038  0.42050583  0.55166537  1
  Se  Se125  1  0.42360327  0.75378434  0.05862396  1
  Se  Se126  1  0.41242464  0.74008647  0.55686022  1
  Se  Se127  1  0.75431475  0.08416642  0.05313591  1
  Se  Se128  1  0.74993529  0.08459362  0.55090558  1
  Se  Se129  1  0.74664665  0.41775247  0.05267697  1
  Se  Se130  1  0.74322821  0.41049204  0.55363642  1
  Se  Se131  1  0.74437139  0.74801518  0.06989235  1
  Se  Se132  1  0.75533991  0.75276855  0.54230519  1
  Se  Se133  1  0.24646245  0.24558557  0.05262871  1
  Se  Se134  1  0.26272362  0.25699609  0.55775935  1
  Se  Se135  1  0.24834020  0.58805572  0.06429477  1
  Se  Se136  1  0.25604782  0.59080602  0.54447811  1
  Se  Se137  1  0.24575818  0.91426996  0.06096332  1
  Se  Se138  1  0.24374830  0.91273552  0.54232473  1
  Se  Se139  1  0.58821855  0.24876422  0.04394444  1
  Se  Se140  1  0.58297604  0.24911811  0.56382468  1
  Se  Se141  1  0.58068653  0.58086403  0.06506001  1
  Se  Se142  1  0.59562560  0.58978914  0.54999277  1
  Se  Se143  1  0.58206039  0.91536204  0.05424821  1
  Se  Se144  1  0.58976282  0.92372899  0.55583457  1
  Se  Se145  1  0.91792791  0.24688408  0.05942342  1
  Se  Se146  1  0.91220269  0.24811895  0.54473922  1
  Se  Se147  1  0.91061092  0.57752570  0.05387004  1
  Se  Se148  1  0.92148107  0.58657739  0.55142939  1
  Se  Se149  1  0.92138127  0.92500462  0.06926540  1
  Se  Se150  1  0.91549067  0.91490742  0.54973172  1
  Se  Se151  1  0.07878545  0.25223178  0.43491623  1
  Se  Se152  1  0.08803625  0.25061341  0.95597184  1
  Se  Se153  1  0.08507859  0.58204317  0.44193559  1
  Se  Se154  1  0.07288250  0.58648970  0.93988525  1
  Se  Se155  1  0.08484453  0.91537594  0.44478536  1
  Se  Se156  1  0.07940470  0.91431101  0.95553935  1
  Se  Se157  1  0.40345373  0.26476432  0.44014407  1
  Se  Se158  1  0.41860497  0.24375749  0.95320896  1
  Se  Se159  1  0.43331668  0.57667479  0.44856453  1
  Se  Se160  1  0.39526664  0.59540402  0.96052827  1
  Se  Se161  1  0.41379381  0.91881808  0.43061018  1
  Se  Se162  1  0.41454587  0.91342983  0.95369910  1
  Se  Se163  1  0.74226331  0.24925577  0.44637882  1
  Se  Se164  1  0.75126186  0.25294661  0.95512214  1
  Se  Se165  1  0.74868853  0.58878144  0.42704884  1
  Se  Se166  1  0.74988104  0.59295764  0.95332674  1
  Se  Se167  1  0.75401145  0.91287295  0.43998319  1
  Se  Se168  1  0.74321741  0.92148440  0.94066372  1
  Se  Se169  1  0.24979562  0.08576843  0.43267512  1
  Se  Se170  1  0.24792316  0.08045862  0.95166790  1
  Se  Se171  1  0.24846051  0.41330375  0.45184097  1
  Se  Se172  1  0.26029792  0.40683826  0.93925878  1
  Se  Se173  1  0.25259041  0.75107803  0.44585169  1
  Se  Se174  1  0.23339475  0.74919258  0.95688232  1
  Se  Se175  1  0.58968217  0.07278035  0.43211053  1
  Se  Se176  1  0.58361892  0.08234782  0.94860219  1
  Se  Se177  1  0.58825108  0.41134244  0.44863454  1
  Se  Se178  1  0.55840698  0.44275073  0.94697468  1
  Se  Se179  1  0.58988675  0.74681916  0.42836568  1
  Se  Se180  1  0.58187392  0.75080444  0.95752765  1
  Se  Se181  1  0.91244612  0.08397531  0.44309950  1
  Se  Se182  1  0.91587684  0.08547773  0.95682973  1
  Se  Se183  1  0.92528386  0.41259478  0.42834314  1
  Se  Se184  1  0.92098751  0.41502080  0.94811370  1
  Se  Se185  1  0.91579095  0.75351846  0.44235565  1
  Se  Se186  1  0.91660217  0.74561217  0.94241307  1
  Se  Se187  1  0.24269896  0.25024535  0.30814992  1
  Se  Se188  1  0.24708660  0.24846825  0.81166613  1
  Se  Se189  1  0.25319511  0.58355379  0.30894902  1
  Se  Se190  1  0.24316139  0.56925771  0.81151322  1
  Se  Se191  1  0.25641491  0.92227271  0.30073847  1
  Se  Se192  1  0.24213507  0.89878740  0.81491007  1
  Se  Se193  1  0.57380462  0.24927403  0.30318105  1
  Se  Se194  1  0.59445599  0.25814809  0.81204165  1
  Se  Se195  1  0.58807777  0.58119891  0.29990224  1
  Se  Se196  1  0.57916117  0.57902211  0.81905190  1
  Se  Se197  1  0.58725168  0.92097951  0.29369505  1
  Se  Se198  1  0.57969383  0.90646742  0.81465430  1
  Se  Se199  1  0.91479244  0.25174994  0.30049545  1
  Se  Se200  1  0.90826066  0.24311038  0.81292936  1
  Se  Se201  1  0.91568076  0.58313068  0.29559883  1
  Se  Se202  1  0.91599364  0.58373913  0.80120825  1
  Se  Se203  1  0.91865677  0.91626970  0.30328694  1
  Se  Se204  1  0.91308394  0.91023931  0.80778457  1
  Se  Se205  1  0.08096275  0.08201265  0.30127213  1
  Se  Se206  1  0.08370595  0.08779135  0.81963105  1
  Se  Se207  1  0.08443881  0.41890138  0.29631162  1
  Se  Se208  1  0.09271390  0.42761852  0.80371289  1
  Se  Se209  1  0.08584688  0.75113281  0.30402086  1
  Se  Se210  1  0.07703256  0.74153885  0.80564816  1
  Se  Se211  1  0.41442878  0.08711171  0.29153171  1
  Se  Se212  1  0.43087552  0.09644040  0.81122685  1
  Se  Se213  1  0.41572612  0.42998670  0.31243945  1
  Se  Se214  1  0.42550927  0.41450654  0.81321369  1
  Se  Se215  1  0.41851209  0.74809415  0.30038829  1
  Se  Se216  1  0.42035186  0.74605597  0.81854511  1
  Se  Se217  1  0.74951702  0.08372862  0.30038334  1
  Se  Se218  1  0.75985861  0.09226690  0.81386642  1
  Se  Se219  1  0.74427547  0.40777740  0.30149085  1
  Se  Se220  1  0.75236336  0.42314258  0.81219351  1
  Se  Se221  1  0.75127216  0.74942778  0.29678497  1
  Se  Se222  1  0.75857186  0.75615877  0.80285091  1
  Se  Se223  1  0.25274954  0.08649080  0.19872223  1
  Se  Se224  1  0.24002671  0.08624691  0.69891999  1
  Se  Se225  1  0.24548862  0.42484794  0.18779924  1
  Se  Se226  1  0.24091177  0.42900974  0.68789445  1
  Se  Se227  1  0.25231449  0.74957029  0.19785384  1
  Se  Se228  1  0.24611615  0.75393918  0.68817356  1
  Se  Se229  1  0.58665622  0.08472782  0.18845663  1
  Se  Se230  1  0.57770654  0.08334808  0.69218666  1
  Se  Se231  1  0.58245062  0.41149035  0.19666751  1
  Se  Se232  1  0.59392108  0.41560494  0.70223172  1
  Se  Se233  1  0.58690755  0.74633788  0.20079891  1
  Se  Se234  1  0.57274431  0.75457853  0.69331296  1
  Se  Se235  1  0.92025218  0.08165510  0.20160329  1
  Se  Se236  1  0.90535223  0.09643110  0.69440522  1
  Se  Se237  1  0.91288371  0.41457167  0.19445914  1
  Se  Se238  1  0.91027261  0.42219892  0.68498861  1
  Se  Se239  1  0.92079813  0.74687753  0.19650898  1
  Se  Se240  1  0.92218611  0.74728952  0.69215022  1
  Se  Se241  1  0.08064324  0.25393972  0.20066236  1
  Se  Se242  1  0.08882236  0.24675797  0.69332157  1
  Se  Se243  1  0.08293186  0.58773456  0.19752931  1
  Se  Se244  1  0.08592260  0.58953924  0.69377234  1
  Se  Se245  1  0.08380680  0.91857249  0.20149456  1
  Se  Se246  1  0.09173476  0.91151511  0.68963926  1
  Se  Se247  1  0.42536345  0.25229622  0.18011898  1
  Se  Se248  1  0.42582614  0.24065194  0.68978911  1
  Se  Se249  1  0.41395585  0.58618843  0.20225434  1
  Se  Se250  1  0.42266949  0.56971944  0.69351753  1
  Se  Se251  1  0.41690248  0.91788429  0.19522289  1
  Se  Se252  1  0.41691225  0.90880552  0.69458861  1
  Se  Se253  1  0.74692203  0.25100901  0.19194571  1
  Se  Se254  1  0.75138154  0.25515523  0.69813341  1
  Se  Se255  1  0.74887680  0.58005406  0.19935405  1
  Se  Se256  1  0.76043214  0.57874302  0.68502724  1
  Se  Se257  1  0.75022952  0.91808308  0.19912626  1
  Se  Se258  1  0.75277664  0.91083191  0.68377441  1
