# generated using pymatgen
data_In86Cu29Se144
_symmetry_space_group_name_H-M   'P 1'
_cell_length_a   17.57842993
_cell_length_b   17.57748089
_cell_length_c   23.43883056
_cell_angle_alpha   89.99204949
_cell_angle_beta   89.97285882
_cell_angle_gamma   90.03078334
_symmetry_Int_Tables_number   1
_chemical_formula_structural   In86Cu29Se144
_chemical_formula_sum   'In86 Cu29 Se144'
_cell_volume   7242.23379211
_cell_formula_units_Z   1
loop_
 _symmetry_equiv_pos_site_id
 _symmetry_equiv_pos_as_xyz
  1  'x, y, z'
loop_
 _atom_site_type_symbol
 _atom_site_label
 _atom_site_symmetry_multiplicity
 _atom_site_fract_x
 _atom_site_fract_y
 _atom_site_fract_z
 _atom_site_occupancy
  In  In0  1  0.00116130  0.17058410  0.12548180  1
  In  In1  1  0.00616788  0.16800990  0.63161076  1
  In  In2  1  0.00202364  0.49576459  0.12410606  1
  In  In3  1  -0.00420178  0.49712684  0.63932117  1
  In  In4  1  0.00776618  0.82296411  0.12852507  1
  In  In5  1  -0.01977365  0.83630969  0.62407331  1
  In  In6  1  0.34141608  0.17788013  0.11406121  1
  In  In7  1  0.33168955  0.16616914  0.62847296  1
  In  In8  1  0.32240322  0.50209474  0.12782479  1
  In  In9  1  0.34521715  0.50058750  0.62945087  1
  In  In10  1  0.31876454  0.83085412  0.12392997  1
  In  In11  1  0.32924932  0.83560517  0.63124701  1
  In  In12  1  0.66912637  0.16788383  0.12673382  1
  In  In13  1  0.65160897  0.17130338  0.62500250  1
  In  In14  1  0.67807375  0.48610672  0.13485406  1
  In  In15  1  0.66426911  0.50760127  0.61960538  1
  In  In16  1  0.66481748  0.83550040  0.13550685  1
  In  In17  1  0.68260380  0.83207999  0.62109038  1
  In  In18  1  0.15965487  0.01778289  0.36867734  1
  In  In19  1  0.17164974  -0.00831921  0.88268862  1
  In  In20  1  0.17239612  0.33159271  0.35680397  1
  In  In21  1  0.16115513  0.34855628  0.89665264  1
  In  In22  1  0.16527891  0.66231386  0.36329658  1
  In  In23  1  0.16374071  0.66536192  0.87593225  1
  In  In24  1  0.51528665  0.00234376  0.37496354  1
  In  In25  1  0.50674803  0.01300919  0.86716940  1
  In  In26  1  0.50333427  0.33350409  0.38218466  1
  In  In27  1  0.48198941  0.32101077  0.88112580  1
  In  In28  1  0.48834656  0.65259500  0.36674771  1
  In  In29  1  0.50263374  0.67932352  0.87152650  1
  In  In30  1  0.83400808  -0.00025677  0.37122226  1
  In  In31  1  0.83505703  0.02357314  0.86756603  1
  In  In32  1  0.83095020  0.33208758  0.36675668  1
  In  In33  1  0.84320113  0.32727142  0.87938039  1
  In  In34  1  0.84180470  0.67463618  0.36878414  1
  In  In35  1  0.84099367  0.64783332  0.87883115  1
  In  In36  1  0.00463851  0.16806818  0.35612208  1
  In  In37  1  -0.01137141  0.18107819  0.88671448  1
  In  In38  1  0.00100608  0.49833589  0.36397465  1
  In  In39  1  0.00009166  0.50028726  0.87531577  1
  In  In40  1  -0.00387923  0.83182151  0.37078194  1
  In  In41  1  0.01512275  0.83344418  0.87806362  1
  In  In42  1  0.34214567  0.20088193  0.36429426  1
  In  In43  1  0.33843485  0.16607577  0.88949285  1
  In  In44  1  0.33671386  0.49626953  0.37217147  1
  In  In45  1  0.31482592  0.49573596  0.87803839  1
  In  In46  1  0.34220464  0.83021962  0.37089860  1
  In  In47  1  0.32412645  0.82677774  0.86843712  1
  In  In48  1  0.66558120  0.16742500  0.37372902  1
  In  In49  1  0.67491945  0.16370495  0.88271052  1
  In  In50  1  0.64997109  0.48699483  0.36573859  1
  In  In51  1  0.67718047  0.50045496  0.88270643  1
  In  In52  1  0.67967337  0.84551975  0.36670031  1
  In  In53  1  0.65705886  0.84171871  0.87315612  1
  In  In54  1  0.16174712  -0.00826488  0.11548482  1
  In  In55  1  0.16936150  0.01652679  0.63109880  1
  In  In56  1  0.16451128  0.32788331  0.12360509  1
  In  In57  1  0.15795422  0.32186441  0.63035817  1
  In  In58  1  0.16648135  0.66292422  0.12333914  1
  In  In59  1  0.16510846  0.66482230  0.63348354  1
  In  In60  1  0.50195776  0.01402995  0.12743982  1
  In  In61  1  0.49202119  0.00677498  0.62929184  1
  In  In62  1  0.50754357  0.32513455  0.13285884  1
  In  In63  1  0.50265924  0.33541760  0.60082537  1
  In  In64  1  0.49922440  0.66089367  0.13500645  1
  In  In65  1  0.49922231  0.65660358  0.62335287  1
  In  In66  1  0.82406167  0.00957012  0.12999130  1
  In  In67  1  0.83999434  -0.01627814  0.62547337  1
  In  In68  1  0.83548986  0.33252989  0.12513573  1
  In  In69  1  0.83648456  0.33762463  0.63138862  1
  In  In70  1  0.84762050  0.65191252  0.13341163  1
  In  In71  1  0.82824771  0.67082573  0.62534583  1
  In  In72  1  0.49962936  0.49656962  0.00129543  1
  In  In73  1  0.67168066  0.33269965  0.75040738  1
  In  In74  1  0.00209490  -0.00328710  0.75213283  1
  In  In75  1  0.16533336  0.83558875  0.49181751  1
  In  In76  1  0.33181971  -0.00201433  0.24428144  1
  In  In77  1  0.83436172  0.83836791  0.00194312  1
  In  In78  1  0.16789423  0.49553164  0.48932099  1
  In  In79  1  0.82582202  0.50170483  0.50051800  1
  In  In80  1  0.32726898  0.33267013  0.75344024  1
  In  In81  1  0.83070418  0.16376027  0.49284219  1
  In  In82  1  0.49553330  0.83742490  -0.00101332  1
  In  In83  1  0.66956493  0.66797565  0.74162351  1
  In  In84  1  0.50737360  0.83159851  0.49322797  1
  In  In85  1  0.16809273  0.16761813  0.50123137  1
  Cu  Cu86  1  0.00728873  0.66108288  0.00451499  1
  Cu  Cu87  1  0.50526595  0.16697552  0.25068367  1
  Cu  Cu88  1  -0.00140633  0.00547525  -0.00001908  1
  Cu  Cu89  1  0.67779244  0.66233317  0.00843763  1
  Cu  Cu90  1  -0.00135114  0.33522672  0.00637722  1
  Cu  Cu91  1  0.16432071  0.16760009  0.75988278  1
  Cu  Cu92  1  0.33850733  0.65766247  0.49884748  1
  Cu  Cu93  1  0.83150856  0.82796760  0.75038808  1
  Cu  Cu94  1  0.16522802  0.49663887  0.24248891  1
  Cu  Cu95  1  0.16858140  0.82959264  0.75299350  1
  Cu  Cu96  1  0.66853010  0.32935291  0.00817053  1
  Cu  Cu97  1  0.33286017  0.01127618  0.50283891  1
  Cu  Cu98  1  0.67182435  0.00093299  0.49610828  1
  Cu  Cu99  1  0.66571490  0.66580410  0.49360004  1
  Cu  Cu100  1  0.50188805  0.50162367  0.74622218  1
  Cu  Cu101  1  0.83717448  0.83807994  0.24788364  1
  Cu  Cu102  1  0.83115929  0.50534674  0.24853231  1
  Cu  Cu103  1  0.49501852  0.16687332  0.75019086  1
  Cu  Cu104  1  0.32692936  0.66361816  -0.00235516  1
  Cu  Cu105  1  -0.00628993  0.67599986  0.49867071  1
  Cu  Cu106  1  0.00298704  0.33123639  0.49711941  1
  Cu  Cu107  1  0.16394249  0.82979246  0.24522227  1
  Cu  Cu108  1  0.49370305  0.49239145  0.24996424  1
  Cu  Cu109  1  0.50177389  0.82685089  0.25374178  1
  Cu  Cu110  1  0.16131512  0.50330976  0.75873023  1
  Cu  Cu111  1  0.66646250  0.01214359  -0.00099420  1
  Cu  Cu112  1  0.49369099  0.84127966  0.74928679  1
  Cu  Cu113  1  0.33257986  -0.00006090  0.00224277  1
  Cu  Cu114  1  0.83270658  0.16994059  0.24776076  1
  Se  Se115  1  0.08236894  0.08682695  0.05424923  1
  Se  Se116  1  0.07273851  0.07494001  0.55682066  1
  Se  Se117  1  0.08739146  0.41888773  0.05383111  1
  Se  Se118  1  0.07809602  0.41394145  0.55903866  1
  Se  Se119  1  0.08826678  0.75076214  0.05306484  1
  Se  Se120  1  0.08073655  0.74756952  0.55934631  1
  Se  Se121  1  0.42068074  0.08136211  0.05171193  1
  Se  Se122  1  0.41709057  0.09080728  0.55700868  1
  Se  Se123  1  0.41667416  0.41248214  0.06729596  1
  Se  Se124  1  0.40649560  0.42177462  0.55140020  1
  Se  Se125  1  0.41217629  0.73957079  0.05808526  1
  Se  Se126  1  0.41056213  0.74877057  0.55602566  1
  Se  Se127  1  0.75280431  0.08948646  0.05372557  1
  Se  Se128  1  0.74802030  0.07766915  0.56234143  1
  Se  Se129  1  0.75252292  0.41765219  0.05463535  1
  Se  Se130  1  0.74178058  0.40480871  0.55892144  1
  Se  Se131  1  0.75125378  0.74821541  0.06695556  1
  Se  Se132  1  0.75153488  0.74484165  0.54834966  1
  Se  Se133  1  0.24604083  0.24979763  0.05096974  1
  Se  Se134  1  0.25689441  0.26256238  0.55895641  1
  Se  Se135  1  0.24676196  0.57965322  0.05191409  1
  Se  Se136  1  0.24960092  0.58613011  0.55765343  1
  Se  Se137  1  0.24921723  0.90990969  0.04770001  1
  Se  Se138  1  0.25195600  0.92718111  0.55791199  1
  Se  Se139  1  0.58181762  0.24622009  0.05682716  1
  Se  Se140  1  0.58674487  0.24389724  0.54460059  1
  Se  Se141  1  0.59041417  0.58409524  0.06339305  1
  Se  Se142  1  0.58186990  0.58568663  0.54870196  1
  Se  Se143  1  0.59161873  0.92364310  0.05736473  1
  Se  Se144  1  0.58973239  0.92209761  0.55850990  1
  Se  Se145  1  0.91358671  0.24799081  0.05429535  1
  Se  Se146  1  0.92304181  0.25245054  0.55759759  1
  Se  Se147  1  0.91825120  0.57946194  0.05342676  1
  Se  Se148  1  0.92469668  0.58652126  0.55953545  1
  Se  Se149  1  0.92268988  0.92458500  0.06436300  1
  Se  Se150  1  0.91802712  0.91836417  0.54728464  1
  Se  Se151  1  0.08142641  0.25500440  0.43521628  1
  Se  Se152  1  0.08291100  0.24929608  0.95475181  1
  Se  Se153  1  0.07207581  0.59320772  0.43967372  1
  Se  Se154  1  0.08690582  0.57898801  0.94592199  1
  Se  Se155  1  0.07717857  0.92963675  0.43779512  1
  Se  Se156  1  0.08273112  0.91633404  0.95303856  1
  Se  Se157  1  0.42393253  0.24112746  0.44741718  1
  Se  Se158  1  0.40997793  0.25429188  0.96049181  1
  Se  Se159  1  0.41939736  0.57459713  0.44535820  1
  Se  Se160  1  0.41568800  0.59172513  0.93805205  1
  Se  Se161  1  0.40985544  0.92720077  0.44234419  1
  Se  Se162  1  0.41054253  0.92426276  0.93488930  1
  Se  Se163  1  0.74338911  0.26389666  0.44286616  1
  Se  Se164  1  0.75252184  0.25218058  0.94887930  1
  Se  Se165  1  0.74555176  0.58696693  0.43181088  1
  Se  Se166  1  0.75785920  0.57841529  0.95454174  1
  Se  Se167  1  0.75558657  0.91758942  0.44496229  1
  Se  Se168  1  0.74451265  0.92712344  0.93995681  1
  Se  Se169  1  0.25952165  0.08581681  0.43592564  1
  Se  Se170  1  0.24589675  0.08257027  0.95077304  1
  Se  Se171  1  0.25584793  0.39806840  0.43799582  1
  Se  Se172  1  0.27000788  0.40705881  0.95683087  1
  Se  Se173  1  0.25853259  0.73786032  0.43915927  1
  Se  Se174  1  0.24778735  0.75103955  0.94414877  1
  Se  Se175  1  0.58690768  0.08592195  0.44787614  1
  Se  Se176  1  0.57666716  0.08952976  0.94635322  1
  Se  Se177  1  0.58225766  0.42337295  0.44901992  1
  Se  Se178  1  0.58938922  0.40346097  0.94075542  1
  Se  Se179  1  0.58969345  0.74316391  0.42850626  1
  Se  Se180  1  0.59671413  0.74236280  0.94867880  1
  Se  Se181  1  0.93008779  0.08521354  0.43480640  1
  Se  Se182  1  0.91010558  0.08562257  0.95010677  1
  Se  Se183  1  0.92184804  0.41417340  0.44061038  1
  Se  Se184  1  0.91891787  0.41712077  0.94685862  1
  Se  Se185  1  0.91199677  0.75744721  0.44497790  1
  Se  Se186  1  0.92466959  0.74352857  0.94509919  1
  Se  Se187  1  0.23077532  0.22245418  0.29737298  1
  Se  Se188  1  0.24253912  0.24942392  0.82058168  1
  Se  Se189  1  0.24958230  0.57409716  0.30248602  1
  Se  Se190  1  0.25148628  0.58598288  0.80556209  1
  Se  Se191  1  0.24171430  0.90935385  0.30941564  1
  Se  Se192  1  0.24739618  0.92041140  0.80313647  1
  Se  Se193  1  0.58323521  0.25277470  0.30714042  1
  Se  Se194  1  0.57440253  0.24845888  0.81062473  1
  Se  Se195  1  0.57981245  0.58127446  0.29787091  1
  Se  Se196  1  0.58389688  0.57747105  0.80897495  1
  Se  Se197  1  0.58321115  0.91768117  0.30086588  1
  Se  Se198  1  0.58238583  0.92107853  0.79970648  1
  Se  Se199  1  0.91689868  0.25690210  0.29709245  1
  Se  Se200  1  0.90632779  0.23658888  0.80627350  1
  Se  Se201  1  0.91909848  0.58658692  0.30039960  1
  Se  Se202  1  0.92285171  0.58440786  0.80345030  1
  Se  Se203  1  0.92041657  0.92093073  0.30204253  1
  Se  Se204  1  0.90940964  0.90760999  0.81429694  1
  Se  Se205  1  0.08685276  0.08428838  0.28914013  1
  Se  Se206  1  0.08338692  0.08592794  0.81838410  1
  Se  Se207  1  0.08050664  0.41370237  0.29628087  1
  Se  Se208  1  0.08846875  0.41141292  0.81256779  1
  Se  Se209  1  0.08000123  0.74948723  0.30197382  1
  Se  Se210  1  0.08193526  0.74804764  0.80389820  1
  Se  Se211  1  0.42101989  0.08495732  0.30930639  1
  Se  Se212  1  0.40842288  0.09161060  0.80756928  1
  Se  Se213  1  0.41656849  0.40687261  0.30700073  1
  Se  Se214  1  0.42276973  0.42533332  0.81050126  1
  Se  Se215  1  0.41143642  0.74406721  0.29917588  1
  Se  Se216  1  0.41668215  0.75135126  0.80114890  1
  Se  Se217  1  0.75179795  0.08735074  0.30593533  1
  Se  Se218  1  0.73159214  0.07864501  0.80335894  1
  Se  Se219  1  0.74953234  0.41870805  0.30120800  1
  Se  Se220  1  0.75999053  0.42326844  0.80982019  1
  Se  Se221  1  0.75331989  0.75252114  0.30050710  1
  Se  Se222  1  0.75232626  0.75080871  0.81462602  1
  Se  Se223  1  0.25142259  0.08341602  0.17777034  1
  Se  Se224  1  0.25087889  0.09114217  0.70360866  1
  Se  Se225  1  0.25006724  0.40899292  0.19526879  1
  Se  Se226  1  0.23828401  0.42548759  0.69187942  1
  Se  Se227  1  0.24945086  0.74445327  0.19621256  1
  Se  Se228  1  0.25249191  0.74707244  0.69824487  1
  Se  Se229  1  0.58939984  0.08280894  0.19921765  1
  Se  Se230  1  0.58007217  0.08496270  0.69723816  1
  Se  Se231  1  0.58513615  0.41235368  0.20110503  1
  Se  Se232  1  0.57704092  0.41847825  0.68660721  1
  Se  Se233  1  0.58540348  0.74491142  0.19971290  1
  Se  Se234  1  0.57466884  0.76168568  0.68629760  1
  Se  Se235  1  0.91640184  0.08620020  0.19485605  1
  Se  Se236  1  0.90994065  0.08499750  0.69312520  1
  Se  Se237  1  0.91310339  0.42093041  0.19434554  1
  Se  Se238  1  0.92682101  0.40051666  0.70220932  1
  Se  Se239  1  0.91878488  0.74940162  0.19770750  1
  Se  Se240  1  0.91452872  0.74595803  0.69667395  1
  Se  Se241  1  0.06913596  0.26439829  0.19418267  1
  Se  Se242  1  0.07975747  0.24929661  0.70619167  1
  Se  Se243  1  0.08140283  0.58379657  0.19328678  1
  Se  Se244  1  0.08029954  0.58517814  0.70148346  1
  Se  Se245  1  0.08470675  0.91710948  0.19293171  1
  Se  Se246  1  0.09062740  0.90778458  0.68740434  1
  Se  Se247  1  0.41628729  0.24391473  0.19722496  1
  Se  Se248  1  0.42616235  0.25699910  0.68943771  1
  Se  Se249  1  0.41102796  0.57846597  0.19810898  1
  Se  Se250  1  0.41617544  0.58962523  0.70032814  1
  Se  Se251  1  0.42553501  0.90518841  0.18681952  1
  Se  Se252  1  0.40834328  0.92399769  0.69696802  1
  Se  Se253  1  0.74855486  0.25402752  0.19547789  1
  Se  Se254  1  0.75575898  0.23690756  0.69141656  1
  Se  Se255  1  0.74445645  0.58890587  0.19792481  1
  Se  Se256  1  0.76124093  0.56775540  0.69348263  1
  Se  Se257  1  0.74849971  0.92142743  0.19960454  1
  Se  Se258  1  0.75073626  0.91366538  0.69794005  1
