# generated using pymatgen
data_In86Cu29Se144
_symmetry_space_group_name_H-M   'P 1'
_cell_length_a   17.57562203
_cell_length_b   17.57589083
_cell_length_c   23.43721273
_cell_angle_alpha   89.96424449
_cell_angle_beta   90.01564820
_cell_angle_gamma   89.99100997
_symmetry_Int_Tables_number   1
_chemical_formula_structural   In86Cu29Se144
_chemical_formula_sum   'In86 Cu29 Se144'
_cell_volume   7239.92231855
_cell_formula_units_Z   1
loop_
 _symmetry_equiv_pos_site_id
 _symmetry_equiv_pos_as_xyz
  1  'x, y, z'
loop_
 _atom_site_type_symbol
 _atom_site_label
 _atom_site_symmetry_multiplicity
 _atom_site_fract_x
 _atom_site_fract_y
 _atom_site_fract_z
 _atom_site_occupancy
  In  In0  1  0.00984045  0.16833252  0.12794099  1
  In  In1  1  0.00488210  0.16626103  0.62622650  1
  In  In2  1  0.00561420  0.50469258  0.13781154  1
  In  In3  1  0.00491139  0.49244757  0.62989617  1
  In  In4  1  -0.01027940  0.82313503  0.11239083  1
  In  In5  1  0.02703721  0.81424699  0.64483946  1
  In  In6  1  0.33444149  0.16761548  0.12452831  1
  In  In7  1  0.33104666  0.16230769  0.62104399  1
  In  In8  1  0.34567216  0.50224073  0.12295406  1
  In  In9  1  0.34446824  0.51003512  0.61762093  1
  In  In10  1  0.32118720  0.81684797  0.10769653  1
  In  In11  1  0.32900986  0.82786595  0.63315572  1
  In  In12  1  0.65421041  0.17716045  0.12831391  1
  In  In13  1  0.66435902  0.15872931  0.61585777  1
  In  In14  1  0.66212218  0.51128632  0.12791321  1
  In  In15  1  0.66287326  0.51585810  0.62739835  1
  In  In16  1  0.65203068  0.81526979  0.11383073  1
  In  In17  1  0.65250334  0.82937140  0.62506937  1
  In  In18  1  0.17502112  -0.00515839  0.39100434  1
  In  In19  1  0.15137241  -0.02657795  0.84934000  1
  In  In20  1  0.15755184  0.34576083  0.38529644  1
  In  In21  1  0.16434260  0.34313280  0.86955737  1
  In  In22  1  0.17174927  0.67006404  0.37493621  1
  In  In23  1  0.19640295  0.70573991  0.83503199  1
  In  In24  1  0.49451375  0.00276301  0.38241060  1
  In  In25  1  0.48790117  0.00507647  0.87677559  1
  In  In26  1  0.50329563  0.33557930  0.38136737  1
  In  In27  1  0.48905400  0.32777327  0.88471232  1
  In  In28  1  0.49535466  0.66817468  0.37453053  1
  In  In29  1  0.49463184  0.66656838  0.87805384  1
  In  In30  1  0.84510807  0.00170894  0.38149538  1
  In  In31  1  0.82831012  -0.01349467  0.87363668  1
  In  In32  1  0.84095279  0.32630416  0.38270491  1
  In  In33  1  0.84032631  0.33310594  0.87304638  1
  In  In34  1  0.83454879  0.66291062  0.37105335  1
  In  In35  1  0.84687964  0.67189764  0.86191520  1
  In  In36  1  -0.00344683  0.17309465  0.38596218  1
  In  In37  1  0.00788248  0.17088460  0.86426792  1
  In  In38  1  0.02471819  0.51629541  0.36162907  1
  In  In39  1  0.01299662  0.51308654  0.85904725  1
  In  In40  1  0.01295434  0.83580441  0.37726569  1
  In  In41  1  -0.00056582  0.82560950  0.87015795  1
  In  In42  1  0.33658179  0.16312331  0.38562740  1
  In  In43  1  0.34815320  0.14725549  0.87408436  1
  In  In44  1  0.31917881  0.51771041  0.38228640  1
  In  In45  1  0.33217875  0.51478754  0.88116393  1
  In  In46  1  0.34079413  0.82689206  0.37963444  1
  In  In47  1  0.33409083  0.83633257  0.87337400  1
  In  In48  1  0.66478452  0.17341114  0.38351473  1
  In  In49  1  0.65208913  0.15705039  0.87209795  1
  In  In50  1  0.65459627  0.50798217  0.37781307  1
  In  In51  1  0.65037226  0.50110013  0.87624326  1
  In  In52  1  0.66091152  0.81635721  0.37009064  1
  In  In53  1  0.67595922  0.82375625  0.88179203  1
  In  In54  1  0.17934934  -0.00490760  0.12265205  1
  In  In55  1  0.16773056  -0.00491893  0.63086336  1
  In  In56  1  0.16194193  0.32975902  0.13263844  1
  In  In57  1  0.16000122  0.32539295  0.61572189  1
  In  In58  1  0.15932018  0.66949869  0.12873578  1
  In  In59  1  0.17589384  0.66914804  0.62622718  1
  In  In60  1  0.49487621  -0.00384752  0.11874703  1
  In  In61  1  0.49445008  -0.00642547  0.62281204  1
  In  In62  1  0.48736217  0.33428367  0.11300064  1
  In  In63  1  0.49323901  0.32881695  0.61580063  1
  In  In64  1  0.49721079  0.66748071  0.12570161  1
  In  In65  1  0.49513050  0.66814403  0.62912292  1
  In  In66  1  0.84513336  -0.00757566  0.11827110  1
  In  In67  1  0.84101026  0.01326981  0.62255842  1
  In  In68  1  0.83814242  0.34502101  0.12644005  1
  In  In69  1  0.85079137  0.33331055  0.62776779  1
  In  In70  1  0.82978130  0.66521386  0.12715047  1
  In  In71  1  0.83022477  0.65271065  0.64019522  1
  In  In72  1  0.66502673  -0.00341889  0.74750539  1
  In  In73  1  0.66716325  -0.00654031  0.24180957  1
  In  In74  1  0.17861605  0.16221129  0.00067918  1
  In  In75  1  0.32974143  0.34223760  0.25010000  1
  In  In76  1  0.66467093  0.33791809  0.75369661  1
  In  In77  1  0.32730260  0.33057952  0.74757464  1
  In  In78  1  0.82514794  0.15757049  -0.00582827  1
  In  In79  1  0.33578626  -0.00345670  0.25647237  1
  In  In80  1  0.83048391  0.50282155  0.00054757  1
  In  In81  1  0.00190410  -0.00268649  0.25319970  1
  In  In82  1  0.83715959  0.49749489  0.50758617  1
  In  In83  1  0.83377050  0.84164745  0.50773149  1
  In  In84  1  0.16935226  0.50934199  -0.00270387  1
  In  In85  1  0.66884698  0.34109627  0.25972878  1
  Cu  Cu86  1  0.00907453  0.67407601  0.50133905  1
  Cu  Cu87  1  0.33528630  0.33747394  0.49849579  1
  Cu  Cu88  1  0.00523284  0.00054634  0.50798427  1
  Cu  Cu89  1  0.50020560  0.50556276  0.25124904  1
  Cu  Cu90  1  -0.00250318  0.33521965  0.00104164  1
  Cu  Cu91  1  0.66033471  -0.00046501  -0.00426530  1
  Cu  Cu92  1  0.00453378  0.33443904  0.50284408  1
  Cu  Cu93  1  0.84422394  0.50071400  0.25101240  1
  Cu  Cu94  1  0.83160148  0.82017556  0.24418311  1
  Cu  Cu95  1  0.00411944  0.67085481  -0.00610439  1
  Cu  Cu96  1  0.16149368  0.17307166  0.25850381  1
  Cu  Cu97  1  0.83865070  0.17365039  0.74649490  1
  Cu  Cu98  1  0.83744018  0.83742871  0.75014328  1
  Cu  Cu99  1  0.50156428  0.82781466  0.75193794  1
  Cu  Cu100  1  0.49678434  0.82547099  0.24639113  1
  Cu  Cu101  1  0.65269439  0.32878862  -0.00143179  1
  Cu  Cu102  1  0.65473734  0.67166681  0.50302905  1
  Cu  Cu103  1  0.83238787  0.16859764  0.26010009  1
  Cu  Cu104  1  0.32929966  -0.00559323  -0.00607120  1
  Cu  Cu105  1  0.66485948  -0.00198995  0.50099285  1
  Cu  Cu106  1  0.16232397  0.82598518  0.24639660  1
  Cu  Cu107  1  0.49390661  0.50542492  0.75042132  1
  Cu  Cu108  1  0.66434976  0.66612724  0.00129534  1
  Cu  Cu109  1  0.33401337  -0.00142348  0.50887414  1
  Cu  Cu110  1  0.33414633  0.67281127  0.50183536  1
  Cu  Cu111  1  0.66764588  0.33224533  0.49987293  1
  Cu  Cu112  1  0.16881119  0.16590999  0.74147897  1
  Cu  Cu113  1  0.00625670  -0.01078882  -0.01076823  1
  Cu  Cu114  1  0.16521870  0.49808594  0.74403075  1
  Se  Se115  1  0.07582303  0.07189878  0.05588165  1
  Se  Se116  1  0.09070767  0.08365688  0.55964556  1
  Se  Se117  1  0.07846862  0.41519757  0.05960549  1
  Se  Se118  1  0.08541673  0.42348663  0.55255841  1
  Se  Se119  1  0.08843023  0.74998009  0.05089546  1
  Se  Se120  1  0.09189327  0.75462358  0.55650538  1
  Se  Se121  1  0.40499622  0.07845297  0.05454355  1
  Se  Se122  1  0.42219486  0.08531374  0.55370987  1
  Se  Se123  1  0.41517332  0.42402984  0.04656051  1
  Se  Se124  1  0.42110998  0.42173017  0.54910044  1
  Se  Se125  1  0.43807560  0.76630313  0.05564501  1
  Se  Se126  1  0.41561459  0.75383014  0.55984355  1
  Se  Se127  1  0.73709465  0.07608434  0.06372890  1
  Se  Se128  1  0.75376411  0.08091661  0.54896389  1
  Se  Se129  1  0.73663283  0.40748317  0.05737223  1
  Se  Se130  1  0.74228786  0.40987024  0.56590155  1
  Se  Se131  1  0.75522958  0.74599067  0.05244574  1
  Se  Se132  1  0.74726975  0.74058212  0.56206835  1
  Se  Se133  1  0.25589491  0.26470079  0.05932798  1
  Se  Se134  1  0.25485666  0.25085969  0.55211237  1
  Se  Se135  1  0.25736574  0.59489709  0.06012986  1
  Se  Se136  1  0.25093653  0.58587073  0.55248407  1
  Se  Se137  1  0.24259766  0.91256295  0.04587788  1
  Se  Se138  1  0.25137799  0.91385407  0.56098745  1
  Se  Se139  1  0.57272282  0.24297677  0.05185439  1
  Se  Se140  1  0.58273689  0.24738198  0.55124377  1
  Se  Se141  1  0.58077377  0.58311388  0.05464675  1
  Se  Se142  1  0.57503763  0.58460963  0.55571283  1
  Se  Se143  1  0.58095582  0.91552802  0.05219838  1
  Se  Se144  1  0.58138857  0.91435369  0.55274932  1
  Se  Se145  1  0.91750958  0.24967663  0.05637198  1
  Se  Se146  1  0.92127069  0.24911229  0.55459681  1
  Se  Se147  1  0.92954883  0.58716848  0.05746418  1
  Se  Se148  1  0.92567045  0.59586130  0.56099700  1
  Se  Se149  1  0.91596310  0.91300945  0.04279798  1
  Se  Se150  1  0.93287581  0.91483962  0.56991860  1
  Se  Se151  1  0.08913083  0.24771550  0.45165058  1
  Se  Se152  1  0.08133122  0.25455338  0.94414930  1
  Se  Se153  1  0.08700757  0.58773580  0.44582822  1
  Se  Se154  1  0.08578882  0.59662306  0.93263353  1
  Se  Se155  1  0.08407034  0.91345481  0.45390051  1
  Se  Se156  1  0.08931134  0.90713822  0.93679090  1
  Se  Se157  1  0.42048672  0.25174976  0.44860241  1
  Se  Se158  1  0.40427353  0.24085893  0.94661512  1
  Se  Se159  1  0.41671611  0.58726457  0.44756306  1
  Se  Se160  1  0.42181612  0.58111508  0.95111619  1
  Se  Se161  1  0.41396052  0.91768653  0.44862926  1
  Se  Se162  1  0.41968826  0.91273035  0.94647047  1
  Se  Se163  1  0.75501309  0.24854325  0.45096018  1
  Se  Se164  1  0.73725604  0.25608271  0.93733605  1
  Se  Se165  1  0.74489115  0.59163202  0.44840756  1
  Se  Se166  1  0.74541495  0.59097719  0.93717576  1
  Se  Se167  1  0.74111349  0.91764021  0.43693539  1
  Se  Se168  1  0.75044418  0.91667076  0.95024454  1
  Se  Se169  1  0.25173775  0.08550358  0.45552091  1
  Se  Se170  1  0.24309919  0.06605551  0.93148832  1
  Se  Se171  1  0.24934612  0.42253320  0.44996751  1
  Se  Se172  1  0.25550491  0.40896870  0.94215526  1
  Se  Se173  1  0.24863521  0.75439783  0.44716892  1
  Se  Se174  1  0.24826810  0.74453563  0.93293294  1
  Se  Se175  1  0.58350532  0.08386732  0.44711364  1
  Se  Se176  1  0.57509206  0.08485942  0.94775173  1
  Se  Se177  1  0.58615781  0.41949574  0.44914143  1
  Se  Se178  1  0.57433898  0.41701005  0.94658502  1
  Se  Se179  1  0.57555742  0.75406395  0.44617099  1
  Se  Se180  1  0.58217045  0.74955305  0.94633210  1
  Se  Se181  1  0.91969509  0.08202702  0.45385092  1
  Se  Se182  1  0.92708895  0.07925726  0.93586444  1
  Se  Se183  1  0.92949951  0.42038693  0.44122438  1
  Se  Se184  1  0.92727404  0.42047978  0.93928058  1
  Se  Se185  1  0.91889889  0.74787134  0.44380617  1
  Se  Se186  1  0.91297801  0.74855432  0.94261526  1
  Se  Se187  1  0.24902359  0.24800988  0.31549212  1
  Se  Se188  1  0.24340405  0.23887351  0.81177094  1
  Se  Se189  1  0.24703956  0.58525978  0.30296482  1
  Se  Se190  1  0.25008633  0.57463175  0.80099768  1
  Se  Se191  1  0.23829226  0.90765986  0.30971989  1
  Se  Se192  1  0.27453006  0.93208092  0.80021392  1
  Se  Se193  1  0.57643628  0.24311876  0.30722689  1
  Se  Se194  1  0.56897047  0.24646648  0.80652207  1
  Se  Se195  1  0.58406836  0.58976243  0.30362523  1
  Se  Se196  1  0.57796768  0.58654505  0.80462152  1
  Se  Se197  1  0.57278460  0.91176894  0.30643612  1
  Se  Se198  1  0.58183117  0.90896571  0.81324542  1
  Se  Se199  1  0.92077693  0.24945105  0.30879563  1
  Se  Se200  1  0.92083092  0.25663677  0.80096694  1
  Se  Se201  1  0.92340163  0.58990575  0.30202281  1
  Se  Se202  1  0.90853773  0.57171644  0.79684602  1
  Se  Se203  1  0.90580392  0.90349275  0.30706225  1
  Se  Se204  1  0.91925224  0.92008490  0.80394770  1
  Se  Se205  1  0.09062559  0.08303352  0.31742255  1
  Se  Se206  1  0.08313733  0.08434131  0.79551545  1
  Se  Se207  1  0.08435817  0.40769563  0.30296545  1
  Se  Se208  1  0.08179772  0.41205163  0.79506652  1
  Se  Se209  1  0.08026133  0.74861666  0.30518683  1
  Se  Se210  1  0.06334231  0.73528570  0.79664176  1
  Se  Se211  1  0.42487728  0.09458304  0.30754481  1
  Se  Se212  1  0.42216310  0.07847282  0.79517922  1
  Se  Se213  1  0.42124317  0.42670987  0.31369070  1
  Se  Se214  1  0.41681163  0.42009543  0.80922151  1
  Se  Se215  1  0.41116542  0.74751377  0.30274547  1
  Se  Se216  1  0.41602298  0.74757500  0.80543196  1
  Se  Se217  1  0.75227684  0.08172091  0.31166889  1
  Se  Se218  1  0.75780853  0.09221135  0.80638365  1
  Se  Se219  1  0.76280684  0.42967301  0.31767890  1
  Se  Se220  1  0.75433564  0.42645924  0.81304633  1
  Se  Se221  1  0.74876447  0.74199812  0.30176267  1
  Se  Se222  1  0.75156252  0.75479499  0.80230558  1
  Se  Se223  1  0.24119046  0.09266674  0.19764950  1
  Se  Se224  1  0.25625638  0.08182969  0.69496037  1
  Se  Se225  1  0.24134479  0.43164459  0.18971668  1
  Se  Se226  1  0.24686163  0.42107518  0.68171775  1
  Se  Se227  1  0.25262381  0.75178938  0.19259139  1
  Se  Se228  1  0.24256223  0.75253472  0.70425580  1
  Se  Se229  1  0.57024694  0.08761132  0.19363638  1
  Se  Se230  1  0.57688690  0.08963169  0.69126249  1
  Se  Se231  1  0.57453775  0.41781310  0.19201165  1
  Se  Se232  1  0.57006203  0.42099537  0.69016680  1
  Se  Se233  1  0.58695441  0.74457061  0.19706638  1
  Se  Se234  1  0.58531255  0.74454951  0.69942524  1
  Se  Se235  1  0.90790397  0.08959411  0.19404990  1
  Se  Se236  1  0.92072264  0.08551314  0.69756435  1
  Se  Se237  1  0.92282664  0.41182452  0.19978115  1
  Se  Se238  1  0.90395560  0.43180580  0.69670448  1
  Se  Se239  1  0.92283958  0.74487558  0.19174680  1
  Se  Se240  1  0.91409134  0.74807143  0.69691730  1
  Se  Se241  1  0.07721628  0.25189291  0.20300556  1
  Se  Se242  1  0.08410383  0.25504837  0.69488566  1
  Se  Se243  1  0.08684684  0.58780187  0.20290122  1
  Se  Se244  1  0.08574835  0.58533016  0.69130192  1
  Se  Se245  1  0.08633886  0.91084761  0.18664701  1
  Se  Se246  1  0.07963864  0.92543992  0.70363277  1
  Se  Se247  1  0.42211608  0.24809405  0.19421566  1
  Se  Se248  1  0.42277844  0.24367114  0.69177087  1
  Se  Se249  1  0.41560112  0.58630339  0.19735739  1
  Se  Se250  1  0.40821171  0.58810647  0.69864159  1
  Se  Se251  1  0.41486941  0.90745792  0.18909867  1
  Se  Se252  1  0.42116407  0.91184183  0.69652544  1
  Se  Se253  1  0.75702423  0.24753405  0.19508525  1
  Se  Se254  1  0.74965741  0.24562741  0.68845181  1
  Se  Se255  1  0.75458327  0.57750472  0.19766648  1
  Se  Se256  1  0.73708130  0.58244508  0.70636880  1
  Se  Se257  1  0.75713332  0.90328473  0.18275931  1
  Se  Se258  1  0.75734758  0.91140277  0.68487529  1
