# generated using pymatgen
data_In86Cu29Se144
_symmetry_space_group_name_H-M   'P 1'
_cell_length_a   17.57602527
_cell_length_b   17.57650364
_cell_length_c   23.43621120
_cell_angle_alpha   89.98208275
_cell_angle_beta   90.00139756
_cell_angle_gamma   90.01327685
_symmetry_Int_Tables_number   1
_chemical_formula_structural   In86Cu29Se144
_chemical_formula_sum   'In86 Cu29 Se144'
_cell_volume   7240.03268622
_cell_formula_units_Z   1
loop_
 _symmetry_equiv_pos_site_id
 _symmetry_equiv_pos_as_xyz
  1  'x, y, z'
loop_
 _atom_site_type_symbol
 _atom_site_label
 _atom_site_symmetry_multiplicity
 _atom_site_fract_x
 _atom_site_fract_y
 _atom_site_fract_z
 _atom_site_occupancy
  In  In0  1  -0.01403412  0.16112307  0.12483320  1
  In  In1  1  -0.01824194  0.18092591  0.63202871  1
  In  In2  1  0.00225909  0.51011007  0.10867766  1
  In  In3  1  0.00519977  0.48165409  0.62517906  1
  In  In4  1  0.00407981  0.82821797  0.13232294  1
  In  In5  1  0.00858120  0.85006676  0.62911687  1
  In  In6  1  0.34260591  0.15618842  0.13420453  1
  In  In7  1  0.34811886  0.16761931  0.62367491  1
  In  In8  1  0.33431758  0.49913288  0.12576048  1
  In  In9  1  0.32209904  0.49984729  0.62298708  1
  In  In10  1  0.35856367  0.82526673  0.14515290  1
  In  In11  1  0.33331749  0.82470098  0.62546175  1
  In  In12  1  0.66946766  0.17863842  0.09995912  1
  In  In13  1  0.66455579  0.16912280  0.63052689  1
  In  In14  1  0.66841237  0.49429673  0.11745793  1
  In  In15  1  0.66745903  0.49244699  0.64735814  1
  In  In16  1  0.63523527  0.83309292  0.12045162  1
  In  In17  1  0.67302408  0.83029110  0.63664656  1
  In  In18  1  0.16191374  -0.00389193  0.36873864  1
  In  In19  1  0.16506161  0.00795346  0.86975503  1
  In  In20  1  0.17956289  0.33052723  0.37619990  1
  In  In21  1  0.17672851  0.34291931  0.86708769  1
  In  In22  1  0.16179646  0.66166877  0.36473805  1
  In  In23  1  0.15814553  0.65502254  0.88122764  1
  In  In24  1  0.50736941  0.01669379  0.37202468  1
  In  In25  1  0.52263147  -0.01259598  0.89871572  1
  In  In26  1  0.49904091  0.33084714  0.36904038  1
  In  In27  1  0.50103151  0.33437265  0.87919336  1
  In  In28  1  0.49992989  0.66581560  0.35538973  1
  In  In29  1  0.51401118  0.64770383  0.89284669  1
  In  In30  1  0.83898623  0.00511129  0.37350236  1
  In  In31  1  0.83480256  0.01184906  0.87532771  1
  In  In32  1  0.81965627  0.33505499  0.37433953  1
  In  In33  1  0.82671872  0.32941942  0.87909097  1
  In  In34  1  0.83099997  0.65780219  0.35857414  1
  In  In35  1  0.82037003  0.66783741  0.87995517  1
  In  In36  1  -0.00177709  0.15960405  0.37686576  1
  In  In37  1  -0.01431869  0.16350576  0.86912079  1
  In  In38  1  -0.00256126  0.50856695  0.37194868  1
  In  In39  1  0.01301693  0.49213373  0.88703200  1
  In  In40  1  -0.00066250  0.83405384  0.36558585  1
  In  In41  1  -0.00782370  0.83607729  0.87446514  1
  In  In42  1  0.34417621  0.18174501  0.36546268  1
  In  In43  1  0.33767990  0.17953258  0.87056793  1
  In  In44  1  0.32859762  0.49439593  0.36432845  1
  In  In45  1  0.34673234  0.48394545  0.89043475  1
  In  In46  1  0.33555685  0.82986238  0.36008328  1
  In  In47  1  0.34509137  0.84397059  0.87908962  1
  In  In48  1  0.65710111  0.17333246  0.38264817  1
  In  In49  1  0.66690121  0.17042309  0.88169976  1
  In  In50  1  0.66630492  0.49229721  0.36075567  1
  In  In51  1  0.65990260  0.49342225  0.88157578  1
  In  In52  1  0.67012943  0.83093239  0.36770477  1
  In  In53  1  0.66086447  0.82181494  0.87204482  1
  In  In54  1  0.16965459  -0.00298885  0.13480712  1
  In  In55  1  0.15250813  -0.00936990  0.63122443  1
  In  In56  1  0.16681715  0.34587249  0.12521533  1
  In  In57  1  0.15258688  0.34439424  0.63107739  1
  In  In58  1  0.16761634  0.66096656  0.12703713  1
  In  In59  1  0.17866378  0.66084001  0.62174688  1
  In  In60  1  0.50345599  0.00238321  0.11179962  1
  In  In61  1  0.49716206  0.01653654  0.62651648  1
  In  In62  1  0.50349987  0.33188798  0.11845168  1
  In  In63  1  0.51431698  0.32191011  0.64551304  1
  In  In64  1  0.50403601  0.66423907  0.12743688  1
  In  In65  1  0.50297017  0.66749387  0.63081777  1
  In  In66  1  0.82369951  0.01367596  0.12093256  1
  In  In67  1  0.82011419  0.01186810  0.63648868  1
  In  In68  1  0.81933861  0.32723659  0.10651635  1
  In  In69  1  0.83788950  0.32329830  0.63539585  1
  In  In70  1  0.84053058  0.65592064  0.12587814  1
  In  In71  1  0.82964218  0.65630954  0.62991650  1
  In  In72  1  0.33310701  0.66735476  0.74960841  1
  In  In73  1  0.50321140  0.84032484  0.49421269  1
  In  In74  1  0.83221744  0.82944282  -0.00076388  1
  In  In75  1  0.16583993  0.17127299  0.50019653  1
  In  In76  1  -0.00327130  0.33438722  0.24441248  1
  In  In77  1  0.33387898  0.00663452  0.75008117  1
  In  In78  1  0.49911976  0.49602758  0.50322618  1
  In  In79  1  0.83722087  0.49113706  0.50122134  1
  In  In80  1  0.83294855  0.83291759  0.48994439  1
  In  In81  1  0.16799570  0.83658448  0.50051004  1
  In  In82  1  0.17789965  0.82686835  0.00925741  1
  In  In83  1  0.66116371  -0.00197222  0.24191075  1
  In  In84  1  0.17035674  0.16941138  -0.00757113  1
  In  In85  1  -0.00637526  0.67147095  0.75446420  1
  Cu  Cu86  1  0.50737381  0.17344127  0.24605916  1
  Cu  Cu87  1  0.50615875  0.16281842  0.75841586  1
  Cu  Cu88  1  0.50461632  0.83183620  0.75610864  1
  Cu  Cu89  1  0.00482260  -0.00398758  -0.00003661  1
  Cu  Cu90  1  0.66137574  0.66632009  0.00271174  1
  Cu  Cu91  1  0.82914735  0.82822106  0.24524491  1
  Cu  Cu92  1  0.34629585  0.00216190  0.00662793  1
  Cu  Cu93  1  0.00796644  0.66143723  0.49383595  1
  Cu  Cu94  1  0.34004513  0.33156843  0.49709345  1
  Cu  Cu95  1  0.82614809  0.16715814  0.24126034  1
  Cu  Cu96  1  0.16555326  0.16520035  0.25495365  1
  Cu  Cu97  1  0.33491669  0.66502594  0.01029926  1
  Cu  Cu98  1  0.66811176  0.65886905  0.49769008  1
  Cu  Cu99  1  0.16868410  0.50243329  0.24460491  1
  Cu  Cu100  1  -0.00299234  0.33188174  -0.00191821  1
  Cu  Cu101  1  0.15815856  0.17034937  0.74971926  1
  Cu  Cu102  1  0.32963799  0.33542103  0.00105510  1
  Cu  Cu103  1  0.66726501  0.01147739  0.50818100  1
  Cu  Cu104  1  0.83216407  0.84381983  0.75616397  1
  Cu  Cu105  1  0.66736668  0.32720683  0.50683031  1
  Cu  Cu106  1  0.83135243  0.49325502  0.23954494  1
  Cu  Cu107  1  0.82942661  0.49968672  0.75762319  1
  Cu  Cu108  1  0.33225197  0.65888605  0.49311220  1
  Cu  Cu109  1  0.16345547  0.83345659  0.24732425  1
  Cu  Cu110  1  0.16608618  0.49831050  0.75197327  1
  Cu  Cu111  1  -0.01282306  0.00941991  0.50328945  1
  Cu  Cu112  1  0.50355151  0.49653997  0.24045083  1
  Cu  Cu113  1  0.33299597  0.01021668  0.49640885  1
  Cu  Cu114  1  0.82500596  0.17083416  0.75533801  1
  Se  Se115  1  0.08587290  0.07834911  0.05844281  1
  Se  Se116  1  0.07493944  0.08235167  0.56237256  1
  Se  Se117  1  0.08335432  0.41281783  0.05010984  1
  Se  Se118  1  0.09027894  0.42062507  0.54946528  1
  Se  Se119  1  0.07414177  0.74123687  0.05671287  1
  Se  Se120  1  0.07568349  0.74486472  0.55992981  1
  Se  Se121  1  0.42237711  0.09932228  0.05129170  1
  Se  Se122  1  0.42153831  0.08794437  0.54812296  1
  Se  Se123  1  0.41437383  0.41741530  0.05468623  1
  Se  Se124  1  0.41584496  0.40529559  0.56568803  1
  Se  Se125  1  0.41786867  0.75119324  0.06023909  1
  Se  Se126  1  0.41346907  0.73959741  0.55207935  1
  Se  Se127  1  0.75247001  0.08316519  0.04183915  1
  Se  Se128  1  0.75285471  0.09270076  0.55906559  1
  Se  Se129  1  0.75650772  0.42829587  0.04265141  1
  Se  Se130  1  0.74110611  0.41408721  0.56556820  1
  Se  Se131  1  0.74112757  0.74686673  0.06384778  1
  Se  Se132  1  0.74621785  0.74325053  0.55615498  1
  Se  Se133  1  0.25367893  0.25135052  0.06236348  1
  Se  Se134  1  0.25687121  0.25794222  0.56161186  1
  Se  Se135  1  0.24765357  0.58004366  0.05631163  1
  Se  Se136  1  0.24775966  0.57840622  0.54656169  1
  Se  Se137  1  0.26322286  0.92340364  0.06524188  1
  Se  Se138  1  0.26007725  0.92936998  0.56012104  1
  Se  Se139  1  0.59771898  0.28010497  0.04000057  1
  Se  Se140  1  0.57854038  0.25068730  0.56095996  1
  Se  Se141  1  0.57800654  0.58037442  0.05425972  1
  Se  Se142  1  0.59422305  0.58296309  0.56345834  1
  Se  Se143  1  0.59998237  0.93394838  0.04628245  1
  Se  Se144  1  0.59154623  0.92021294  0.56362066  1
  Se  Se145  1  0.91824551  0.24408818  0.05020061  1
  Se  Se146  1  0.91702388  0.26226612  0.55504035  1
  Se  Se147  1  0.90293327  0.57818510  0.04517592  1
  Se  Se148  1  0.92549304  0.58946162  0.55849259  1
  Se  Se149  1  0.92353118  0.91941489  0.06120847  1
  Se  Se150  1  0.91142769  0.92145636  0.56024805  1
  Se  Se151  1  0.07578181  0.25939763  0.43986874  1
  Se  Se152  1  0.07767434  0.25593718  0.93357336  1
  Se  Se153  1  0.09030082  0.57957869  0.44065729  1
  Se  Se154  1  0.08446082  0.58169559  0.95662128  1
  Se  Se155  1  0.06795720  0.92552577  0.44481381  1
  Se  Se156  1  0.08834044  0.91732970  0.94339918  1
  Se  Se157  1  0.42375106  0.24973558  0.44407696  1
  Se  Se158  1  0.41235120  0.25196356  0.94770484  1
  Se  Se159  1  0.41974648  0.58627674  0.43472847  1
  Se  Se160  1  0.41679662  0.57826519  0.95762293  1
  Se  Se161  1  0.40747771  0.92522471  0.43547803  1
  Se  Se162  1  0.42376315  0.90900732  0.95791605  1
  Se  Se163  1  0.75020514  0.24963717  0.44836631  1
  Se  Se164  1  0.77126393  0.22782820  0.94843469  1
  Se  Se165  1  0.74716002  0.58077406  0.43689393  1
  Se  Se166  1  0.74319458  0.58277035  0.94861001  1
  Se  Se167  1  0.73546305  0.92936687  0.44095551  1
  Se  Se168  1  0.74674014  0.91688242  0.93657475  1
  Se  Se169  1  0.25195168  0.08428562  0.43425345  1
  Se  Se170  1  0.26476944  0.07287658  0.94028004  1
  Se  Se171  1  0.25910480  0.41683787  0.44402191  1
  Se  Se172  1  0.24074310  0.41686137  0.95040848  1
  Se  Se173  1  0.25546154  0.74765509  0.43777662  1
  Se  Se174  1  0.26267132  0.74116093  0.94016245  1
  Se  Se175  1  0.57934418  0.08682591  0.45226086  1
  Se  Se176  1  0.56665072  0.10726410  0.94990025  1
  Se  Se177  1  0.59431143  0.41119204  0.44259162  1
  Se  Se178  1  0.59535374  0.39718612  0.95253167  1
  Se  Se179  1  0.58849769  0.73916654  0.43826535  1
  Se  Se180  1  0.58056138  0.75494714  0.95135949  1
  Se  Se181  1  0.90663690  0.09126342  0.44816402  1
  Se  Se182  1  0.92281138  0.08124524  0.94865524  1
  Se  Se183  1  0.92517716  0.40678656  0.43669195  1
  Se  Se184  1  0.91330475  0.41562101  0.94561334  1
  Se  Se185  1  0.92269530  0.73558721  0.43490049  1
  Se  Se186  1  0.92687658  0.73837276  0.94352295  1
  Se  Se187  1  0.25122093  0.25480323  0.29839820  1
  Se  Se188  1  0.24853676  0.24915314  0.79965180  1
  Se  Se189  1  0.25296296  0.58632841  0.29799260  1
  Se  Se190  1  0.24756256  0.57623529  0.81221395  1
  Se  Se191  1  0.24690086  0.91739954  0.30050426  1
  Se  Se192  1  0.24766300  0.90941796  0.80796461  1
  Se  Se193  1  0.59101261  0.25275532  0.30334200  1
  Se  Se194  1  0.58515288  0.25193646  0.80939866  1
  Se  Se195  1  0.58819129  0.58006495  0.29461956  1
  Se  Se196  1  0.58174383  0.58112527  0.81148455  1
  Se  Se197  1  0.57218632  0.91100109  0.30650639  1
  Se  Se198  1  0.58197765  0.91939756  0.81030817  1
  Se  Se199  1  0.90728674  0.24331594  0.30528365  1
  Se  Se200  1  0.91241536  0.25663474  0.80308319  1
  Se  Se201  1  0.91728118  0.57501540  0.29358686  1
  Se  Se202  1  0.91296289  0.57754169  0.81668305  1
  Se  Se203  1  0.90654081  0.91361748  0.30320109  1
  Se  Se204  1  0.91790550  0.92477794  0.80737895  1
  Se  Se205  1  0.07734554  0.08273114  0.30406415  1
  Se  Se206  1  0.07825180  0.08491955  0.80309122  1
  Se  Se207  1  0.09024179  0.41958571  0.30680378  1
  Se  Se208  1  0.07836565  0.41772216  0.80428639  1
  Se  Se209  1  0.07922811  0.74821441  0.29928638  1
  Se  Se210  1  0.09194059  0.75541010  0.81203833  1
  Se  Se211  1  0.42303553  0.09048678  0.30031164  1
  Se  Se212  1  0.42732295  0.07857006  0.81764655  1
  Se  Se213  1  0.42136871  0.41701772  0.30048517  1
  Se  Se214  1  0.41015689  0.40970101  0.81082441  1
  Se  Se215  1  0.41660205  0.75025928  0.29213365  1
  Se  Se216  1  0.42494841  0.74998364  0.81418006  1
  Se  Se217  1  0.74758815  0.08862454  0.30622866  1
  Se  Se218  1  0.74307008  0.08502881  0.80760492  1
  Se  Se219  1  0.75067961  0.40858911  0.29422265  1
  Se  Se220  1  0.74659592  0.41594587  0.81020856  1
  Se  Se221  1  0.74445173  0.74543291  0.29757478  1
  Se  Se222  1  0.75337923  0.75026212  0.80310048  1
  Se  Se223  1  0.25087711  0.08249619  0.20173433  1
  Se  Se224  1  0.24007451  0.09283743  0.68701706  1
  Se  Se225  1  0.25338697  0.41477705  0.19772824  1
  Se  Se226  1  0.24929653  0.41643542  0.69659413  1
  Se  Se227  1  0.24647047  0.75162400  0.19271999  1
  Se  Se228  1  0.23552221  0.76086862  0.69558493  1
  Se  Se229  1  0.58653143  0.09945979  0.18138591  1
  Se  Se230  1  0.58511239  0.08031236  0.69986266  1
  Se  Se231  1  0.58750536  0.41260913  0.18946779  1
  Se  Se232  1  0.57222119  0.42319166  0.71070997  1
  Se  Se233  1  0.57664781  0.75248481  0.19924453  1
  Se  Se234  1  0.58466865  0.74701150  0.70020942  1
  Se  Se235  1  0.91173659  0.07725726  0.19735868  1
  Se  Se236  1  0.91227916  0.08838348  0.70145419  1
  Se  Se237  1  0.91175980  0.41632340  0.17695181  1
  Se  Se238  1  0.91172845  0.42265981  0.69759944  1
  Se  Se239  1  0.91615175  0.74454317  0.19566039  1
  Se  Se240  1  0.90723942  0.76353479  0.68942069  1
  Se  Se241  1  0.08864744  0.24009419  0.18769838  1
  Se  Se242  1  0.07523560  0.25572375  0.69795764  1
  Se  Se243  1  0.07798145  0.57711168  0.19085147  1
  Se  Se244  1  0.08740620  0.58249195  0.69275343  1
  Se  Se245  1  0.07706950  0.92024427  0.19964898  1
  Se  Se246  1  0.08128927  0.91729150  0.70872995  1
  Se  Se247  1  0.42112899  0.25421838  0.19275297  1
  Se  Se248  1  0.41637969  0.24081872  0.70425679  1
  Se  Se249  1  0.41582444  0.58247902  0.19494690  1
  Se  Se250  1  0.42062156  0.57273978  0.69193512  1
  Se  Se251  1  0.42146443  0.94136202  0.19103685  1
  Se  Se252  1  0.42488259  0.90799088  0.69123500  1
  Se  Se253  1  0.74719475  0.24611304  0.18236416  1
  Se  Se254  1  0.74149807  0.25506135  0.70163374  1
  Se  Se255  1  0.74665486  0.57944685  0.19010590  1
  Se  Se256  1  0.74916387  0.58865714  0.70586930  1
  Se  Se257  1  0.75098601  0.90651588  0.18239838  1
  Se  Se258  1  0.74334685  0.92302702  0.70393454  1
