# generated using pymatgen
data_In86Cu29Se144
_symmetry_space_group_name_H-M   'P 1'
_cell_length_a   17.57882688
_cell_length_b   17.58402664
_cell_length_c   23.44767851
_cell_angle_alpha   89.99480963
_cell_angle_beta   89.98879379
_cell_angle_gamma   90.01050053
_symmetry_Int_Tables_number   1
_chemical_formula_structural   In86Cu29Se144
_chemical_formula_sum   'In86 Cu29 Se144'
_cell_volume   7247.83095726
_cell_formula_units_Z   1
loop_
 _symmetry_equiv_pos_site_id
 _symmetry_equiv_pos_as_xyz
  1  'x, y, z'
loop_
 _atom_site_type_symbol
 _atom_site_label
 _atom_site_symmetry_multiplicity
 _atom_site_fract_x
 _atom_site_fract_y
 _atom_site_fract_z
 _atom_site_occupancy
  In  In0  1  -0.00338847  0.17043401  0.12328046  1
  In  In1  1  -0.01910056  0.15761168  0.62706259  1
  In  In2  1  -0.02263436  0.50145587  0.12145661  1
  In  In3  1  0.00824029  0.50889824  0.61742265  1
  In  In4  1  0.00524547  0.83868807  0.12840898  1
  In  In5  1  -0.00393274  0.83264504  0.62883466  1
  In  In6  1  0.31667243  0.15817356  0.11738442  1
  In  In7  1  0.32540077  0.15562562  0.62810303  1
  In  In8  1  0.33495196  0.50494454  0.12417554  1
  In  In9  1  0.35195974  0.52290099  0.60922183  1
  In  In10  1  0.35197809  0.83803439  0.12271760  1
  In  In11  1  0.33416603  0.83169891  0.62433999  1
  In  In12  1  0.67005647  0.16296982  0.12086389  1
  In  In13  1  0.67576666  0.14911318  0.63439570  1
  In  In14  1  0.66797340  0.47580825  0.13394677  1
  In  In15  1  0.67143595  0.50459340  0.61842353  1
  In  In16  1  0.67188571  0.85621647  0.12536815  1
  In  In17  1  0.67134735  0.83709495  0.62445427  1
  In  In18  1  0.16250568  -0.00252555  0.37732372  1
  In  In19  1  0.16840512  -0.00111168  0.87605242  1
  In  In20  1  0.16019880  0.34499251  0.37409329  1
  In  In21  1  0.15536520  0.32013136  0.88087127  1
  In  In22  1  0.16540358  0.67129785  0.38775520  1
  In  In23  1  0.17088364  0.67423563  0.85951638  1
  In  In24  1  0.49990385  -0.00119422  0.36847685  1
  In  In25  1  0.50522512  0.00937102  0.87172425  1
  In  In26  1  0.51106265  0.33229461  0.36856017  1
  In  In27  1  0.49347620  0.33129203  0.87910137  1
  In  In28  1  0.50214298  0.66809829  0.38875991  1
  In  In29  1  0.51658803  0.67405707  0.85221761  1
  In  In30  1  0.83788175  0.00109502  0.37886141  1
  In  In31  1  0.85041056  0.01919885  0.84248115  1
  In  In32  1  0.83035689  0.33267551  0.37291253  1
  In  In33  1  0.84802420  0.33183587  0.89149010  1
  In  In34  1  0.83379963  0.66893193  0.38745686  1
  In  In35  1  0.82788302  0.65899810  0.86014891  1
  In  In36  1  -0.01516528  0.15228524  0.36551534  1
  In  In37  1  0.00571443  0.16263719  0.88504937  1
  In  In38  1  0.00057765  0.49689201  0.37863409  1
  In  In39  1  -0.00695050  0.49159175  0.87074234  1
  In  In40  1  -0.00960027  0.85044586  0.39130443  1
  In  In41  1  -0.00661133  0.84149759  0.85455015  1
  In  In42  1  0.34965918  0.15278589  0.36870008  1
  In  In43  1  0.33563997  0.16020723  0.88676048  1
  In  In44  1  0.32554696  0.50724492  0.38306703  1
  In  In45  1  0.33481151  0.50522464  0.86554263  1
  In  In46  1  0.33385855  0.84008140  0.38482989  1
  In  In47  1  0.34254716  0.83741549  0.85969060  1
  In  In48  1  0.67156941  0.17609246  0.36551501  1
  In  In49  1  0.67522492  0.16178366  0.88527184  1
  In  In50  1  0.67022456  0.49742037  0.38078714  1
  In  In51  1  0.67677551  0.51025609  0.86681782  1
  In  In52  1  0.67108967  0.83410203  0.38454036  1
  In  In53  1  0.68503578  0.84149903  0.85521124  1
  In  In54  1  0.14398744  0.01776841  0.13924343  1
  In  In55  1  0.17509815  -0.01244635  0.63237697  1
  In  In56  1  0.17347572  0.31690717  0.12749432  1
  In  In57  1  0.15163563  0.33587562  0.62256943  1
  In  In58  1  0.17083606  0.66627611  0.12271907  1
  In  In59  1  0.16472709  0.67023772  0.62589221  1
  In  In60  1  0.48724027  0.02065139  0.14560468  1
  In  In61  1  0.51243965  -0.01388718  0.63002720  1
  In  In62  1  0.53061467  0.32124757  0.14158493  1
  In  In63  1  0.49494159  0.33916021  0.61850288  1
  In  In64  1  0.49792622  0.65956969  0.12543557  1
  In  In65  1  0.50074700  0.66644025  0.62569617  1
  In  In66  1  0.80771240  0.01925725  0.14464478  1
  In  In67  1  0.83305428  -0.00268871  0.62974831  1
  In  In68  1  0.83220050  0.32869590  0.12535045  1
  In  In69  1  0.82740916  0.32755512  0.61804981  1
  In  In70  1  0.84006387  0.66712952  0.12036240  1
  In  In71  1  0.83529921  0.66697209  0.62784476  1
  In  In72  1  0.66793375  0.33223521  0.74415395  1
  In  In73  1  0.16551683  0.83787958  0.00201353  1
  In  In74  1  -0.00325260  0.67285745  0.25538677  1
  In  In75  1  0.50654033  0.17160109  0.49336181  1
  In  In76  1  0.00128382  0.32954195  0.75491964  1
  In  In77  1  0.83317446  0.83867927  -0.00514746  1
  In  In78  1  0.66658451  0.67226305  0.26199747  1
  In  In79  1  0.51100754  0.83725607  -0.01796492  1
  In  In80  1  0.33067113  0.33761671  0.75168502  1
  In  In81  1  0.33244974  0.32872210  0.25684674  1
  In  In82  1  0.16215894  0.17004522  0.49649714  1
  In  In83  1  0.33293345  0.67175072  0.24375611  1
  In  In84  1  0.15946975  0.48816520  -0.00556652  1
  In  In85  1  0.50429961  0.49360849  0.00272418  1
  Cu  Cu86  1  -0.00771335  0.66209626  -0.00992056  1
  Cu  Cu87  1  0.15793442  0.49979774  0.25287862  1
  Cu  Cu88  1  0.49331134  0.16647323  0.75556633  1
  Cu  Cu89  1  0.34295590  -0.00229184  0.50459833  1
  Cu  Cu90  1  0.82233041  0.49483898  0.25046333  1
  Cu  Cu91  1  0.67234083  0.33203980  0.00525424  1
  Cu  Cu92  1  0.34106609  0.66472954  -0.01415312  1
  Cu  Cu93  1  0.67544923  -0.00107622  0.50455187  1
  Cu  Cu94  1  0.16464528  0.16029171  0.24817954  1
  Cu  Cu95  1  0.16480026  0.83495488  0.74368041  1
  Cu  Cu96  1  0.83837439  0.49484194  0.74582010  1
  Cu  Cu97  1  0.50463514  0.83431155  0.25321401  1
  Cu  Cu98  1  0.67730633  0.65756870  -0.00615446  1
  Cu  Cu99  1  0.66290230  0.00440576  -0.00025290  1
  Cu  Cu100  1  0.33652267  0.32750318  0.00242014  1
  Cu  Cu101  1  -0.01069417  0.00218624  0.00210779  1
  Cu  Cu102  1  0.66664627  0.66982422  0.50733013  1
  Cu  Cu103  1  0.17630627  0.50508264  0.74191989  1
  Cu  Cu104  1  0.66652560  0.33139216  0.49661651  1
  Cu  Cu105  1  0.83480422  0.17201568  0.24681372  1
  Cu  Cu106  1  0.49406424  0.82989011  0.74108999  1
  Cu  Cu107  1  0.00140960  -0.00092256  0.50464147  1
  Cu  Cu108  1  0.16409018  0.15428496  0.75436566  1
  Cu  Cu109  1  0.32804316  0.34060291  0.49796698  1
  Cu  Cu110  1  0.32958773  0.67169545  0.50559389  1
  Cu  Cu111  1  -0.00022199  0.66926206  0.50667280  1
  Cu  Cu112  1  0.16883797  0.84451915  0.26008575  1
  Cu  Cu113  1  -0.01032765  0.33531700  0.49740238  1
  Cu  Cu114  1  0.32608483  0.00607213  0.00602081  1
  Se  Se115  1  0.07839689  0.08206423  0.05385239  1
  Se  Se116  1  0.08430969  0.07996042  0.56401754  1
  Se  Se117  1  0.08138595  0.41315941  0.06965895  1
  Se  Se118  1  0.07951759  0.41508602  0.54806431  1
  Se  Se119  1  0.07131626  0.73778409  0.05455414  1
  Se  Se120  1  0.08266074  0.75476983  0.55797033  1
  Se  Se121  1  0.41812613  0.08136610  0.05858203  1
  Se  Se122  1  0.42147419  0.08310577  0.56040664  1
  Se  Se123  1  0.41461127  0.40558406  0.06468601  1
  Se  Se124  1  0.41943790  0.42002530  0.54630025  1
  Se  Se125  1  0.42032483  0.74349819  0.04786822  1
  Se  Se126  1  0.41910847  0.75130727  0.55567218  1
  Se  Se127  1  0.75557773  0.08004222  0.05227207  1
  Se  Se128  1  0.75653829  0.08573798  0.55594812  1
  Se  Se129  1  0.75318316  0.41965009  0.05552480  1
  Se  Se130  1  0.74998994  0.41533997  0.55124338  1
  Se  Se131  1  0.74031643  0.74824722  0.05796805  1
  Se  Se132  1  0.75374114  0.75128074  0.55752463  1
  Se  Se133  1  0.24283988  0.24573314  0.04613006  1
  Se  Se134  1  0.25634849  0.25698671  0.55980379  1
  Se  Se135  1  0.25805587  0.58936973  0.04722659  1
  Se  Se136  1  0.24153283  0.58442607  0.55276194  1
  Se  Se137  1  0.25196386  0.92297642  0.06783548  1
  Se  Se138  1  0.25362182  0.91820716  0.55454620  1
  Se  Se139  1  0.58373750  0.24976174  0.05459269  1
  Se  Se140  1  0.59505036  0.25133615  0.56407587  1
  Se  Se141  1  0.59685918  0.58591646  0.06035947  1
  Se  Se142  1  0.58009544  0.58262953  0.55296281  1
  Se  Se143  1  0.57639654  0.92661916  0.05706186  1
  Se  Se144  1  0.58571565  0.91539339  0.55095728  1
  Se  Se145  1  0.90505301  0.24120029  0.05503427  1
  Se  Se146  1  0.91583012  0.24603099  0.55285135  1
  Se  Se147  1  0.90839867  0.58315067  0.04511491  1
  Se  Se148  1  0.91275250  0.58281306  0.55415674  1
  Se  Se149  1  0.91484670  0.92285365  0.06476230  1
  Se  Se150  1  0.91609403  0.91777088  0.55798647  1
  Se  Se151  1  0.06993479  0.25452120  0.43600085  1
  Se  Se152  1  0.06754470  0.26026187  0.95396029  1
  Se  Se153  1  0.07702632  0.58478949  0.44782852  1
  Se  Se154  1  0.08511965  0.59201775  0.93332365  1
  Se  Se155  1  0.09203440  0.91876031  0.45487140  1
  Se  Se156  1  0.06645253  0.91724062  0.94107774  1
  Se  Se157  1  0.40625269  0.25918592  0.43815342  1
  Se  Se158  1  0.42258163  0.24531320  0.95097646  1
  Se  Se159  1  0.41129938  0.58636740  0.45083548  1
  Se  Se160  1  0.42813512  0.58688501  0.93228587  1
  Se  Se161  1  0.42750465  0.92094916  0.44683463  1
  Se  Se162  1  0.40216831  0.92633067  0.94089800  1
  Se  Se163  1  0.74852613  0.24786972  0.44329285  1
  Se  Se164  1  0.75541460  0.24888510  0.95136252  1
  Se  Se165  1  0.74567554  0.58522272  0.44988247  1
  Se  Se166  1  0.76287167  0.57786168  0.94110509  1
  Se  Se167  1  0.75900489  0.91601455  0.45013007  1
  Se  Se168  1  0.74168326  0.92690651  0.93721258  1
  Se  Se169  1  0.26307079  0.08039518  0.44543506  1
  Se  Se170  1  0.24011547  0.08360767  0.95026275  1
  Se  Se171  1  0.23981034  0.42129060  0.44729949  1
  Se  Se172  1  0.26266532  0.40721056  0.93653978  1
  Se  Se173  1  0.24913616  0.75722772  0.45193432  1
  Se  Se174  1  0.25662348  0.75180011  0.93659134  1
  Se  Se175  1  0.59635776  0.07677379  0.43971764  1
  Se  Se176  1  0.57608860  0.08813084  0.94900577  1
  Se  Se177  1  0.58062901  0.41290268  0.44540831  1
  Se  Se178  1  0.59829647  0.41177332  0.93826029  1
  Se  Se179  1  0.58482869  0.75421842  0.45264903  1
  Se  Se180  1  0.60414029  0.74082666  0.93155261  1
  Se  Se181  1  0.92082557  0.08407311  0.45046011  1
  Se  Se182  1  0.90813651  0.07271799  0.93665731  1
  Se  Se183  1  0.90814184  0.41956625  0.44377654  1
  Se  Se184  1  0.93327650  0.41838999  0.95301759  1
  Se  Se185  1  0.91644467  0.75315971  0.45363797  1
  Se  Se186  1  0.91896556  0.74828705  0.93094208  1
  Se  Se187  1  0.24016271  0.23692939  0.31594184  1
  Se  Se188  1  0.24270923  0.24204154  0.80994877  1
  Se  Se189  1  0.23886200  0.58558588  0.30677671  1
  Se  Se190  1  0.25809325  0.58887973  0.79617022  1
  Se  Se191  1  0.25784461  0.92241674  0.31149669  1
  Se  Se192  1  0.24464751  0.91682033  0.80301963  1
  Se  Se193  1  0.56491151  0.23165956  0.30099000  1
  Se  Se194  1  0.57763544  0.24722593  0.80995371  1
  Se  Se195  1  0.57362795  0.57994348  0.31402007  1
  Se  Se196  1  0.59049126  0.57535824  0.79426828  1
  Se  Se197  1  0.59033747  0.91016952  0.30952150  1
  Se  Se198  1  0.56771746  0.90603049  0.80764398  1
  Se  Se199  1  0.91717117  0.25397245  0.30297025  1
  Se  Se200  1  0.91106447  0.24185024  0.81343996  1
  Se  Se201  1  0.90351472  0.57790261  0.30903854  1
  Se  Se202  1  0.92376829  0.57760527  0.79851764  1
  Se  Se203  1  0.92971054  0.92584798  0.31077159  1
  Se  Se204  1  0.88327058  0.89207897  0.79426613  1
  Se  Se205  1  0.08417521  0.07840675  0.30528663  1
  Se  Se206  1  0.07769520  0.07843325  0.81040617  1
  Se  Se207  1  0.07326293  0.41599232  0.30145119  1
  Se  Se208  1  0.10165962  0.42268390  0.80550188  1
  Se  Se209  1  0.08898943  0.75909391  0.31542597  1
  Se  Se210  1  0.07935533  0.75070228  0.79528250  1
  Se  Se211  1  0.43459131  0.08937970  0.29494253  1
  Se  Se212  1  0.40854917  0.08489966  0.80819662  1
  Se  Se213  1  0.41464743  0.42670611  0.31358519  1
  Se  Se214  1  0.43210600  0.42446375  0.80305419  1
  Se  Se215  1  0.42204867  0.75266647  0.31125140  1
  Se  Se216  1  0.41161372  0.74224108  0.79359806  1
  Se  Se217  1  0.75973820  0.08685510  0.30661821  1
  Se  Se218  1  0.72582551  0.07658744  0.80465270  1
  Se  Se219  1  0.74024490  0.41333584  0.30549271  1
  Se  Se220  1  0.76665648  0.41076069  0.80933844  1
  Se  Se221  1  0.76599132  0.75930713  0.31242243  1
  Se  Se222  1  0.74667934  0.74010531  0.79211996  1
  Se  Se223  1  0.25362665  0.07850061  0.19865250  1
  Se  Se224  1  0.25276837  0.07623226  0.70179276  1
  Se  Se225  1  0.24420362  0.42481225  0.19342293  1
  Se  Se226  1  0.24854444  0.41991141  0.68137426  1
  Se  Se227  1  0.24031823  0.76754545  0.18992982  1
  Se  Se228  1  0.25061651  0.75046951  0.69437561  1
  Se  Se229  1  0.61622241  0.05571752  0.18815885  1
  Se  Se230  1  0.57476901  0.08547868  0.69866564  1
  Se  Se231  1  0.57366712  0.42681477  0.20854423  1
  Se  Se232  1  0.57684185  0.42280504  0.68839136  1
  Se  Se233  1  0.57973226  0.75539440  0.18825596  1
  Se  Se234  1  0.58529180  0.75200195  0.69146676  1
  Se  Se235  1  0.91962575  0.08622979  0.19624322  1
  Se  Se236  1  0.91632711  0.07596021  0.70285500  1
  Se  Se237  1  0.91031599  0.41746031  0.19647870  1
  Se  Se238  1  0.91810073  0.41423723  0.68542666  1
  Se  Se239  1  0.90725102  0.75959890  0.19312089  1
  Se  Se240  1  0.91589304  0.74860075  0.69741138  1
  Se  Se241  1  0.08379581  0.24674266  0.19671671  1
  Se  Se242  1  0.08868323  0.23572608  0.69279861  1
  Se  Se243  1  0.08347451  0.58179381  0.18899956  1
  Se  Se244  1  0.08289090  0.58325383  0.69489468  1
  Se  Se245  1  0.07826280  0.91723017  0.20390280  1
  Se  Se246  1  0.07665994  0.92089595  0.69811194  1
  Se  Se247  1  0.40950830  0.24863511  0.18280877  1
  Se  Se248  1  0.42025119  0.24473439  0.69026841  1
  Se  Se249  1  0.42815150  0.57008142  0.19936777  1
  Se  Se250  1  0.41562612  0.58448876  0.69432498  1
  Se  Se251  1  0.41488474  0.91523995  0.20303849  1
  Se  Se252  1  0.41167157  0.91970453  0.69461990  1
  Se  Se253  1  0.74483005  0.24949268  0.19384488  1
  Se  Se254  1  0.76547826  0.23847893  0.69792839  1
  Se  Se255  1  0.75074576  0.58455201  0.19096078  1
  Se  Se256  1  0.75327508  0.57565610  0.69345247  1
  Se  Se257  1  0.76006556  0.90448952  0.20322833  1
  Se  Se258  1  0.72324657  0.94181343  0.69249137  1
