# generated using pymatgen
data_In86Cu29Se144
_symmetry_space_group_name_H-M   'P 1'
_cell_length_a   17.58124654
_cell_length_b   17.57800904
_cell_length_c   23.43585129
_cell_angle_alpha   89.97926593
_cell_angle_beta   90.02148715
_cell_angle_gamma   90.00559246
_symmetry_Int_Tables_number   1
_chemical_formula_structural   In86Cu29Se144
_chemical_formula_sum   'In86 Cu29 Se144'
_cell_volume   7242.69205299
_cell_formula_units_Z   1
loop_
 _symmetry_equiv_pos_site_id
 _symmetry_equiv_pos_as_xyz
  1  'x, y, z'
loop_
 _atom_site_type_symbol
 _atom_site_label
 _atom_site_symmetry_multiplicity
 _atom_site_fract_x
 _atom_site_fract_y
 _atom_site_fract_z
 _atom_site_occupancy
  In  In0  1  0.01000409  0.16561917  0.12452453  1
  In  In1  1  0.01797457  0.18807546  0.60278831  1
  In  In2  1  -0.00145087  0.50846103  0.13861160  1
  In  In3  1  0.00207374  0.49820180  0.62267491  1
  In  In4  1  -0.01245136  0.83405863  0.12417054  1
  In  In5  1  -0.01610604  0.82833751  0.62105966  1
  In  In6  1  0.32821013  0.18728741  0.13010622  1
  In  In7  1  0.33149542  0.17178018  0.62781024  1
  In  In8  1  0.32458194  0.48908886  0.12095894  1
  In  In9  1  0.33304473  0.49897619  0.62424676  1
  In  In10  1  0.33736024  0.82239240  0.11951934  1
  In  In11  1  0.33891516  0.82965120  0.63524498  1
  In  In12  1  0.67189345  0.17073368  0.12631049  1
  In  In13  1  0.66168789  0.16526678  0.62229733  1
  In  In14  1  0.68197701  0.50936994  0.11699050  1
  In  In15  1  0.66872083  0.50487899  0.62308671  1
  In  In16  1  0.66516957  0.81690099  0.12408424  1
  In  In17  1  0.67646893  0.82323489  0.63310206  1
  In  In18  1  0.17201575  0.00344270  0.37690803  1
  In  In19  1  0.17964835  0.00705395  0.87301429  1
  In  In20  1  0.15970550  0.33643025  0.37741849  1
  In  In21  1  0.15629097  0.32562186  0.86848945  1
  In  In22  1  0.13855639  0.65254710  0.36081546  1
  In  In23  1  0.16247093  0.65987158  0.86446638  1
  In  In24  1  0.50964185  0.00859487  0.37938816  1
  In  In25  1  0.50443258  0.00253766  0.86764398  1
  In  In26  1  0.49255086  0.33737299  0.38545238  1
  In  In27  1  0.50015372  0.35325315  0.86784461  1
  In  In28  1  0.49666229  0.64965964  0.37503244  1
  In  In29  1  0.49854241  0.65188999  0.86189339  1
  In  In30  1  0.82726483  0.00245189  0.38379422  1
  In  In31  1  0.82075011  -0.00475936  0.87357456  1
  In  In32  1  0.85368393  0.33462304  0.38935187  1
  In  In33  1  0.85313739  0.33871214  0.87288303  1
  In  In34  1  0.83136859  0.66444630  0.38003035  1
  In  In35  1  0.83372876  0.66114293  0.87345746  1
  In  In36  1  -0.01438614  0.18902172  0.39232907  1
  In  In37  1  0.00872809  0.18970043  0.87127488  1
  In  In38  1  -0.00328017  0.49493080  0.38278552  1
  In  In39  1  -0.01219631  0.48605595  0.86911148  1
  In  In40  1  -0.00539358  0.81409480  0.37275493  1
  In  In41  1  -0.00180349  0.81445383  0.87545214  1
  In  In42  1  0.30550920  0.19204203  0.39531485  1
  In  In43  1  0.32546000  0.16424856  0.86639405  1
  In  In44  1  0.34148538  0.48454489  0.38321983  1
  In  In45  1  0.34131014  0.50145426  0.86098437  1
  In  In46  1  0.32570144  0.83675757  0.37961874  1
  In  In47  1  0.33639509  0.83687656  0.86594521  1
  In  In48  1  0.67216069  0.16596887  0.38688597  1
  In  In49  1  0.67506135  0.15453932  0.86821586  1
  In  In50  1  0.65952262  0.50698640  0.38182353  1
  In  In51  1  0.66016857  0.50749894  0.87647650  1
  In  In52  1  0.67923144  0.83007907  0.37678754  1
  In  In53  1  0.68043523  0.83611158  0.86926103  1
  In  In54  1  0.15418488  0.01288717  0.12100557  1
  In  In55  1  0.17131781  0.01184637  0.62442740  1
  In  In56  1  0.17302826  0.33596292  0.13584545  1
  In  In57  1  0.15778809  0.34096484  0.61871643  1
  In  In58  1  0.15732821  0.65079910  0.13282891  1
  In  In59  1  0.17789117  0.65467398  0.63073100  1
  In  In60  1  0.49962944  -0.00409139  0.12327540  1
  In  In61  1  0.49255846  0.01103426  0.63695275  1
  In  In62  1  0.48235912  0.33822300  0.12467846  1
  In  In63  1  0.49501443  0.33122227  0.62342696  1
  In  In64  1  0.51716651  0.66761023  0.12149976  1
  In  In65  1  0.50334093  0.65617883  0.63539214  1
  In  In66  1  0.84529147  -0.00099289  0.11904629  1
  In  In67  1  0.82728533  -0.00094227  0.62287272  1
  In  In68  1  0.83228258  0.34678382  0.12798740  1
  In  In69  1  0.84796817  0.34586265  0.61114040  1
  In  In70  1  0.83315526  0.66344515  0.12864171  1
  In  In71  1  0.83227067  0.66573877  0.62622026  1
  In  In72  1  0.67205659  0.34197981  0.25245148  1
  In  In73  1  0.16426500  0.83894081  0.00377561  1
  In  In74  1  0.33299591  0.00375203  0.26545841  1
  In  In75  1  0.16492300  0.82878455  0.49390395  1
  In  In76  1  0.51239316  0.83560183  -0.01331875  1
  In  In77  1  0.66638734  0.33657569  0.74193772  1
  In  In78  1  0.67128731  0.00137261  0.25549175  1
  In  In79  1  0.16000893  0.49710755  0.00241405  1
  In  In80  1  0.50522589  0.82719070  0.51524825  1
  In  In81  1  0.00148209  -0.00008366  0.24713930  1
  In  In82  1  -0.00282042  0.00115623  0.73888071  1
  In  In83  1  0.50153837  0.17366451  -0.01369502  1
  In  In84  1  0.83548195  0.16816133  -0.00291712  1
  In  In85  1  0.32958531  0.65810004  0.24739464  1
  Cu  Cu86  1  0.32551026  0.65044642  0.49972284  1
  Cu  Cu87  1  0.49859235  0.82509065  0.24697453  1
  Cu  Cu88  1  0.83453036  0.50224909  0.74478567  1
  Cu  Cu89  1  0.83766909  0.16802798  0.74588826  1
  Cu  Cu90  1  -0.00215289  0.00277774  -0.00315636  1
  Cu  Cu91  1  0.50468237  0.49970605  0.25192234  1
  Cu  Cu92  1  0.33038041  0.33114258  0.50594233  1
  Cu  Cu93  1  0.34260286  0.00062024  0.50782227  1
  Cu  Cu94  1  0.33501256  0.66407056  -0.01460602  1
  Cu  Cu95  1  0.50470083  0.83228295  0.75124064  1
  Cu  Cu96  1  0.16572672  0.17218345  0.25652261  1
  Cu  Cu97  1  0.16622523  0.49637745  0.74549244  1
  Cu  Cu98  1  0.66617427  0.33588741  -0.00287944  1
  Cu  Cu99  1  0.66914479  0.66662879  0.50512700  1
  Cu  Cu100  1  -0.01140513  0.66058747  0.00177338  1
  Cu  Cu101  1  0.66593338  0.00248010  0.50420546  1
  Cu  Cu102  1  0.49913125  0.17478546  0.25467235  1
  Cu  Cu103  1  0.16523615  0.83369712  0.75275927  1
  Cu  Cu104  1  0.50014884  0.16736635  0.74681941  1
  Cu  Cu105  1  0.66580475  0.33828615  0.50240852  1
  Cu  Cu106  1  -0.00500143  -0.00145363  0.50409693  1
  Cu  Cu107  1  -0.00489238  0.66292063  0.50047672  1
  Cu  Cu108  1  0.33254334  0.01757764  -0.00079787  1
  Cu  Cu109  1  0.83606842  0.82621773  0.74908274  1
  Cu  Cu110  1  0.16648858  0.17168886  0.74202207  1
  Cu  Cu111  1  0.83709583  0.50468198  0.25585278  1
  Cu  Cu112  1  0.67698074  0.66012990  -0.00186696  1
  Cu  Cu113  1  0.83296909  0.82605104  0.25004292  1
  Cu  Cu114  1  0.32416946  0.33869350  0.00029119  1
  Se  Se115  1  0.08207585  0.08959023  0.04489636  1
  Se  Se116  1  0.08817772  0.07845605  0.54894445  1
  Se  Se117  1  0.07621700  0.41318293  0.06861870  1
  Se  Se118  1  0.06049587  0.40304326  0.54781485  1
  Se  Se119  1  0.07775835  0.73899548  0.05829467  1
  Se  Se120  1  0.08029155  0.74217081  0.55989915  1
  Se  Se121  1  0.41585035  0.09095461  0.06095143  1
  Se  Se122  1  0.42002273  0.08855186  0.56025954  1
  Se  Se123  1  0.41398852  0.42098679  0.04831966  1
  Se  Se124  1  0.41618874  0.41712620  0.55418419  1
  Se  Se125  1  0.41872894  0.74267566  0.04638521  1
  Se  Se126  1  0.40261650  0.73620208  0.55905524  1
  Se  Se127  1  0.74323150  0.07758626  0.05701932  1
  Se  Se128  1  0.75072914  0.08767407  0.55413712  1
  Se  Se129  1  0.75341803  0.41523036  0.04985874  1
  Se  Se130  1  0.74963614  0.42433536  0.55243594  1
  Se  Se131  1  0.75372216  0.74584531  0.05479463  1
  Se  Se132  1  0.75294756  0.75232904  0.55494648  1
  Se  Se133  1  0.24437714  0.25589847  0.05617897  1
  Se  Se134  1  0.24539243  0.24886617  0.55833122  1
  Se  Se135  1  0.25541551  0.59554050  0.05473160  1
  Se  Se136  1  0.23941593  0.57061536  0.55235220  1
  Se  Se137  1  0.26119116  0.93080444  0.06105330  1
  Se  Se138  1  0.25763999  0.91424929  0.55926373  1
  Se  Se139  1  0.58607416  0.25812894  0.05873024  1
  Se  Se140  1  0.58307818  0.25338550  0.55537866  1
  Se  Se141  1  0.58614449  0.58078401  0.04942421  1
  Se  Se142  1  0.57995207  0.58680819  0.55594846  1
  Se  Se143  1  0.59378113  0.92104799  0.05798355  1
  Se  Se144  1  0.59013438  0.92531236  0.57006108  1
  Se  Se145  1  0.91912114  0.25498046  0.06175016  1
  Se  Se146  1  0.90059932  0.23627268  0.54884305  1
  Se  Se147  1  0.91528752  0.57693416  0.06150322  1
  Se  Se148  1  0.91329369  0.58192786  0.55699660  1
  Se  Se149  1  0.91788668  0.91435788  0.04670153  1
  Se  Se150  1  0.90890301  0.91511642  0.55262620  1
  Se  Se151  1  0.10986923  0.22575226  0.44238108  1
  Se  Se152  1  0.08322733  0.25765901  0.94968301  1
  Se  Se153  1  0.08317838  0.58385091  0.44831677  1
  Se  Se154  1  0.07439601  0.58840940  0.93976761  1
  Se  Se155  1  0.07043731  0.92056226  0.43725432  1
  Se  Se156  1  0.07828124  0.92323647  0.93479172  1
  Se  Se157  1  0.41793143  0.24701008  0.45398212  1
  Se  Se158  1  0.40519136  0.26414865  0.93495031  1
  Se  Se159  1  0.42013379  0.57550810  0.45031524  1
  Se  Se160  1  0.41795201  0.57812774  0.93754660  1
  Se  Se161  1  0.41863919  0.91770384  0.44665408  1
  Se  Se162  1  0.40849229  0.92989193  0.94173752  1
  Se  Se163  1  0.75153439  0.25882788  0.44828425  1
  Se  Se164  1  0.74341238  0.25687418  0.93473475  1
  Se  Se165  1  0.75017775  0.58162725  0.45033877  1
  Se  Se166  1  0.75698113  0.57396078  0.94421539  1
  Se  Se167  1  0.74590597  0.91605445  0.45063023  1
  Se  Se168  1  0.74996805  0.91392749  0.94698552  1
  Se  Se169  1  0.25400560  0.07440069  0.45118482  1
  Se  Se170  1  0.24608291  0.09590228  0.94629622  1
  Se  Se171  1  0.24747736  0.41277136  0.44963006  1
  Se  Se172  1  0.25020962  0.41831616  0.93452417  1
  Se  Se173  1  0.25040124  0.73161942  0.43616543  1
  Se  Se174  1  0.25003702  0.75017309  0.93682758  1
  Se  Se175  1  0.58210183  0.08793345  0.45394865  1
  Se  Se176  1  0.59518436  0.07253401  0.94374610  1
  Se  Se177  1  0.57988352  0.42070928  0.44974746  1
  Se  Se178  1  0.58131946  0.41927182  0.94551590  1
  Se  Se179  1  0.58545663  0.74393826  0.44255443  1
  Se  Se180  1  0.59472223  0.73490625  0.93332261  1
  Se  Se181  1  0.91358135  0.08369757  0.44969777  1
  Se  Se182  1  0.92358858  0.08184273  0.93078197  1
  Se  Se183  1  0.93901907  0.40587465  0.46260750  1
  Se  Se184  1  0.92049858  0.41506513  0.95094160  1
  Se  Se185  1  0.91231764  0.75038004  0.45036563  1
  Se  Se186  1  0.91035825  0.74721593  0.94743201  1
  Se  Se187  1  0.25073662  0.25743915  0.30642695  1
  Se  Se188  1  0.24779053  0.25340169  0.79937413  1
  Se  Se189  1  0.25074773  0.57117876  0.31452036  1
  Se  Se190  1  0.24939461  0.58247494  0.79782311  1
  Se  Se191  1  0.23453399  0.90288903  0.30462089  1
  Se  Se192  1  0.24941418  0.92033506  0.80089367  1
  Se  Se193  1  0.58509527  0.24903038  0.31402366  1
  Se  Se194  1  0.58167360  0.24496350  0.80939015  1
  Se  Se195  1  0.58737171  0.58491350  0.30254276  1
  Se  Se196  1  0.58905855  0.57658379  0.79601658  1
  Se  Se197  1  0.57489350  0.90747462  0.30934266  1
  Se  Se198  1  0.58840037  0.91584229  0.80430194  1
  Se  Se199  1  0.91978434  0.25809209  0.30951767  1
  Se  Se200  1  0.91997684  0.25355215  0.79708451  1
  Se  Se201  1  0.91918034  0.58481463  0.31326742  1
  Se  Se202  1  0.91861688  0.58224270  0.80246803  1
  Se  Se203  1  0.90652026  0.91424293  0.30942081  1
  Se  Se204  1  0.91657581  0.91080176  0.80745602  1
  Se  Se205  1  0.08421307  0.08919253  0.31235000  1
  Se  Se206  1  0.08654382  0.08875593  0.80377937  1
  Se  Se207  1  0.06928364  0.40964896  0.30998034  1
  Se  Se208  1  0.08105534  0.41584145  0.80050923  1
  Se  Se209  1  0.08285619  0.75733849  0.29742327  1
  Se  Se210  1  0.07958357  0.74711520  0.79915248  1
  Se  Se211  1  0.42033807  0.09992350  0.31988025  1
  Se  Se212  1  0.41740857  0.08434178  0.80285275  1
  Se  Se213  1  0.42416797  0.41579462  0.30605923  1
  Se  Se214  1  0.41024070  0.40789679  0.79277988  1
  Se  Se215  1  0.41648132  0.75321328  0.31123029  1
  Se  Se216  1  0.41819148  0.74929963  0.80258106  1
  Se  Se217  1  0.76039174  0.09663613  0.30886303  1
  Se  Se218  1  0.75667078  0.07986409  0.79535608  1
  Se  Se219  1  0.75954339  0.42397978  0.31916768  1
  Se  Se220  1  0.75694557  0.41981063  0.80737000  1
  Se  Se221  1  0.74989835  0.74454994  0.30516537  1
  Se  Se222  1  0.75184365  0.74318243  0.80206920  1
  Se  Se223  1  0.24532156  0.08833770  0.19593745  1
  Se  Se224  1  0.25350110  0.08288349  0.69846316  1
  Se  Se225  1  0.25465795  0.42230633  0.20128254  1
  Se  Se226  1  0.24569829  0.41347316  0.68912413  1
  Se  Se227  1  0.24308874  0.75544816  0.18892415  1
  Se  Se228  1  0.24824575  0.74952597  0.69835385  1
  Se  Se229  1  0.57401309  0.09146396  0.19473866  1
  Se  Se230  1  0.59073453  0.08510091  0.70002637  1
  Se  Se231  1  0.58147920  0.42301480  0.18556249  1
  Se  Se232  1  0.57184155  0.42826964  0.69097284  1
  Se  Se233  1  0.58750623  0.74381344  0.20042457  1
  Se  Se234  1  0.58547447  0.74664220  0.69840269  1
  Se  Se235  1  0.90823765  0.09266432  0.19205819  1
  Se  Se236  1  0.91858148  0.09768719  0.67879191  1
  Se  Se237  1  0.91497128  0.41765928  0.20210862  1
  Se  Se238  1  0.91749495  0.41610966  0.69380349  1
  Se  Se239  1  0.91959227  0.74656468  0.19671972  1
  Se  Se240  1  0.92023614  0.74371265  0.69724280  1
  Se  Se241  1  0.08304308  0.24903814  0.19745895  1
  Se  Se242  1  0.08012485  0.25259613  0.69007196  1
  Se  Se243  1  0.09147626  0.57372305  0.20985456  1
  Se  Se244  1  0.08115340  0.58111543  0.69411418  1
  Se  Se245  1  0.09195262  0.90945381  0.18651292  1
  Se  Se246  1  0.09017573  0.90711434  0.68339120  1
  Se  Se247  1  0.41472120  0.25724572  0.20242288  1
  Se  Se248  1  0.41650109  0.25274695  0.69745131  1
  Se  Se249  1  0.42653431  0.57720270  0.18550206  1
  Se  Se250  1  0.39569992  0.59603964  0.69380371  1
  Se  Se251  1  0.41676546  0.91052304  0.19445287  1
  Se  Se252  1  0.41757612  0.91726042  0.70198591  1
  Se  Se253  1  0.75987270  0.24507972  0.19613279  1
  Se  Se254  1  0.76041825  0.25027336  0.68435707  1
  Se  Se255  1  0.74977000  0.58124625  0.19909700  1
  Se  Se256  1  0.74733830  0.58505032  0.69602234  1
  Se  Se257  1  0.75704056  0.91186016  0.18976494  1
  Se  Se258  1  0.75563965  0.91549070  0.69789869  1
