# generated using pymatgen
data_In86Cu29Se144
_symmetry_space_group_name_H-M   'P 1'
_cell_length_a   17.58120654
_cell_length_b   17.58957968
_cell_length_c   23.44936496
_cell_angle_alpha   90.00832134
_cell_angle_beta   89.99842776
_cell_angle_gamma   90.00507998
_symmetry_Int_Tables_number   1
_chemical_formula_structural   In86Cu29Se144
_chemical_formula_sum   'In86 Cu29 Se144'
_cell_volume   7251.62299034
_cell_formula_units_Z   1
loop_
 _symmetry_equiv_pos_site_id
 _symmetry_equiv_pos_as_xyz
  1  'x, y, z'
loop_
 _atom_site_type_symbol
 _atom_site_label
 _atom_site_symmetry_multiplicity
 _atom_site_fract_x
 _atom_site_fract_y
 _atom_site_fract_z
 _atom_site_occupancy
  In  In0  1  0.00572807  0.16265832  0.13191104  1
  In  In1  1  0.00335437  0.15142518  0.62719088  1
  In  In2  1  -0.00093266  0.49836446  0.13414471  1
  In  In3  1  0.02207168  0.52304675  0.61435008  1
  In  In4  1  0.00991567  0.83985966  0.12912878  1
  In  In5  1  0.00032528  0.83349865  0.61881746  1
  In  In6  1  0.32559253  0.15624382  0.11450989  1
  In  In7  1  0.34329497  0.16742994  0.61456797  1
  In  In8  1  0.34159588  0.49394734  0.12641099  1
  In  In9  1  0.32602896  0.49653811  0.63121717  1
  In  In10  1  0.33615673  0.83572361  0.13647181  1
  In  In11  1  0.31488973  0.83438442  0.61497267  1
  In  In12  1  0.65188331  0.16054075  0.12282713  1
  In  In13  1  0.65126222  0.16391421  0.62564169  1
  In  In14  1  0.65954282  0.51228148  0.12870651  1
  In  In15  1  0.67204732  0.50606892  0.61807851  1
  In  In16  1  0.65752888  0.83410113  0.13639755  1
  In  In17  1  0.67340312  0.82277035  0.62855774  1
  In  In18  1  0.16850079  0.00153760  0.37832567  1
  In  In19  1  0.17208162  0.01874003  0.87346151  1
  In  In20  1  0.15891770  0.34181098  0.38017026  1
  In  In21  1  0.16544059  0.31891958  0.87314470  1
  In  In22  1  0.18178616  0.65565244  0.38319163  1
  In  In23  1  0.17332468  0.65817353  0.85210496  1
  In  In24  1  0.50604300  0.00443072  0.37295693  1
  In  In25  1  0.50428781  0.00278194  0.88049282  1
  In  In26  1  0.49538800  0.33649633  0.38374695  1
  In  In27  1  0.49009584  0.34334950  0.87961443  1
  In  In28  1  0.48577581  0.65897158  0.37333937  1
  In  In29  1  0.49458531  0.65476323  0.85950292  1
  In  In30  1  0.82950218  -0.01034440  0.37070387  1
  In  In31  1  0.83025234  -0.00789413  0.86993532  1
  In  In32  1  0.84829119  0.33251188  0.37654004  1
  In  In33  1  0.84005087  0.34153413  0.87379066  1
  In  In34  1  0.82723421  0.67491865  0.38432766  1
  In  In35  1  0.82669994  0.66116545  0.86042219  1
  In  In36  1  0.01271025  0.17557216  0.36942473  1
  In  In37  1  0.02106639  0.16674618  0.87531888  1
  In  In38  1  0.01438238  0.48735738  0.38477575  1
  In  In39  1  -0.00397789  0.49957693  0.86726437  1
  In  In40  1  -0.00596948  0.84011804  0.38097075  1
  In  In41  1  0.00120119  0.83128748  0.86537038  1
  In  In42  1  0.33830861  0.15643306  0.38802999  1
  In  In43  1  0.32128310  0.17286115  0.88463216  1
  In  In44  1  0.32038568  0.51226351  0.38467041  1
  In  In45  1  0.34860034  0.50217538  0.85803566  1
  In  In46  1  0.32510530  0.82770611  0.37611471  1
  In  In47  1  0.34112853  0.83281229  0.87292491  1
  In  In48  1  0.66617270  0.15380615  0.37361984  1
  In  In49  1  0.66120609  0.15073978  0.87881354  1
  In  In50  1  0.65650402  0.50944994  0.38361861  1
  In  In51  1  0.65316522  0.49567260  0.86658203  1
  In  In52  1  0.67402621  0.83656639  0.37300750  1
  In  In53  1  0.66568082  0.83613159  0.86588586  1
  In  In54  1  0.16557966  0.00532248  0.13412172  1
  In  In55  1  0.16297645  -0.01060922  0.60937664  1
  In  In56  1  0.17233625  0.32178592  0.12820512  1
  In  In57  1  0.18846108  0.34931760  0.61657610  1
  In  In58  1  0.16847766  0.67771662  0.12928447  1
  In  In59  1  0.16478653  0.66507756  0.62722016  1
  In  In60  1  0.49676081  0.00484961  0.13305882  1
  In  In61  1  0.49640696  0.01427843  0.62473683  1
  In  In62  1  0.48871033  0.32961108  0.11410796  1
  In  In63  1  0.49135813  0.33067116  0.62487725  1
  In  In64  1  0.49833169  0.66655174  0.13037399  1
  In  In65  1  0.50348822  0.64986797  0.63885020  1
  In  In66  1  0.83083868  0.00263750  0.13339845  1
  In  In67  1  0.84112452  -0.01263405  0.63000011  1
  In  In68  1  0.84066017  0.33993894  0.12920451  1
  In  In69  1  0.82449428  0.34148749  0.62389462  1
  In  In70  1  0.82441838  0.65160463  0.12786030  1
  In  In71  1  0.83749526  0.67019203  0.61907636  1
  In  In72  1  0.33046984  -0.00348379  0.74646456  1
  In  In73  1  0.66123340  0.33161801  0.74383536  1
  In  In74  1  0.17125128  0.83924703  0.00212095  1
  In  In75  1  0.83264038  0.16732077  0.00533554  1
  In  In76  1  0.00700207  0.33387892  0.75006525  1
  In  In77  1  0.67005433  0.33123169  0.24362571  1
  In  In78  1  0.32709252  0.33429776  0.25051320  1
  In  In79  1  0.17024058  0.49420331  0.00123744  1
  In  In80  1  0.82723331  0.83402236  -0.00334453  1
  In  In81  1  0.49768107  0.83289760  0.50037795  1
  In  In82  1  0.83105682  0.49436060  -0.01149972  1
  In  In83  1  0.83230994  0.16624045  0.49684686  1
  In  In84  1  -0.00322890  0.66980849  0.25972731  1
  In  In85  1  0.49773956  0.83904335  -0.00281214  1
  Cu  Cu86  1  -0.00189690  0.65977405  -0.00810781  1
  Cu  Cu87  1  0.50146310  0.83140512  0.25847112  1
  Cu  Cu88  1  0.66398723  0.33515194  -0.00196149  1
  Cu  Cu89  1  -0.00110908  0.33509043  0.50217067  1
  Cu  Cu90  1  0.83138918  0.50051288  0.25582240  1
  Cu  Cu91  1  0.33741442  0.33729746  -0.00262436  1
  Cu  Cu92  1  0.33600917  0.66399696  -0.00837526  1
  Cu  Cu93  1  0.50158496  0.83270684  0.74827732  1
  Cu  Cu94  1  0.33554149  0.65973737  0.50526620  1
  Cu  Cu95  1  0.00417407  0.00628269  0.00204657  1
  Cu  Cu96  1  0.66258192  0.33802039  0.50324666  1
  Cu  Cu97  1  0.65409775  0.66701366  0.00165446  1
  Cu  Cu98  1  0.49614634  0.16578626  0.74955079  1
  Cu  Cu99  1  0.15748739  0.83515693  0.74030621  1
  Cu  Cu100  1  0.16937656  0.16276675  0.25293890  1
  Cu  Cu101  1  0.17154768  0.16579187  0.74725568  1
  Cu  Cu102  1  0.66457453  0.66685677  0.50462715  1
  Cu  Cu103  1  0.83944380  0.16088021  0.25513502  1
  Cu  Cu104  1  0.33338375  0.33257558  0.50212216  1
  Cu  Cu105  1  0.16908288  0.83733721  0.25521078  1
  Cu  Cu106  1  0.83903805  0.50813085  0.73968689  1
  Cu  Cu107  1  0.49557351  0.50660613  0.25191009  1
  Cu  Cu108  1  0.83443426  0.15551285  0.75200060  1
  Cu  Cu109  1  0.49897920  0.16347931  0.25178726  1
  Cu  Cu110  1  0.83309560  0.82965417  0.25514127  1
  Cu  Cu111  1  0.66642705  -0.00045251  0.49680903  1
  Cu  Cu112  1  0.83524770  0.83520742  0.74327598  1
  Cu  Cu113  1  0.00128057  -0.00113251  0.49873030  1
  Cu  Cu114  1  0.00340548  0.67009880  0.49904901  1
  Se  Se115  1  0.08664218  0.08357207  0.05949755  1
  Se  Se116  1  0.08273697  0.08660484  0.54849796  1
  Se  Se117  1  0.07825760  0.41133573  0.06377115  1
  Se  Se118  1  0.08557103  0.41662906  0.55415711  1
  Se  Se119  1  0.07265166  0.74255719  0.05364526  1
  Se  Se120  1  0.08842841  0.75036775  0.55432214  1
  Se  Se121  1  0.43458075  0.09347806  0.05844886  1
  Se  Se122  1  0.41911396  0.07891153  0.54679191  1
  Se  Se123  1  0.41850358  0.42572543  0.04758559  1
  Se  Se124  1  0.41134673  0.41835725  0.55866857  1
  Se  Se125  1  0.40733500  0.74709833  0.05665032  1
  Se  Se126  1  0.41650921  0.74043585  0.56511865  1
  Se  Se127  1  0.74184477  0.07172005  0.05745318  1
  Se  Se128  1  0.74594230  0.07815143  0.56108874  1
  Se  Se129  1  0.74224367  0.41425690  0.06031281  1
  Se  Se130  1  0.75280728  0.42063776  0.54883014  1
  Se  Se131  1  0.74030610  0.74180525  0.06000979  1
  Se  Se132  1  0.75121979  0.75326600  0.55073302  1
  Se  Se133  1  0.25333471  0.25507129  0.05126047  1
  Se  Se134  1  0.24872276  0.24592880  0.55153911  1
  Se  Se135  1  0.25526327  0.59318313  0.05852845  1
  Se  Se136  1  0.24785018  0.58020533  0.55873483  1
  Se  Se137  1  0.25963742  0.92446311  0.06423325  1
  Se  Se138  1  0.25885827  0.92502756  0.54116606  1
  Se  Se139  1  0.58387365  0.25156397  0.05279575  1
  Se  Se140  1  0.58117160  0.25263234  0.55586373  1
  Se  Se141  1  0.57405499  0.58355629  0.05611271  1
  Se  Se142  1  0.57760459  0.58501593  0.55522212  1
  Se  Se143  1  0.58816193  0.92076292  0.06153747  1
  Se  Se144  1  0.58938575  0.92091042  0.56171472  1
  Se  Se145  1  0.92564803  0.25712211  0.06057253  1
  Se  Se146  1  0.91984779  0.25319595  0.56259681  1
  Se  Se147  1  0.92104999  0.58318165  0.05514972  1
  Se  Se148  1  0.91829333  0.58435570  0.55036945  1
  Se  Se149  1  0.92256071  0.92178809  0.05746729  1
  Se  Se150  1  0.91453397  0.91717428  0.55033955  1
  Se  Se151  1  0.08143223  0.25190944  0.44854298  1
  Se  Se152  1  0.08600314  0.25075390  0.94943354  1
  Se  Se153  1  0.08720052  0.58284265  0.44947071  1
  Se  Se154  1  0.08634701  0.58739241  0.93492104  1
  Se  Se155  1  0.08634683  0.91454471  0.44706109  1
  Se  Se156  1  0.07664562  0.92157576  0.93943368  1
  Se  Se157  1  0.41922948  0.24864768  0.45106090  1
  Se  Se158  1  0.41897178  0.24936230  0.94626339  1
  Se  Se159  1  0.42012924  0.57767905  0.45170852  1
  Se  Se160  1  0.41760710  0.58207604  0.93724622  1
  Se  Se161  1  0.41244416  0.92196074  0.43883996  1
  Se  Se162  1  0.39974188  0.93011569  0.94538046  1
  Se  Se163  1  0.74000057  0.25863517  0.43855091  1
  Se  Se164  1  0.74708511  0.25906447  0.93834921  1
  Se  Se165  1  0.74903476  0.58384302  0.45020881  1
  Se  Se166  1  0.73837982  0.59197869  0.93904570  1
  Se  Se167  1  0.75190575  0.91542635  0.44753748  1
  Se  Se168  1  0.73415273  0.92560557  0.94371363  1
  Se  Se169  1  0.23392474  0.09463564  0.44934812  1
  Se  Se170  1  0.24708828  0.08297723  0.95246078  1
  Se  Se171  1  0.24870030  0.41598935  0.44913156  1
  Se  Se172  1  0.25918007  0.41517635  0.93325492  1
  Se  Se173  1  0.25407795  0.74654777  0.45284600  1
  Se  Se174  1  0.24931787  0.74182440  0.93611004  1
  Se  Se175  1  0.58239187  0.08559848  0.44857940  1
  Se  Se176  1  0.57429291  0.08856700  0.95290634  1
  Se  Se177  1  0.57792412  0.42089586  0.45039069  1
  Se  Se178  1  0.58315101  0.42114555  0.94542835  1
  Se  Se179  1  0.58644006  0.74350117  0.43887903  1
  Se  Se180  1  0.58265255  0.74599581  0.93574630  1
  Se  Se181  1  0.92268999  0.07947888  0.43572049  1
  Se  Se182  1  0.91951147  0.07872573  0.93939087  1
  Se  Se183  1  0.91468300  0.41890278  0.45083644  1
  Se  Se184  1  0.93753090  0.40476839  0.94535944  1
  Se  Se185  1  0.91627586  0.75385264  0.44988990  1
  Se  Se186  1  0.91653468  0.74111358  0.93619860  1
  Se  Se187  1  0.24624416  0.24378677  0.31564785  1
  Se  Se188  1  0.25403998  0.24686673  0.80248216  1
  Se  Se189  1  0.25391487  0.58470762  0.30406631  1
  Se  Se190  1  0.27225243  0.59089805  0.78939585  1
  Se  Se191  1  0.25319075  0.92062192  0.30779960  1
  Se  Se192  1  0.23735152  0.90863941  0.80842854  1
  Se  Se193  1  0.57760274  0.24921502  0.30899457  1
  Se  Se194  1  0.57932027  0.24326306  0.81057122  1
  Se  Se195  1  0.58127469  0.58500933  0.30665624  1
  Se  Se196  1  0.59808124  0.59188854  0.79666712  1
  Se  Se197  1  0.58740195  0.91772494  0.30643431  1
  Se  Se198  1  0.57502081  0.92067982  0.80496113  1
  Se  Se199  1  0.91984202  0.25129868  0.30225713  1
  Se  Se200  1  0.91309108  0.24081621  0.80939030  1
  Se  Se201  1  0.91146373  0.57663574  0.31921294  1
  Se  Se202  1  0.92247369  0.58639809  0.79734186  1
  Se  Se203  1  0.92008071  0.91431740  0.30221331  1
  Se  Se204  1  0.91735058  0.91678199  0.80091425  1
  Se  Se205  1  0.08392895  0.07906978  0.30476170  1
  Se  Se206  1  0.08477951  0.08259865  0.79785230  1
  Se  Se207  1  0.08041883  0.41381593  0.30411333  1
  Se  Se208  1  0.09908606  0.42488794  0.80726889  1
  Se  Se209  1  0.09251618  0.75489786  0.31739100  1
  Se  Se210  1  0.08130428  0.74750978  0.79695329  1
  Se  Se211  1  0.41483265  0.08570784  0.30849863  1
  Se  Se212  1  0.41416651  0.08689558  0.81085064  1
  Se  Se213  1  0.41776939  0.42318529  0.31143423  1
  Se  Se214  1  0.42647027  0.40901350  0.79545976  1
  Se  Se215  1  0.41158631  0.74950242  0.30619501  1
  Se  Se216  1  0.41451874  0.75227333  0.80017621  1
  Se  Se217  1  0.75069067  0.07934473  0.30341069  1
  Se  Se218  1  0.74613566  0.07958710  0.80589088  1
  Se  Se219  1  0.74933082  0.41774150  0.31369851  1
  Se  Se220  1  0.76090914  0.42316116  0.79985623  1
  Se  Se221  1  0.74967555  0.74458299  0.30518193  1
  Se  Se222  1  0.74948268  0.75442707  0.79830798  1
  Se  Se223  1  0.25756892  0.08604182  0.19787590  1
  Se  Se224  1  0.24482407  0.08435991  0.68278542  1
  Se  Se225  1  0.23842266  0.42829082  0.19262070  1
  Se  Se226  1  0.25664962  0.40494949  0.70245724  1
  Se  Se227  1  0.25016059  0.75200794  0.20141324  1
  Se  Se228  1  0.24825855  0.75512457  0.69293883  1
  Se  Se229  1  0.58769844  0.08127760  0.20240283  1
  Se  Se230  1  0.58195752  0.08045393  0.70108029  1
  Se  Se231  1  0.56854499  0.41916808  0.19095171  1
  Se  Se232  1  0.57733839  0.42700935  0.68741779  1
  Se  Se233  1  0.58076961  0.74500806  0.20210593  1
  Se  Se234  1  0.58414370  0.74735907  0.69682917  1
  Se  Se235  1  0.92181317  0.07842237  0.19872308  1
  Se  Se236  1  0.91934867  0.07630471  0.69786221  1
  Se  Se237  1  0.91621798  0.41793285  0.20373344  1
  Se  Se238  1  0.92005196  0.42247362  0.68581202  1
  Se  Se239  1  0.90942538  0.75276845  0.18752283  1
  Se  Se240  1  0.91880952  0.75193969  0.69023715  1
  Se  Se241  1  0.08723395  0.24850359  0.20013327  1
  Se  Se242  1  0.09238960  0.24651220  0.68550701  1
  Se  Se243  1  0.08857749  0.58467957  0.19644906  1
  Se  Se244  1  0.08560462  0.58428946  0.70006448  1
  Se  Se245  1  0.08383104  0.91918198  0.20214184  1
  Se  Se246  1  0.08063790  0.92286159  0.68715113  1
  Se  Se247  1  0.41918721  0.24455530  0.19121853  1
  Se  Se248  1  0.41255668  0.24473812  0.69417179  1
  Se  Se249  1  0.40991819  0.58536922  0.19667541  1
  Se  Se250  1  0.39669082  0.59120850  0.70135546  1
  Se  Se251  1  0.42134909  0.91699701  0.20260703  1
  Se  Se252  1  0.42018267  0.90776345  0.68469893  1
  Se  Se253  1  0.76061156  0.23571510  0.18756985  1
  Se  Se254  1  0.75830440  0.23725701  0.69093290  1
  Se  Se255  1  0.74478401  0.58122512  0.20381776  1
  Se  Se256  1  0.75167900  0.58839153  0.68863805  1
  Se  Se257  1  0.75142475  0.91295536  0.19833697  1
  Se  Se258  1  0.74434526  0.91813327  0.69611714  1
