# generated using pymatgen
data_In86Cu29Se144
_symmetry_space_group_name_H-M   'P 1'
_cell_length_a   17.57962331
_cell_length_b   17.58105643
_cell_length_c   23.43520275
_cell_angle_alpha   89.99345479
_cell_angle_beta   89.97736373
_cell_angle_gamma   90.03038795
_symmetry_Int_Tables_number   1
_chemical_formula_structural   In86Cu29Se144
_chemical_formula_sum   'In86 Cu29 Se144'
_cell_volume   7243.07780181
_cell_formula_units_Z   1
loop_
 _symmetry_equiv_pos_site_id
 _symmetry_equiv_pos_as_xyz
  1  'x, y, z'
loop_
 _atom_site_type_symbol
 _atom_site_label
 _atom_site_symmetry_multiplicity
 _atom_site_fract_x
 _atom_site_fract_y
 _atom_site_fract_z
 _atom_site_occupancy
  In  In0  1  -0.00794798  0.16275257  0.11376197  1
  In  In1  1  0.00461748  0.16957179  0.62126237  1
  In  In2  1  0.00668738  0.50431516  0.11908740  1
  In  In3  1  -0.00327463  0.49372815  0.62313361  1
  In  In4  1  -0.00509783  0.83740165  0.13795552  1
  In  In5  1  0.01471143  0.85593688  0.60154888  1
  In  In6  1  0.33064308  0.18214139  0.13006086  1
  In  In7  1  0.32119007  0.18318347  0.63108843  1
  In  In8  1  0.32570852  0.50620857  0.13434148  1
  In  In9  1  0.31759874  0.49728572  0.62176413  1
  In  In10  1  0.33153167  0.81943797  0.12563195  1
  In  In11  1  0.32188536  0.84283966  0.62137400  1
  In  In12  1  0.67621721  0.15559878  0.12604989  1
  In  In13  1  0.66789204  0.14768820  0.63060409  1
  In  In14  1  0.67846722  0.50376030  0.12583681  1
  In  In15  1  0.68644388  0.50440516  0.62874130  1
  In  In16  1  0.65521899  0.83808694  0.13892427  1
  In  In17  1  0.67773514  0.82950622  0.62818753  1
  In  In18  1  0.14807415  0.01131377  0.39002713  1
  In  In19  1  0.16625104  0.01396767  0.86744215  1
  In  In20  1  0.17071484  0.33056622  0.37882639  1
  In  In21  1  0.16336119  0.32540599  0.87109792  1
  In  In22  1  0.16204898  0.66641317  0.37623269  1
  In  In23  1  0.15226853  0.65843501  0.87853250  1
  In  In24  1  0.50936330  -0.01281322  0.36695487  1
  In  In25  1  0.50145658  -0.01783702  0.87966355  1
  In  In26  1  0.49651577  0.34721693  0.36329439  1
  In  In27  1  0.48425824  0.33901085  0.87176808  1
  In  In28  1  0.50560992  0.67066697  0.34514676  1
  In  In29  1  0.51577898  0.66703100  0.87789584  1
  In  In30  1  0.83508974  -0.00242286  0.37776276  1
  In  In31  1  0.84946296  0.01216124  0.86004197  1
  In  In32  1  0.84301900  0.32270915  0.38597287  1
  In  In33  1  0.86274971  0.31088112  0.90027185  1
  In  In34  1  0.83605810  0.66592048  0.37562769  1
  In  In35  1  0.83043824  0.66566772  0.87516885  1
  In  In36  1  0.00397110  0.15609477  0.38916745  1
  In  In37  1  0.00408500  0.16708441  0.87034549  1
  In  In38  1  -0.00931692  0.50556005  0.38194283  1
  In  In39  1  0.01931989  0.47699471  0.89835247  1
  In  In40  1  0.00114294  0.83480461  0.38156904  1
  In  In41  1  -0.00832213  0.83668105  0.86764452  1
  In  In42  1  0.32103344  0.16590475  0.37167313  1
  In  In43  1  0.31402587  0.16744571  0.87503613  1
  In  In44  1  0.32830560  0.49360304  0.36222138  1
  In  In45  1  0.32775888  0.48343957  0.87153691  1
  In  In46  1  0.33133461  0.82265075  0.37163019  1
  In  In47  1  0.33973856  0.84371551  0.88093376  1
  In  In48  1  0.68553910  0.16223724  0.37465132  1
  In  In49  1  0.68449200  0.16637204  0.87495522  1
  In  In50  1  0.67101218  0.50879562  0.37214468  1
  In  In51  1  0.67399669  0.51166942  0.87424881  1
  In  In52  1  0.66884950  0.83999651  0.36310941  1
  In  In53  1  0.67051603  0.82673836  0.87037210  1
  In  In54  1  0.15017114  -0.00062867  0.12742835  1
  In  In55  1  0.14915458  -0.00028232  0.61726541  1
  In  In56  1  0.16436099  0.34308315  0.11294559  1
  In  In57  1  0.16021024  0.33310676  0.62415541  1
  In  In58  1  0.17778850  0.65895080  0.13430239  1
  In  In59  1  0.17001544  0.66740806  0.61589390  1
  In  In60  1  0.52114045  0.00496222  0.13071670  1
  In  In61  1  0.50335645  0.00541044  0.62746353  1
  In  In62  1  0.48059702  0.33089629  0.13459976  1
  In  In63  1  0.49001951  0.32662596  0.62894684  1
  In  In64  1  0.48291485  0.67782559  0.14265662  1
  In  In65  1  0.51060444  0.67956026  0.62211405  1
  In  In66  1  0.83037445  0.00084269  0.12925282  1
  In  In67  1  0.83846836  -0.00057479  0.61981102  1
  In  In68  1  0.84330832  0.33681472  0.10840197  1
  In  In69  1  0.84871050  0.34446849  0.62199107  1
  In  In70  1  0.83513296  0.66499206  0.13779623  1
  In  In71  1  0.83049751  0.66597429  0.62112119  1
  In  In72  1  0.33618491  0.66610790  0.73919221  1
  In  In73  1  -0.00883548  0.67016722  0.74857362  1
  In  In74  1  0.67243708  0.33516513  0.75466917  1
  In  In75  1  0.50564401  0.50234188  0.00280310  1
  In  In76  1  0.16964948  0.82686647  -0.00014305  1
  In  In77  1  0.83235142  0.83395125  -0.00260172  1
  In  In78  1  0.00218944  0.32992426  0.24330195  1
  In  In79  1  0.50607636  0.16331189  0.01052833  1
  In  In80  1  0.33535236  -0.00531808  0.25513948  1
  In  In81  1  0.49866579  0.83006444  0.48616179  1
  In  In82  1  0.49856499  0.50561049  0.48319700  1
  In  In83  1  0.49628608  0.16821529  0.50071468  1
  In  In84  1  0.66575269  0.32789931  0.24539264  1
  In  In85  1  0.32990139  0.00277458  0.74796440  1
  Cu  Cu86  1  0.83863640  0.15589637  0.24855018  1
  Cu  Cu87  1  0.00184817  0.66020467  0.01062757  1
  Cu  Cu88  1  0.16467326  0.16786325  0.25654279  1
  Cu  Cu89  1  0.32505884  0.33073470  -0.00160189  1
  Cu  Cu90  1  0.83933144  0.50163439  0.75461214  1
  Cu  Cu91  1  0.33434239  0.00231316  -0.00085120  1
  Cu  Cu92  1  0.67046750  -0.00592939  0.49902927  1
  Cu  Cu93  1  0.16360762  0.49432979  0.75003872  1
  Cu  Cu94  1  0.83197953  0.50073456  0.25551342  1
  Cu  Cu95  1  0.00428899  0.33788778  0.50276924  1
  Cu  Cu96  1  0.32110860  0.00612933  0.49994987  1
  Cu  Cu97  1  0.83435756  0.83972004  0.74189135  1
  Cu  Cu98  1  0.83964086  0.16832273  0.74759804  1
  Cu  Cu99  1  0.16020666  0.83490216  0.25588149  1
  Cu  Cu100  1  0.67557009  0.33069619  0.50423985  1
  Cu  Cu101  1  0.33631284  0.65661295  0.00741306  1
  Cu  Cu102  1  0.83476479  0.83072942  0.25758217  1
  Cu  Cu103  1  0.67066742  0.66334038  0.49549633  1
  Cu  Cu104  1  0.67541459  -0.00212578  0.00338332  1
  Cu  Cu105  1  -0.00264997  0.66363933  0.49956807  1
  Cu  Cu106  1  0.66354716  0.67808414  0.00327636  1
  Cu  Cu107  1  0.66653888  0.33483728  0.00225653  1
  Cu  Cu108  1  0.49822033  0.16274367  0.75170664  1
  Cu  Cu109  1  0.32746508  0.33949728  0.49686476  1
  Cu  Cu110  1  0.32931830  0.66618529  0.49196526  1
  Cu  Cu111  1  0.51082299  0.82758630  0.75233271  1
  Cu  Cu112  1  0.00228960  0.00596780  -0.00555347  1
  Cu  Cu113  1  0.50369457  0.50369877  0.75256342  1
  Cu  Cu114  1  0.16396590  0.49964197  0.24944307  1
  Se  Se115  1  0.08768789  0.08376699  0.05033010  1
  Se  Se116  1  0.08002476  0.08827280  0.54718050  1
  Se  Se117  1  0.06303961  0.40588652  0.04939295  1
  Se  Se118  1  0.08847047  0.42408708  0.55306171  1
  Se  Se119  1  0.07904339  0.74767331  0.06734433  1
  Se  Se120  1  0.08586741  0.74721572  0.54760547  1
  Se  Se121  1  0.40983370  0.07635752  0.06709343  1
  Se  Se122  1  0.40390377  0.08022340  0.56264475  1
  Se  Se123  1  0.40730203  0.41304278  0.05665138  1
  Se  Se124  1  0.41640461  0.41576943  0.55332942  1
  Se  Se125  1  0.41892317  0.74443711  0.05550416  1
  Se  Se126  1  0.40761922  0.74596456  0.55464936  1
  Se  Se127  1  0.76011137  0.08306426  0.05248407  1
  Se  Se128  1  0.74730930  0.08208988  0.55292514  1
  Se  Se129  1  0.74963747  0.42260171  0.05087838  1
  Se  Se130  1  0.75420182  0.41965744  0.55526231  1
  Se  Se131  1  0.74729992  0.75190422  0.06559810  1
  Se  Se132  1  0.74688002  0.74869581  0.55158111  1
  Se  Se133  1  0.24620261  0.24592398  0.05343175  1
  Se  Se134  1  0.24816480  0.25518981  0.55263423  1
  Se  Se135  1  0.24697046  0.57756083  0.05657976  1
  Se  Se136  1  0.25029744  0.58182612  0.54739856  1
  Se  Se137  1  0.25363605  0.92167779  0.06182073  1
  Se  Se138  1  0.24121581  0.91794525  0.55045792  1
  Se  Se139  1  0.58941046  0.26192252  0.06817038  1
  Se  Se140  1  0.59085880  0.25413858  0.56345741  1
  Se  Se141  1  0.58626434  0.59575589  0.06466336  1
  Se  Se142  1  0.58813717  0.58406378  0.55500423  1
  Se  Se143  1  0.59051602  0.91809433  0.05743284  1
  Se  Se144  1  0.58217778  0.91686989  0.55594894  1
  Se  Se145  1  0.92243536  0.25167342  0.04293581  1
  Se  Se146  1  0.91753164  0.25338939  0.55254420  1
  Se  Se147  1  0.90843313  0.58633233  0.06129624  1
  Se  Se148  1  0.91575692  0.58103211  0.55620954  1
  Se  Se149  1  0.92708389  0.92105401  0.05612835  1
  Se  Se150  1  0.89560908  0.90157193  0.54859383  1
  Se  Se151  1  0.08472842  0.25320309  0.44782145  1
  Se  Se152  1  0.07360408  0.25621806  0.94181311  1
  Se  Se153  1  0.08356225  0.58117797  0.44720369  1
  Se  Se154  1  0.09049995  0.58050626  0.95907594  1
  Se  Se155  1  0.07162252  0.92182208  0.45469702  1
  Se  Se156  1  0.08014201  0.91725954  0.93907651  1
  Se  Se157  1  0.41236871  0.26118519  0.43804374  1
  Se  Se158  1  0.41372348  0.24922049  0.94619215  1
  Se  Se159  1  0.41170460  0.59910561  0.42599942  1
  Se  Se160  1  0.41202456  0.58358865  0.93649317  1
  Se  Se161  1  0.40432596  0.92994833  0.43895923  1
  Se  Se162  1  0.42089658  0.91292560  0.95711490  1
  Se  Se163  1  0.75346611  0.24275991  0.45181626  1
  Se  Se164  1  0.74884659  0.24610615  0.95322825  1
  Se  Se165  1  0.75545304  0.57812520  0.44579455  1
  Se  Se166  1  0.74571410  0.59397498  0.94939562  1
  Se  Se167  1  0.74603644  0.90922925  0.44149975  1
  Se  Se168  1  0.75256150  0.92738206  0.93389861  1
  Se  Se169  1  0.24370814  0.09581715  0.44873199  1
  Se  Se170  1  0.24577979  0.07952631  0.94748187  1
  Se  Se171  1  0.24985970  0.42571364  0.44189331  1
  Se  Se172  1  0.24351123  0.41326039  0.94370883  1
  Se  Se173  1  0.24477872  0.75401269  0.44471561  1
  Se  Se174  1  0.26116010  0.73563116  0.93949818  1
  Se  Se175  1  0.58627857  0.07518172  0.44187746  1
  Se  Se176  1  0.59157608  0.07743578  0.94235848  1
  Se  Se177  1  0.59462680  0.40420656  0.44009525  1
  Se  Se178  1  0.58859054  0.40913602  0.93777421  1
  Se  Se179  1  0.58755382  0.73518429  0.43123974  1
  Se  Se180  1  0.58387746  0.75995287  0.94701832  1
  Se  Se181  1  0.89504893  0.09684332  0.44668879  1
  Se  Se182  1  0.91605940  0.08514200  0.94113517  1
  Se  Se183  1  0.91483162  0.41766462  0.45115024  1
  Se  Se184  1  0.89068303  0.44251098  0.94315629  1
  Se  Se185  1  0.91463870  0.74808780  0.44699125  1
  Se  Se186  1  0.93022471  0.74078316  0.94451433  1
  Se  Se187  1  0.24918073  0.25598719  0.30194241  1
  Se  Se188  1  0.25469393  0.25429742  0.80119842  1
  Se  Se189  1  0.24401081  0.58690386  0.30302990  1
  Se  Se190  1  0.24449570  0.58064735  0.80586060  1
  Se  Se191  1  0.23572675  0.91844084  0.31759891  1
  Se  Se192  1  0.24527940  0.90718743  0.80906797  1
  Se  Se193  1  0.58337243  0.24187745  0.31374484  1
  Se  Se194  1  0.57674826  0.24396494  0.81368710  1
  Se  Se195  1  0.57260958  0.55556195  0.30048298  1
  Se  Se196  1  0.58819438  0.58656139  0.80261453  1
  Se  Se197  1  0.57783432  0.90707814  0.29235395  1
  Se  Se198  1  0.58801117  0.91662497  0.80510674  1
  Se  Se199  1  0.91662623  0.24056692  0.30780879  1
  Se  Se200  1  0.91390908  0.25401231  0.80628739  1
  Se  Se201  1  0.91972575  0.58354328  0.30468904  1
  Se  Se202  1  0.92382249  0.57459941  0.81799641  1
  Se  Se203  1  0.91855239  0.91542889  0.30914423  1
  Se  Se204  1  0.92282242  0.91950913  0.79311848  1
  Se  Se205  1  0.07958778  0.08643414  0.30881846  1
  Se  Se206  1  0.07300666  0.07613664  0.79919550  1
  Se  Se207  1  0.08318850  0.41999904  0.31001827  1
  Se  Se208  1  0.07921745  0.41835204  0.80778039  1
  Se  Se209  1  0.07753520  0.74970732  0.30867200  1
  Se  Se210  1  0.09149678  0.75541360  0.80699148  1
  Se  Se211  1  0.42451700  0.08962572  0.31216248  1
  Se  Se212  1  0.42105923  0.08405065  0.81652061  1
  Se  Se213  1  0.41122589  0.41544758  0.29196939  1
  Se  Se214  1  0.41404040  0.41840632  0.79537142  1
  Se  Se215  1  0.42004321  0.76863757  0.29533397  1
  Se  Se216  1  0.42147281  0.75231075  0.80928644  1
  Se  Se217  1  0.75264259  0.07547911  0.30149825  1
  Se  Se218  1  0.75029068  0.08583567  0.79710679  1
  Se  Se219  1  0.75992907  0.40903917  0.31192168  1
  Se  Se220  1  0.76292279  0.41834062  0.81662631  1
  Se  Se221  1  0.74985446  0.74286527  0.30482737  1
  Se  Se222  1  0.76114557  0.75274331  0.80186164  1
  Se  Se223  1  0.24337992  0.08457372  0.19423303  1
  Se  Se224  1  0.23654976  0.08768733  0.69011740  1
  Se  Se225  1  0.24039565  0.41225411  0.19284069  1
  Se  Se226  1  0.24823771  0.41393327  0.69511006  1
  Se  Se227  1  0.24649918  0.75473104  0.20194382  1
  Se  Se228  1  0.23861556  0.75956761  0.69233094  1
  Se  Se229  1  0.58668602  0.09639256  0.19989537  1
  Se  Se230  1  0.58223354  0.07666998  0.70387083  1
  Se  Se231  1  0.57863179  0.42198524  0.18735179  1
  Se  Se232  1  0.58148434  0.42190397  0.68895723  1
  Se  Se233  1  0.59452136  0.73298452  0.20023445  1
  Se  Se234  1  0.59355447  0.74578975  0.69754040  1
  Se  Se235  1  0.92531928  0.07997943  0.19166735  1
  Se  Se236  1  0.91737467  0.08564631  0.68893707  1
  Se  Se237  1  0.90799063  0.42291818  0.19019770  1
  Se  Se238  1  0.92129517  0.41832018  0.70085762  1
  Se  Se239  1  0.91952226  0.74765785  0.20459827  1
  Se  Se240  1  0.91696418  0.76194389  0.68128369  1
  Se  Se241  1  0.09130115  0.23950437  0.18512668  1
  Se  Se242  1  0.06774646  0.26432308  0.69271840  1
  Se  Se243  1  0.08004331  0.58224896  0.19554472  1
  Se  Se244  1  0.09000335  0.58197754  0.69087004  1
  Se  Se245  1  0.07882309  0.92172822  0.20430986  1
  Se  Se246  1  0.08066885  0.91236764  0.68979289  1
  Se  Se247  1  0.41850257  0.24011818  0.20565484  1
  Se  Se248  1  0.41415865  0.24833484  0.70290388  1
  Se  Se249  1  0.41141790  0.57932402  0.20336887  1
  Se  Se250  1  0.42858943  0.57482210  0.68128186  1
  Se  Se251  1  0.42010877  0.91459198  0.18534705  1
  Se  Se252  1  0.42491322  0.90489993  0.69299825  1
  Se  Se253  1  0.76976509  0.24753286  0.18790783  1
  Se  Se254  1  0.75568695  0.24795796  0.68759664  1
  Se  Se255  1  0.74655506  0.58335312  0.20415131  1
  Se  Se256  1  0.75852697  0.58766072  0.70177342  1
  Se  Se257  1  0.75533247  0.91370328  0.19835266  1
  Se  Se258  1  0.74871335  0.92543934  0.69279747  1
