# generated using pymatgen
data_In86Cu29Se144
_symmetry_space_group_name_H-M   'P 1'
_cell_length_a   17.58253395
_cell_length_b   17.58557560
_cell_length_c   23.43978383
_cell_angle_alpha   90.02235963
_cell_angle_beta   90.01346934
_cell_angle_gamma   90.00282227
_symmetry_Int_Tables_number   1
_chemical_formula_structural   In86Cu29Se144
_chemical_formula_sum   'In86 Cu29 Se144'
_cell_volume   7247.55649280
_cell_formula_units_Z   1
loop_
 _symmetry_equiv_pos_site_id
 _symmetry_equiv_pos_as_xyz
  1  'x, y, z'
loop_
 _atom_site_type_symbol
 _atom_site_label
 _atom_site_symmetry_multiplicity
 _atom_site_fract_x
 _atom_site_fract_y
 _atom_site_fract_z
 _atom_site_occupancy
  In  In0  1  -0.00553320  0.15242425  0.10323982  1
  In  In1  1  0.00920425  0.16773510  0.63105577  1
  In  In2  1  0.00272677  0.48739989  0.11986525  1
  In  In3  1  -0.02176856  0.51690033  0.65037383  1
  In  In4  1  -0.00863522  0.84497342  0.11688533  1
  In  In5  1  -0.02008547  0.83370428  0.62483166  1
  In  In6  1  0.32358524  0.16493163  0.12301444  1
  In  In7  1  0.35395920  0.16269696  0.64150493  1
  In  In8  1  0.33949234  0.50855837  0.11441468  1
  In  In9  1  0.33772690  0.50119531  0.62424117  1
  In  In10  1  0.34820830  0.82630069  0.12778155  1
  In  In11  1  0.34526278  0.82489166  0.62537394  1
  In  In12  1  0.67207449  0.16242317  0.13188979  1
  In  In13  1  0.63459329  0.16847082  0.63189344  1
  In  In14  1  0.65377462  0.50633064  0.12672747  1
  In  In15  1  0.67102314  0.50777479  0.62605889  1
  In  In16  1  0.67171028  0.84332611  0.11706204  1
  In  In17  1  0.66260845  0.83322881  0.62645573  1
  In  In18  1  0.17629672  -0.01250196  0.37303816  1
  In  In19  1  0.17722330  -0.00491144  0.87596448  1
  In  In20  1  0.16336896  0.33046381  0.37389113  1
  In  In21  1  0.17080160  0.33487969  0.87430611  1
  In  In22  1  0.17547970  0.65369780  0.37293193  1
  In  In23  1  0.16134130  0.65940281  0.86738996  1
  In  In24  1  0.49785289  -0.00750981  0.37801943  1
  In  In25  1  0.48938964  -0.00597192  0.86217037  1
  In  In26  1  0.50647731  0.31884298  0.38809105  1
  In  In27  1  0.50320265  0.34870555  0.87190910  1
  In  In28  1  0.48109483  0.67658368  0.39813137  1
  In  In29  1  0.50102425  0.66730118  0.86934547  1
  In  In30  1  0.81771483  0.00291170  0.37833764  1
  In  In31  1  0.82518793  0.01245600  0.88277947  1
  In  In32  1  0.82547385  0.35007528  0.38487776  1
  In  In33  1  0.82925553  0.31856990  0.87317463  1
  In  In34  1  0.82243824  0.67524511  0.38975564  1
  In  In35  1  0.84111549  0.67173254  0.86472661  1
  In  In36  1  -0.00068009  0.16918742  0.37734395  1
  In  In37  1  -0.00912013  0.17162502  0.88159698  1
  In  In38  1  -0.00122779  0.48944039  0.38100332  1
  In  In39  1  0.00647926  0.51229011  0.86355066  1
  In  In40  1  -0.00243426  0.82506899  0.38168408  1
  In  In41  1  -0.00086592  0.82195141  0.87451576  1
  In  In42  1  0.35189394  0.15925787  0.38402555  1
  In  In43  1  0.32945805  0.15541684  0.86399171  1
  In  In44  1  0.33137118  0.50449251  0.37900735  1
  In  In45  1  0.33563710  0.50202137  0.87042889  1
  In  In46  1  0.34669334  0.83934610  0.37158042  1
  In  In47  1  0.34416440  0.84059143  0.86482044  1
  In  In48  1  0.65462300  0.15234792  0.36821697  1
  In  In49  1  0.67739230  0.17127575  0.87456134  1
  In  In50  1  0.66478829  0.50131508  0.38193988  1
  In  In51  1  0.65356471  0.49820829  0.87077762  1
  In  In52  1  0.65518301  0.84113007  0.38317140  1
  In  In53  1  0.66386098  0.83340935  0.87331560  1
  In  In54  1  0.16985353  0.00906607  0.12169864  1
  In  In55  1  0.17441956  0.00900222  0.62747823  1
  In  In56  1  0.16226339  0.32722276  0.11273160  1
  In  In57  1  0.16642801  0.33567618  0.63462958  1
  In  In58  1  0.18867793  0.67609667  0.11864746  1
  In  In59  1  0.17189142  0.66050707  0.63426883  1
  In  In60  1  0.51067005  -0.00760452  0.13006933  1
  In  In61  1  0.49930506  -0.00085440  0.62927329  1
  In  In62  1  0.49778184  0.34846009  0.12645483  1
  In  In63  1  0.47562429  0.33028303  0.60270880  1
  In  In64  1  0.49284829  0.66229632  0.11713956  1
  In  In65  1  0.49854464  0.67203519  0.62001008  1
  In  In66  1  0.82496667  -0.00622763  0.11526362  1
  In  In67  1  0.82540822  -0.01880219  0.62024940  1
  In  In68  1  0.83652401  0.32364312  0.12626700  1
  In  In69  1  0.82872330  0.35327380  0.63470616  1
  In  In70  1  0.82039967  0.67757964  0.12044268  1
  In  In71  1  0.82524368  0.66546188  0.63404399  1
  In  In72  1  0.00556840  0.66351840  0.25259650  1
  In  In73  1  0.00146762  0.32709207  0.25064337  1
  In  In74  1  0.66081317  0.33595962  0.74677486  1
  In  In75  1  0.00092928  -0.00299493  0.75148263  1
  In  In76  1  0.00005528  -0.00228365  0.23963495  1
  In  In77  1  0.49917629  0.17090235  -0.00289335  1
  In  In78  1  0.65861924  0.66964759  0.25525752  1
  In  In79  1  0.83298238  0.50044127  -0.00827298  1
  In  In80  1  0.17025510  0.83130416  0.50191270  1
  In  In81  1  0.16554832  0.83292982  -0.00525657  1
  In  In82  1  0.33559553  0.32942121  0.25137674  1
  In  In83  1  0.83067651  0.16195947  0.50283498  1
  In  In84  1  0.17370781  0.16341805  0.51016452  1
  In  In85  1  0.16975713  0.49710070  0.50611441  1
  Cu  Cu86  1  0.83068152  0.84141694  0.24669310  1
  Cu  Cu87  1  0.33637057  0.66205697  -0.00706759  1
  Cu  Cu88  1  0.00740031  0.33461410  -0.00559549  1
  Cu  Cu89  1  0.66112549  0.67424995  -0.00339582  1
  Cu  Cu90  1  0.17250573  0.50074189  0.75250913  1
  Cu  Cu91  1  0.17130771  0.83284001  0.75149201  1
  Cu  Cu92  1  0.66796132  0.33229173  0.50746941  1
  Cu  Cu93  1  0.50266389  0.82822228  0.74638298  1
  Cu  Cu94  1  0.65982018  -0.00129326  -0.00152908  1
  Cu  Cu95  1  0.66801199  0.33511324  -0.00260903  1
  Cu  Cu96  1  0.66035243  -0.00219847  0.50207543  1
  Cu  Cu97  1  0.17142830  0.17093501  0.75233100  1
  Cu  Cu98  1  0.49933405  0.50472881  0.74360898  1
  Cu  Cu99  1  0.17934797  0.50559487  0.24129503  1
  Cu  Cu100  1  -0.00924150  0.66415164  0.50909956  1
  Cu  Cu101  1  -0.00354165  0.34048321  0.51101839  1
  Cu  Cu102  1  0.50409917  0.16424949  0.25675991  1
  Cu  Cu103  1  0.82310087  0.16905019  0.24938615  1
  Cu  Cu104  1  0.16857287  0.16114663  0.24392659  1
  Cu  Cu105  1  0.33741144  -0.00101592  -0.00767584  1
  Cu  Cu106  1  0.50219783  0.83171598  0.25486444  1
  Cu  Cu107  1  -0.00329069  0.66422703  -0.00880489  1
  Cu  Cu108  1  0.33171504  0.33795748  -0.00401360  1
  Cu  Cu109  1  0.50065252  0.49911646  0.25176731  1
  Cu  Cu110  1  0.18485515  0.82957051  0.24832628  1
  Cu  Cu111  1  0.82790721  0.50165713  0.26097168  1
  Cu  Cu112  1  0.82590156  0.83189638  0.74987005  1
  Cu  Cu113  1  0.67348523  0.66574471  0.50856366  1
  Cu  Cu114  1  0.83082834  0.16242073  0.75205836  1
  Se  Se115  1  0.09611722  0.08245472  0.04613149  1
  Se  Se116  1  0.07175811  0.07184781  0.55740633  1
  Se  Se117  1  0.08850273  0.42097526  0.04635134  1
  Se  Se118  1  0.07386308  0.42229184  0.57056547  1
  Se  Se119  1  0.07481049  0.74189256  0.05778159  1
  Se  Se120  1  0.07820740  0.74279172  0.56431400  1
  Se  Se121  1  0.41445081  0.07681086  0.05826068  1
  Se  Se122  1  0.41748093  0.08612360  0.56211880  1
  Se  Se123  1  0.41894958  0.41800398  0.04934617  1
  Se  Se124  1  0.42142826  0.44213499  0.54342848  1
  Se  Se125  1  0.41544955  0.74909565  0.04778690  1
  Se  Se126  1  0.42405222  0.75767798  0.54736184  1
  Se  Se127  1  0.74100430  0.08468890  0.05315042  1
  Se  Se128  1  0.73488935  0.08157526  0.56465861  1
  Se  Se129  1  0.74677062  0.41638706  0.06053650  1
  Se  Se130  1  0.75042410  0.41906503  0.55595140  1
  Se  Se131  1  0.74929089  0.75706608  0.04613088  1
  Se  Se132  1  0.75423899  0.75254765  0.56075499  1
  Se  Se133  1  0.25376125  0.24860356  0.04878646  1
  Se  Se134  1  0.25771447  0.25478970  0.56843703  1
  Se  Se135  1  0.24816365  0.58316737  0.04600278  1
  Se  Se136  1  0.25724904  0.59816657  0.55443799  1
  Se  Se137  1  0.26027918  0.91751068  0.05665144  1
  Se  Se138  1  0.25841800  0.92272571  0.56053780  1
  Se  Se139  1  0.58752166  0.25797788  0.06121376  1
  Se  Se140  1  0.57688969  0.24740022  0.54956210  1
  Se  Se141  1  0.58391545  0.58484400  0.05027282  1
  Se  Se142  1  0.58477049  0.58345814  0.55636301  1
  Se  Se143  1  0.57616154  0.91405955  0.04999845  1
  Se  Se144  1  0.57907441  0.91462955  0.55728002  1
  Se  Se145  1  0.91901638  0.25768890  0.04988350  1
  Se  Se146  1  0.91709607  0.25350645  0.56554649  1
  Se  Se147  1  0.91915959  0.58982090  0.06004574  1
  Se  Se148  1  0.91127400  0.58093278  0.56457473  1
  Se  Se149  1  0.91871195  0.92674983  0.04678296  1
  Se  Se150  1  0.91801118  0.91939924  0.54974990  1
  Se  Se151  1  0.07442183  0.25924729  0.45028607  1
  Se  Se152  1  0.08872165  0.24860132  0.94248427  1
  Se  Se153  1  0.07468696  0.59097585  0.44550991  1
  Se  Se154  1  0.08369026  0.58216212  0.94302396  1
  Se  Se155  1  0.07777924  0.92376536  0.44252504  1
  Se  Se156  1  0.07333811  0.92354601  0.93890324  1
  Se  Se157  1  0.40549516  0.25716719  0.45308553  1
  Se  Se158  1  0.41077264  0.25778172  0.93457377  1
  Se  Se159  1  0.42285600  0.56252685  0.45376488  1
  Se  Se160  1  0.42241269  0.58097764  0.94018724  1
  Se  Se161  1  0.42822658  0.90193542  0.44923704  1
  Se  Se162  1  0.42112289  0.91534754  0.94167499  1
  Se  Se163  1  0.74102998  0.24969146  0.44111700  1
  Se  Se164  1  0.75251532  0.24747124  0.95168003  1
  Se  Se165  1  0.75146452  0.57840651  0.45211149  1
  Se  Se166  1  0.74086388  0.59178016  0.93651632  1
  Se  Se167  1  0.74824354  0.91634614  0.45056953  1
  Se  Se168  1  0.74502151  0.91776199  0.94379852  1
  Se  Se169  1  0.25648482  0.07196625  0.44488781  1
  Se  Se170  1  0.25356222  0.08489434  0.94382133  1
  Se  Se171  1  0.25307632  0.40333145  0.44350284  1
  Se  Se172  1  0.25107354  0.42295327  0.94196903  1
  Se  Se173  1  0.25636884  0.74392191  0.43756488  1
  Se  Se174  1  0.25670294  0.74623349  0.93359807  1
  Se  Se175  1  0.57944469  0.08143409  0.44608008  1
  Se  Se176  1  0.58429886  0.07934278  0.93542186  1
  Se  Se177  1  0.58625016  0.41341895  0.44940272  1
  Se  Se178  1  0.58327021  0.41979202  0.94881245  1
  Se  Se179  1  0.59050051  0.74483966  0.45125062  1
  Se  Se180  1  0.57619721  0.75370562  0.94189132  1
  Se  Se181  1  0.92353565  0.07445435  0.44200113  1
  Se  Se182  1  0.91604859  0.08464950  0.94974078  1
  Se  Se183  1  0.91408543  0.42208933  0.45563546  1
  Se  Se184  1  0.92409133  0.41101478  0.93345946  1
  Se  Se185  1  0.91423897  0.75290462  0.45430432  1
  Se  Se186  1  0.91021019  0.74913833  0.94490935  1
  Se  Se187  1  0.24495343  0.23650309  0.31049919  1
  Se  Se188  1  0.25545208  0.25565961  0.80352466  1
  Se  Se189  1  0.26062533  0.58224735  0.30011352  1
  Se  Se190  1  0.25641363  0.58867292  0.80111963  1
  Se  Se191  1  0.26168897  0.91844360  0.30066476  1
  Se  Se192  1  0.25351333  0.92132477  0.79962389  1
  Se  Se193  1  0.58364822  0.25401554  0.30641213  1
  Se  Se194  1  0.57689086  0.24454151  0.80993996  1
  Se  Se195  1  0.56902699  0.58429309  0.31674861  1
  Se  Se196  1  0.58410397  0.58456601  0.79824149  1
  Se  Se197  1  0.58563523  0.91761350  0.30495623  1
  Se  Se198  1  0.58296034  0.91351172  0.80090987  1
  Se  Se199  1  0.90277309  0.24638088  0.31228465  1
  Se  Se200  1  0.91674411  0.24518517  0.80221047  1
  Se  Se201  1  0.91053787  0.58229592  0.31687834  1
  Se  Se202  1  0.90832255  0.57664510  0.79807669  1
  Se  Se203  1  0.91511989  0.91331940  0.30961142  1
  Se  Se204  1  0.90682763  0.91238326  0.81159660  1
  Se  Se205  1  0.08643476  0.08604773  0.30738702  1
  Se  Se206  1  0.08911261  0.08853366  0.81141049  1
  Se  Se207  1  0.09465513  0.42900404  0.30197088  1
  Se  Se208  1  0.08773133  0.41712176  0.80407667  1
  Se  Se209  1  0.09755048  0.75850811  0.30925249  1
  Se  Se210  1  0.08308726  0.75121878  0.80139927  1
  Se  Se211  1  0.41925788  0.07973113  0.30651362  1
  Se  Se212  1  0.42189398  0.08852658  0.79532092  1
  Se  Se213  1  0.42337674  0.41706339  0.31340422  1
  Se  Se214  1  0.41857420  0.42011381  0.79905572  1
  Se  Se215  1  0.42412409  0.74314905  0.30815762  1
  Se  Se216  1  0.41569625  0.74608216  0.79878851  1
  Se  Se217  1  0.74666754  0.07791402  0.30029285  1
  Se  Se218  1  0.74624752  0.08022730  0.80335327  1
  Se  Se219  1  0.74272939  0.41750969  0.30878923  1
  Se  Se220  1  0.75457172  0.41884739  0.80937951  1
  Se  Se221  1  0.75533197  0.76026214  0.30982701  1
  Se  Se222  1  0.74377177  0.74765642  0.80339647  1
  Se  Se223  1  0.25604504  0.07697426  0.19677317  1
  Se  Se224  1  0.25296670  0.08495192  0.70041982  1
  Se  Se225  1  0.24830245  0.41379924  0.18380509  1
  Se  Se226  1  0.25499322  0.42184047  0.69537193  1
  Se  Se227  1  0.26541329  0.74244797  0.19752903  1
  Se  Se228  1  0.25434411  0.75161189  0.69559991  1
  Se  Se229  1  0.58480975  0.08264977  0.19813529  1
  Se  Se230  1  0.58143842  0.07481192  0.70443284  1
  Se  Se231  1  0.58588264  0.41762959  0.19956365  1
  Se  Se232  1  0.57161740  0.41837506  0.68199115  1
  Se  Se233  1  0.57857840  0.75621668  0.18636892  1
  Se  Se234  1  0.58594500  0.74342590  0.69444668  1
  Se  Se235  1  0.90778735  0.09363231  0.18743657  1
  Se  Se236  1  0.90796300  0.08231615  0.68868124  1
  Se  Se237  1  0.90887905  0.42594288  0.19742425  1
  Se  Se238  1  0.93259351  0.39672430  0.70380614  1
  Se  Se239  1  0.91286759  0.75609122  0.19254010  1
  Se  Se240  1  0.91449168  0.75017415  0.70047035  1
  Se  Se241  1  0.08309875  0.23634116  0.18501825  1
  Se  Se242  1  0.08306596  0.25127335  0.70225823  1
  Se  Se243  1  0.09130216  0.58040784  0.18383672  1
  Se  Se244  1  0.08525929  0.58747042  0.70521042  1
  Se  Se245  1  0.09743855  0.90237052  0.18773617  1
  Se  Se246  1  0.08920216  0.90848422  0.68789876  1
  Se  Se247  1  0.42629905  0.24015533  0.18957456  1
  Se  Se248  1  0.42005079  0.27294976  0.69445994  1
  Se  Se249  1  0.42081819  0.57803610  0.19166695  1
  Se  Se250  1  0.41566851  0.58984971  0.69158407  1
  Se  Se251  1  0.42125577  0.91512863  0.19759885  1
  Se  Se252  1  0.41583200  0.91312393  0.69727164  1
  Se  Se253  1  0.74542335  0.25866185  0.19771420  1
  Se  Se254  1  0.75135577  0.24059680  0.68749003  1
  Se  Se255  1  0.75610012  0.58204533  0.19503870  1
  Se  Se256  1  0.75814668  0.56908875  0.70182036  1
  Se  Se257  1  0.74691271  0.92189634  0.19301094  1
  Se  Se258  1  0.74434787  0.91744730  0.69808851  1
