# generated using pymatgen
data_In86Cu29Se144
_symmetry_space_group_name_H-M   'P 1'
_cell_length_a   17.57313128
_cell_length_b   17.57207755
_cell_length_c   23.43037606
_cell_angle_alpha   89.99600207
_cell_angle_beta   89.98814402
_cell_angle_gamma   90.00057370
_symmetry_Int_Tables_number   1
_chemical_formula_structural   In86Cu29Se144
_chemical_formula_sum   'In86 Cu29 Se144'
_cell_volume   7235.21620432
_cell_formula_units_Z   1
loop_
 _symmetry_equiv_pos_site_id
 _symmetry_equiv_pos_as_xyz
  1  'x, y, z'
loop_
 _atom_site_type_symbol
 _atom_site_label
 _atom_site_symmetry_multiplicity
 _atom_site_fract_x
 _atom_site_fract_y
 _atom_site_fract_z
 _atom_site_occupancy
  In  In0  1  -0.00892577  0.17505947  0.13595219  1
  In  In1  1  -0.00059008  0.16786610  0.62290139  1
  In  In2  1  0.00622830  0.48968794  0.13369239  1
  In  In3  1  0.00280947  0.50128730  0.62345609  1
  In  In4  1  0.01322078  0.82017649  0.13933951  1
  In  In5  1  0.01091734  0.82289969  0.62835932  1
  In  In6  1  0.33338860  0.15098829  0.12957283  1
  In  In7  1  0.33488172  0.16827997  0.61558257  1
  In  In8  1  0.33080503  0.51834070  0.12959958  1
  In  In9  1  0.32142756  0.50988539  0.62226360  1
  In  In10  1  0.32991794  0.83523411  0.12412579  1
  In  In11  1  0.33523635  0.83567512  0.61898524  1
  In  In12  1  0.67625969  0.17803586  0.11282675  1
  In  In13  1  0.67529382  0.18530907  0.60320008  1
  In  In14  1  0.66486251  0.49047861  0.13180597  1
  In  In15  1  0.68162960  0.49332159  0.62571043  1
  In  In16  1  0.66376538  0.84286619  0.12145706  1
  In  In17  1  0.65461534  0.82781942  0.62451623  1
  In  In18  1  0.16684297  -0.00313125  0.37587170  1
  In  In19  1  0.15070611  -0.00131847  0.87524093  1
  In  In20  1  0.14928317  0.34670148  0.38374159  1
  In  In21  1  0.16339097  0.34583528  0.87740647  1
  In  In22  1  0.16465661  0.66711055  0.37403069  1
  In  In23  1  0.16533082  0.67109644  0.87829361  1
  In  In24  1  0.49166557  0.00088465  0.37577546  1
  In  In25  1  0.50324979  -0.00084652  0.87890935  1
  In  In26  1  0.50088555  0.31878275  0.37571151  1
  In  In27  1  0.49494606  0.33238206  0.87951355  1
  In  In28  1  0.50054911  0.68159523  0.37606389  1
  In  In29  1  0.51004806  0.66958696  0.87089741  1
  In  In30  1  0.85196869  0.00279698  0.37142431  1
  In  In31  1  0.84717076  0.00509311  0.87617777  1
  In  In32  1  0.83155151  0.33268454  0.37440973  1
  In  In33  1  0.83560553  0.31858778  0.87735925  1
  In  In34  1  0.83608950  0.65229930  0.37184267  1
  In  In35  1  0.83424637  0.66211614  0.86701557  1
  In  In36  1  -0.00109498  0.16720208  0.37818044  1
  In  In37  1  -0.00735567  0.16307099  0.87045770  1
  In  In38  1  -0.00565510  0.50177688  0.36941388  1
  In  In39  1  0.01374290  0.50638229  0.86469945  1
  In  In40  1  0.00788209  0.84650652  0.36482755  1
  In  In41  1  0.00402537  0.84002443  0.87072729  1
  In  In42  1  0.33672532  0.15193433  0.37654792  1
  In  In43  1  0.34693700  0.17369549  0.87779916  1
  In  In44  1  0.31530670  0.50310613  0.37683256  1
  In  In45  1  0.32662023  0.49322052  0.87681488  1
  In  In46  1  0.33193923  0.83362633  0.37353766  1
  In  In47  1  0.33261866  0.82962170  0.88208393  1
  In  In48  1  0.66084477  0.18007848  0.38449015  1
  In  In49  1  0.67146541  0.17254088  0.88759232  1
  In  In50  1  0.68738142  0.48989393  0.38126400  1
  In  In51  1  0.65585340  0.50784228  0.86977012  1
  In  In52  1  0.65759741  0.82427418  0.37990972  1
  In  In53  1  0.66403830  0.82194304  0.87345675  1
  In  In54  1  0.17748079  -0.00573737  0.13420094  1
  In  In55  1  0.15836130  -0.00946804  0.61795256  1
  In  In56  1  0.15025752  0.33390646  0.12706107  1
  In  In57  1  0.16050400  0.32810720  0.61853962  1
  In  In58  1  0.16546694  0.66935963  0.12366558  1
  In  In59  1  0.15105432  0.65523741  0.61322709  1
  In  In60  1  0.49386337  -0.00779019  0.11920344  1
  In  In61  1  0.50114422  -0.00117674  0.61780809  1
  In  In62  1  0.51425913  0.33187886  0.12721683  1
  In  In63  1  0.51293344  0.32834761  0.62056828  1
  In  In64  1  0.48470035  0.66693907  0.12608902  1
  In  In65  1  0.49725207  0.67804997  0.63339699  1
  In  In66  1  0.83288318  0.00853427  0.12988882  1
  In  In67  1  0.83495652  0.01543212  0.62085375  1
  In  In68  1  0.84096701  0.32970302  0.13324540  1
  In  In69  1  0.84181318  0.34859878  0.60778149  1
  In  In70  1  0.84763241  0.67308951  0.13353890  1
  In  In71  1  0.84899494  0.65877264  0.62919340  1
  In  In72  1  0.67153771  -0.00069994  0.74631113  1
  In  In73  1  0.16913121  0.16299981  0.00574587  1
  In  In74  1  0.32912102  0.33754587  0.75297064  1
  In  In75  1  0.49799208  0.49763326  -0.00599900  1
  In  In76  1  0.83509649  0.83477490  0.49517953  1
  In  In77  1  0.83270290  0.83864767  0.00235603  1
  In  In78  1  0.32809066  0.33105437  0.25959110  1
  In  In79  1  0.32927562  0.66526164  0.75223183  1
  In  In80  1  0.49713331  0.49815548  0.50638579  1
  In  In81  1  0.67468597  0.33757150  0.74841121  1
  In  In82  1  0.67044193  0.66193395  0.25543798  1
  In  In83  1  0.67007548  0.00338184  0.24317164  1
  In  In84  1  0.32974003  -0.00357093  0.73779703  1
  In  In85  1  0.83505713  0.49306257  0.00652116  1
  Cu  Cu86  1  0.66716977  0.66474579  0.49890539  1
  Cu  Cu87  1  0.33205342  -0.00406736  0.49735199  1
  Cu  Cu88  1  0.83601603  0.83227302  0.75086992  1
  Cu  Cu89  1  0.15602516  0.17057234  0.74813195  1
  Cu  Cu90  1  0.84224717  0.50029937  0.74548126  1
  Cu  Cu91  1  0.50203499  0.50070209  0.25134569  1
  Cu  Cu92  1  0.33466951  0.33561027  0.00127738  1
  Cu  Cu93  1  -0.00114355  0.33491317  0.00548610  1
  Cu  Cu94  1  0.66227519  0.00311176  0.49803066  1
  Cu  Cu95  1  0.17324857  0.83251049  0.25128128  1
  Cu  Cu96  1  0.32693472  0.32903388  0.49352548  1
  Cu  Cu97  1  0.00105232  0.00020022  0.00237434  1
  Cu  Cu98  1  0.83509100  0.16786684  0.25342371  1
  Cu  Cu99  1  0.84150440  0.16984657  0.74683750  1
  Cu  Cu100  1  0.49263867  0.83411303  0.24665164  1
  Cu  Cu101  1  0.50882078  0.16302498  0.74533888  1
  Cu  Cu102  1  -0.00274151  0.33383551  0.49792732  1
  Cu  Cu103  1  0.32711024  0.67343989  0.00365219  1
  Cu  Cu104  1  0.33231330  -0.00321642  0.00281206  1
  Cu  Cu105  1  0.00086986  0.66288610  0.49751926  1
  Cu  Cu106  1  0.00544656  0.00088924  0.49750122  1
  Cu  Cu107  1  0.66146747  0.00395005  0.00106766  1
  Cu  Cu108  1  0.16518363  0.82913155  0.74799482  1
  Cu  Cu109  1  0.16363135  0.50625401  0.25252846  1
  Cu  Cu110  1  0.32859534  0.67193927  0.49976543  1
  Cu  Cu111  1  0.00666329  0.66928781  -0.00049238  1
  Cu  Cu112  1  0.50480919  0.16446322  0.25353956  1
  Cu  Cu113  1  0.66049358  0.66733634  -0.00154366  1
  Cu  Cu114  1  0.15784996  0.16450289  0.25612341  1
  Se  Se115  1  0.07749977  0.07903855  0.06745358  1
  Se  Se116  1  0.08498104  0.08580196  0.55356864  1
  Se  Se117  1  0.08400617  0.42135104  0.05307290  1
  Se  Se118  1  0.08153262  0.41707928  0.55188013  1
  Se  Se119  1  0.08356820  0.75599928  0.05471036  1
  Se  Se120  1  0.08277807  0.75322179  0.54682370  1
  Se  Se121  1  0.41486360  0.08376200  0.05271166  1
  Se  Se122  1  0.41610196  0.08020625  0.55101929  1
  Se  Se123  1  0.41122515  0.41651953  0.06527206  1
  Se  Se124  1  0.40262067  0.40497156  0.56226212  1
  Se  Se125  1  0.41627745  0.75405664  0.05373742  1
  Se  Se126  1  0.41777231  0.74625586  0.55508406  1
  Se  Se127  1  0.75310620  0.07834163  0.05324525  1
  Se  Se128  1  0.75211369  0.08443713  0.54599013  1
  Se  Se129  1  0.74103111  0.40358884  0.06051047  1
  Se  Se130  1  0.73043981  0.40280975  0.54861279  1
  Se  Se131  1  0.74551700  0.73968917  0.06091119  1
  Se  Se132  1  0.75092943  0.74402873  0.55976195  1
  Se  Se133  1  0.25733089  0.25672594  0.06604592  1
  Se  Se134  1  0.24539621  0.24624727  0.55030616  1
  Se  Se135  1  0.24714749  0.58354912  0.05328642  1
  Se  Se136  1  0.24482708  0.58205037  0.54573646  1
  Se  Se137  1  0.24490341  0.91727548  0.05442305  1
  Se  Se138  1  0.24840719  0.91314962  0.55139182  1
  Se  Se139  1  0.57446027  0.24649058  0.05153951  1
  Se  Se140  1  0.56714878  0.24233611  0.54316140  1
  Se  Se141  1  0.58572584  0.58494116  0.06136892  1
  Se  Se142  1  0.58848951  0.58930960  0.56448642  1
  Se  Se143  1  0.58016054  0.91398178  0.04881137  1
  Se  Se144  1  0.58546588  0.91475157  0.55144782  1
  Se  Se145  1  0.91744999  0.25005303  0.05779944  1
  Se  Se146  1  0.91602207  0.24611218  0.55056627  1
  Se  Se147  1  0.92596340  0.59019735  0.05933221  1
  Se  Se148  1  0.91682587  0.57984124  0.55109041  1
  Se  Se149  1  0.92512689  0.91896810  0.06586710  1
  Se  Se150  1  0.92425306  0.92034834  0.55958024  1
  Se  Se151  1  0.08295871  0.24732194  0.44902474  1
  Se  Se152  1  0.07959570  0.25182966  0.94442186  1
  Se  Se153  1  0.08162735  0.58009524  0.44022376  1
  Se  Se154  1  0.08384632  0.58200277  0.94465159  1
  Se  Se155  1  0.08440359  0.91211764  0.44586705  1
  Se  Se156  1  0.08086672  0.91422249  0.94908318  1
  Se  Se157  1  0.41180958  0.24527908  0.44368479  1
  Se  Se158  1  0.42087382  0.25073693  0.95376525  1
  Se  Se159  1  0.41159648  0.58882710  0.44144153  1
  Se  Se160  1  0.40682119  0.59490155  0.93923465  1
  Se  Se161  1  0.41770813  0.91185098  0.44516728  1
  Se  Se162  1  0.41641709  0.91796032  0.94512428  1
  Se  Se163  1  0.75913617  0.24661452  0.44773574  1
  Se  Se164  1  0.75897711  0.24875031  0.95378924  1
  Se  Se165  1  0.75555041  0.58371432  0.45003561  1
  Se  Se166  1  0.74523641  0.58652341  0.94362332  1
  Se  Se167  1  0.74370572  0.92633545  0.43532716  1
  Se  Se168  1  0.74254284  0.92567760  0.93760801  1
  Se  Se169  1  0.24705368  0.08085469  0.44706121  1
  Se  Se170  1  0.25679517  0.07780811  0.93758278  1
  Se  Se171  1  0.24386281  0.42041138  0.45023326  1
  Se  Se172  1  0.24818125  0.41747388  0.95136623  1
  Se  Se173  1  0.24711528  0.75243426  0.44276519  1
  Se  Se174  1  0.24269289  0.75559990  0.94959318  1
  Se  Se175  1  0.57811892  0.08307885  0.44216444  1
  Se  Se176  1  0.57938998  0.08742919  0.94665811  1
  Se  Se177  1  0.58317137  0.41213356  0.44174497  1
  Se  Se178  1  0.59736638  0.40794274  0.94247592  1
  Se  Se179  1  0.57865796  0.75080697  0.45507525  1
  Se  Se180  1  0.57816050  0.75257640  0.94800078  1
  Se  Se181  1  0.91699244  0.08329856  0.44947443  1
  Se  Se182  1  0.92038826  0.08691933  0.95003703  1
  Se  Se183  1  0.91707852  0.41787036  0.44211638  1
  Se  Se184  1  0.92537004  0.41404531  0.93903218  1
  Se  Se185  1  0.92457722  0.74584439  0.43547615  1
  Se  Se186  1  0.91846252  0.74466092  0.94121688  1
  Se  Se187  1  0.23681657  0.24447068  0.31924458  1
  Se  Se188  1  0.24253633  0.23915910  0.81179628  1
  Se  Se189  1  0.25119871  0.58865297  0.30146221  1
  Se  Se190  1  0.23817263  0.57197878  0.80737907  1
  Se  Se191  1  0.25299663  0.91983385  0.30436041  1
  Se  Se192  1  0.24440487  0.91215116  0.80755001  1
  Se  Se193  1  0.58800617  0.25035038  0.30211314  1
  Se  Se194  1  0.58154212  0.24534608  0.80857531  1
  Se  Se195  1  0.58041106  0.57512580  0.31860201  1
  Se  Se196  1  0.58318849  0.58876519  0.79798039  1
  Se  Se197  1  0.57961767  0.91097754  0.30465750  1
  Se  Se198  1  0.57914215  0.91214540  0.80530631  1
  Se  Se199  1  0.91957250  0.25000517  0.30677123  1
  Se  Se200  1  0.92116673  0.25532581  0.80091182  1
  Se  Se201  1  0.92003101  0.58726579  0.29711019  1
  Se  Se202  1  0.92266375  0.58577097  0.80012547  1
  Se  Se203  1  0.91309627  0.91546336  0.29761903  1
  Se  Se204  1  0.91623756  0.91947532  0.80304355  1
  Se  Se205  1  0.07772779  0.07814448  0.30931754  1
  Se  Se206  1  0.07891614  0.08201953  0.80220049  1
  Se  Se207  1  0.08159692  0.41730337  0.30148396  1
  Se  Se208  1  0.07998154  0.40590577  0.80087096  1
  Se  Se209  1  0.08595981  0.75109040  0.30286737  1
  Se  Se210  1  0.08339558  0.74925308  0.80585588  1
  Se  Se211  1  0.41716399  0.07993694  0.29979974  1
  Se  Se212  1  0.42235364  0.08564185  0.80229184  1
  Se  Se213  1  0.42095803  0.42470063  0.31552291  1
  Se  Se214  1  0.42812721  0.42725829  0.80760690  1
  Se  Se215  1  0.41431777  0.74904296  0.30249769  1
  Se  Se216  1  0.42008617  0.76020948  0.80633944  1
  Se  Se217  1  0.75082610  0.08935271  0.31265649  1
  Se  Se218  1  0.75603579  0.09465482  0.80837081  1
  Se  Se219  1  0.75137360  0.41428864  0.30215602  1
  Se  Se220  1  0.76307498  0.42666167  0.81277275  1
  Se  Se221  1  0.75605726  0.75850670  0.31228968  1
  Se  Se222  1  0.75098592  0.74996386  0.80293851  1
  Se  Se223  1  0.24801821  0.08606039  0.20472011  1
  Se  Se224  1  0.23926480  0.09421221  0.68721289  1
  Se  Se225  1  0.24460636  0.42130438  0.19316846  1
  Se  Se226  1  0.23913939  0.42227268  0.69100695  1
  Se  Se227  1  0.25199499  0.74848078  0.19333435  1
  Se  Se228  1  0.24364142  0.75158736  0.68556894  1
  Se  Se229  1  0.57818341  0.09019949  0.18378230  1
  Se  Se230  1  0.59011986  0.09259817  0.68145145  1
  Se  Se231  1  0.58426873  0.41251325  0.20411294  1
  Se  Se232  1  0.57665223  0.42389459  0.69282949  1
  Se  Se233  1  0.58026486  0.75347488  0.19169726  1
  Se  Se234  1  0.59125549  0.74528078  0.70108956  1
  Se  Se235  1  0.91762135  0.08095273  0.20255219  1
  Se  Se236  1  0.92087617  0.08151034  0.69532838  1
  Se  Se237  1  0.91103038  0.42225242  0.19918346  1
  Se  Se238  1  0.91684060  0.41349245  0.68926914  1
  Se  Se239  1  0.91889215  0.75204983  0.20723302  1
  Se  Se240  1  0.92149733  0.74957689  0.69796610  1
  Se  Se241  1  0.08072973  0.25336101  0.20292704  1
  Se  Se242  1  0.07790523  0.25479891  0.69311616  1
  Se  Se243  1  0.08321944  0.58742957  0.19418686  1
  Se  Se244  1  0.07974184  0.58832263  0.69315463  1
  Se  Se245  1  0.08682821  0.91874143  0.20124021  1
  Se  Se246  1  0.08329414  0.91713597  0.69645111  1
  Se  Se247  1  0.41936437  0.24636144  0.19477918  1
  Se  Se248  1  0.42205383  0.24578812  0.69236850  1
  Se  Se249  1  0.41706491  0.58655574  0.20380953  1
  Se  Se250  1  0.41962110  0.57296797  0.69235396  1
  Se  Se251  1  0.41206364  0.92030227  0.19408473  1
  Se  Se252  1  0.43058468  0.90597884  0.69186697  1
  Se  Se253  1  0.74992973  0.24403435  0.19512887  1
  Se  Se254  1  0.76010486  0.24811099  0.68558487  1
  Se  Se255  1  0.75866199  0.57600105  0.19168302  1
  Se  Se256  1  0.75523978  0.58208051  0.69471433  1
  Se  Se257  1  0.76051270  0.90329696  0.19341578  1
  Se  Se258  1  0.76085565  0.90951455  0.68473798  1
