# generated using pymatgen
data_In86Cu29Se144
_symmetry_space_group_name_H-M   'P 1'
_cell_length_a   17.57476628
_cell_length_b   17.57522212
_cell_length_c   23.43502532
_cell_angle_alpha   89.99592089
_cell_angle_beta   90.00312696
_cell_angle_gamma   90.01194124
_symmetry_Int_Tables_number   1
_chemical_formula_structural   In86Cu29Se144
_chemical_formula_sum   'In86 Cu29 Se144'
_cell_volume   7238.62030102
_cell_formula_units_Z   1
loop_
 _symmetry_equiv_pos_site_id
 _symmetry_equiv_pos_as_xyz
  1  'x, y, z'
loop_
 _atom_site_type_symbol
 _atom_site_label
 _atom_site_symmetry_multiplicity
 _atom_site_fract_x
 _atom_site_fract_y
 _atom_site_fract_z
 _atom_site_occupancy
  In  In0  1  -0.01249334  0.16188737  0.12864451  1
  In  In1  1  -0.00876717  0.17453460  0.62246162  1
  In  In2  1  -0.00323425  0.49228272  0.11354147  1
  In  In3  1  -0.00700827  0.51962159  0.63161189  1
  In  In4  1  0.00874284  0.84338709  0.12590932  1
  In  In5  1  -0.01058140  0.82292561  0.61565201  1
  In  In6  1  0.34528900  0.15502699  0.13841839  1
  In  In7  1  0.35726582  0.17064332  0.61565029  1
  In  In8  1  0.32705077  0.50759517  0.12435369  1
  In  In9  1  0.33777782  0.48375520  0.62626784  1
  In  In10  1  0.33425930  0.83922558  0.12124317  1
  In  In11  1  0.33270500  0.84771150  0.61498709  1
  In  In12  1  0.66691658  0.17196169  0.12291680  1
  In  In13  1  0.66621257  0.16726189  0.62511373  1
  In  In14  1  0.67013052  0.48422813  0.12563065  1
  In  In15  1  0.66612598  0.50132500  0.61824250  1
  In  In16  1  0.66725417  0.85056669  0.12388756  1
  In  In17  1  0.68145132  0.82532351  0.63709437  1
  In  In18  1  0.15984765  -0.00499059  0.35696810  1
  In  In19  1  0.15450753  -0.01102727  0.88437625  1
  In  In20  1  0.16707070  0.31490168  0.36402519  1
  In  In21  1  0.18506991  0.33215227  0.87719181  1
  In  In22  1  0.17010982  0.67667272  0.37833792  1
  In  In23  1  0.15484761  0.67430003  0.87761986  1
  In  In24  1  0.51362014  0.00960222  0.36752261  1
  In  In25  1  0.50686453  -0.00789521  0.88451718  1
  In  In26  1  0.49973074  0.32321144  0.37572300  1
  In  In27  1  0.49750308  0.33081069  0.87048443  1
  In  In28  1  0.50006071  0.66090666  0.38401072  1
  In  In29  1  0.51547152  0.66527232  0.87239838  1
  In  In30  1  0.82990040  0.00346549  0.37719203  1
  In  In31  1  0.83074693  0.01400799  0.88066728  1
  In  In32  1  0.81692867  0.33866129  0.37963365  1
  In  In33  1  0.82334285  0.34113230  0.88042999  1
  In  In34  1  0.83031544  0.65952983  0.38836115  1
  In  In35  1  0.82545037  0.64725073  0.85745795  1
  In  In36  1  -0.00801334  0.15403564  0.36726935  1
  In  In37  1  -0.00466194  0.15174708  0.88096872  1
  In  In38  1  -0.01730958  0.48940188  0.37376932  1
  In  In39  1  -0.01165913  0.51004180  0.87925073  1
  In  In40  1  -0.00305047  0.83575474  0.37691222  1
  In  In41  1  0.00844834  0.82861557  0.87757837  1
  In  In42  1  0.33634832  0.17051967  0.36266008  1
  In  In43  1  0.34153250  0.17939554  0.87646041  1
  In  In44  1  0.34562920  0.49189611  0.37893433  1
  In  In45  1  0.34180845  0.48665427  0.87612007  1
  In  In46  1  0.32115613  0.83949076  0.37543718  1
  In  In47  1  0.32668762  0.83950662  0.88320911  1
  In  In48  1  0.66698989  0.16098133  0.37703506  1
  In  In49  1  0.66555908  0.16763811  0.87593894  1
  In  In50  1  0.68057034  0.48092641  0.39283528  1
  In  In51  1  0.68103332  0.49979965  0.86095772  1
  In  In52  1  0.66357708  0.84876933  0.37707498  1
  In  In53  1  0.66485995  0.82664817  0.87139679  1
  In  In54  1  0.18397722  -0.01333029  0.14882948  1
  In  In55  1  0.17910460  -0.00983792  0.61640960  1
  In  In56  1  0.17088130  0.34532365  0.12479162  1
  In  In57  1  0.17082577  0.34326324  0.62679750  1
  In  In58  1  0.16369156  0.66708889  0.11602710  1
  In  In59  1  0.15639269  0.67277051  0.62662329  1
  In  In60  1  0.49873862  0.00326654  0.12372095  1
  In  In61  1  0.50451070  0.02494318  0.61394225  1
  In  In62  1  0.51910198  0.32240765  0.13115198  1
  In  In63  1  0.50243788  0.33329968  0.62189270  1
  In  In64  1  0.48890847  0.66970328  0.11850428  1
  In  In65  1  0.53709944  0.66626423  0.62257046  1
  In  In66  1  0.81067735  0.03253877  0.15401639  1
  In  In67  1  0.82543934  -0.01014296  0.61655098  1
  In  In68  1  0.82679324  0.32709099  0.12005545  1
  In  In69  1  0.82197457  0.32500465  0.61972418  1
  In  In70  1  0.84055384  0.66177793  0.12141005  1
  In  In71  1  0.82615165  0.67031117  0.62118494  1
  In  In72  1  0.15930853  0.50013997  0.50149191  1
  In  In73  1  0.84146167  0.83449171  0.00489188  1
  In  In74  1  0.50314481  0.83152173  0.50151259  1
  In  In75  1  0.34147048  0.66338353  0.75112181  1
  In  In76  1  0.66510988  0.66714003  0.25446189  1
  In  In77  1  0.33940330  0.00622926  0.74299207  1
  In  In78  1  0.33373273  0.66805122  0.24787065  1
  In  In79  1  -0.00639949  0.34068788  0.75347299  1
  In  In80  1  -0.00185973  -0.00311274  0.75314423  1
  In  In81  1  0.16555803  0.16478760  0.00659090  1
  In  In82  1  0.16301323  0.15924342  0.48508017  1
  In  In83  1  -0.00289347  0.66832974  0.25612010  1
  In  In84  1  -0.00819002  0.32979378  0.24657296  1
  In  In85  1  0.50238891  0.50008728  -0.00338069  1
  Cu  Cu86  1  0.17033795  0.49930074  0.75044169  1
  Cu  Cu87  1  0.66779598  0.66754610  -0.00998739  1
  Cu  Cu88  1  0.83518899  0.84272452  0.25542948  1
  Cu  Cu89  1  0.34194268  0.33257988  0.00166764  1
  Cu  Cu90  1  0.82557054  0.16691343  0.75129990  1
  Cu  Cu91  1  0.16840800  0.50210048  0.24623515  1
  Cu  Cu92  1  0.65684531  0.32387427  0.50137990  1
  Cu  Cu93  1  0.66480637  0.00588183  0.00502791  1
  Cu  Cu94  1  0.50604140  0.84136608  0.75264879  1
  Cu  Cu95  1  0.50530049  0.48571226  0.25603381  1
  Cu  Cu96  1  0.66790932  0.00280078  0.49969632  1
  Cu  Cu97  1  0.16459662  0.83197951  0.74987374  1
  Cu  Cu98  1  -0.00351141  0.66195456  -0.00231187  1
  Cu  Cu99  1  0.50714589  0.16766304  0.25026635  1
  Cu  Cu100  1  0.33552918  0.66389855  0.50157139  1
  Cu  Cu101  1  0.49605914  0.83750188  0.24783278  1
  Cu  Cu102  1  0.50715938  0.17262059  0.74757242  1
  Cu  Cu103  1  0.00202277  0.33323455  0.00404540  1
  Cu  Cu104  1  0.67214276  0.32950245  -0.00064639  1
  Cu  Cu105  1  -0.01586570  0.33448326  0.50019903  1
  Cu  Cu106  1  0.17596241  0.17220234  0.75047257  1
  Cu  Cu107  1  -0.00250643  0.67157686  0.50306096  1
  Cu  Cu108  1  0.50770326  0.49613336  0.74529555  1
  Cu  Cu109  1  0.00428367  -0.00161683  0.49181242  1
  Cu  Cu110  1  0.83491246  0.83128716  0.74454296  1
  Cu  Cu111  1  0.33228824  0.32453255  0.49605875  1
  Cu  Cu112  1  0.32525542  0.67439671  -0.00072368  1
  Cu  Cu113  1  -0.00595223  -0.00127893  0.01037803  1
  Cu  Cu114  1  0.32930403  0.00382213  0.00903078  1
  Se  Se115  1  0.08327917  0.07291864  0.06818131  1
  Se  Se116  1  0.07746151  0.07842111  0.55935472  1
  Se  Se117  1  0.09136131  0.41815158  0.04867793  1
  Se  Se118  1  0.06680309  0.41100719  0.56186694  1
  Se  Se119  1  0.07212950  0.74912116  0.05426242  1
  Se  Se120  1  0.08862230  0.75341217  0.54960675  1
  Se  Se121  1  0.41610061  0.08924332  0.05488312  1
  Se  Se122  1  0.38889362  0.05757090  0.55159261  1
  Se  Se123  1  0.41941804  0.41395286  0.06446348  1
  Se  Se124  1  0.41352388  0.40994903  0.55018411  1
  Se  Se125  1  0.41329817  0.75521285  0.04981350  1
  Se  Se126  1  0.41689879  0.73889089  0.56574105  1
  Se  Se127  1  0.75360425  0.08264021  0.05883064  1
  Se  Se128  1  0.75086597  0.08678527  0.55435387  1
  Se  Se129  1  0.75359539  0.41817189  0.04935244  1
  Se  Se130  1  0.74340749  0.40941477  0.55030895  1
  Se  Se131  1  0.74079019  0.74451945  0.05929032  1
  Se  Se132  1  0.75590150  0.76686493  0.55484462  1
  Se  Se133  1  0.26151132  0.25256784  0.06259679  1
  Se  Se134  1  0.24539608  0.25001941  0.55596015  1
  Se  Se135  1  0.24841386  0.58295736  0.04993511  1
  Se  Se136  1  0.25353091  0.58567321  0.56357806  1
  Se  Se137  1  0.24167610  0.92182453  0.05882006  1
  Se  Se138  1  0.24575746  0.90958976  0.54072387  1
  Se  Se139  1  0.58348792  0.24860936  0.04890546  1
  Se  Se140  1  0.57444494  0.23874075  0.55432400  1
  Se  Se141  1  0.59211908  0.58971605  0.05837563  1
  Se  Se142  1  0.57641652  0.57272777  0.54580132  1
  Se  Se143  1  0.57899029  0.91810530  0.05202307  1
  Se  Se144  1  0.59134608  0.92137434  0.56360105  1
  Se  Se145  1  0.91908653  0.24803303  0.05458357  1
  Se  Se146  1  0.90635187  0.24327035  0.54970072  1
  Se  Se147  1  0.91159640  0.57803573  0.04832044  1
  Se  Se148  1  0.91439525  0.58583251  0.55334356  1
  Se  Se149  1  0.90632304  0.93128761  0.07392236  1
  Se  Se150  1  0.92070138  0.91955365  0.55023492  1
  Se  Se151  1  0.06768060  0.25980642  0.43850193  1
  Se  Se152  1  0.07962669  0.25387828  0.93952920  1
  Se  Se153  1  0.07108507  0.58882517  0.43717038  1
  Se  Se154  1  0.08445382  0.58097384  0.94573622  1
  Se  Se155  1  0.08961065  0.91929814  0.43817024  1
  Se  Se156  1  0.07354714  0.91237344  0.95607995  1
  Se  Se157  1  0.41344513  0.23958645  0.44341794  1
  Se  Se158  1  0.42649518  0.25108101  0.94898023  1
  Se  Se159  1  0.41664012  0.57751565  0.45142175  1
  Se  Se160  1  0.40988780  0.59541558  0.93942465  1
  Se  Se161  1  0.42294709  0.91875708  0.43416696  1
  Se  Se162  1  0.41024552  0.92136286  0.95017893  1
  Se  Se163  1  0.74617356  0.24580721  0.44804824  1
  Se  Se164  1  0.75483094  0.24378904  0.94629501  1
  Se  Se165  1  0.73772486  0.58835462  0.45391586  1
  Se  Se166  1  0.74933833  0.58149300  0.93910034  1
  Se  Se167  1  0.75187457  0.91727644  0.44929231  1
  Se  Se168  1  0.74484951  0.92109800  0.94546978  1
  Se  Se169  1  0.25601986  0.07359609  0.42877656  1
  Se  Se170  1  0.25507268  0.07856735  0.93862111  1
  Se  Se171  1  0.24525695  0.40497516  0.44047171  1
  Se  Se172  1  0.25717859  0.41664551  0.95092841  1
  Se  Se173  1  0.25505184  0.74945004  0.44958389  1
  Se  Se174  1  0.23915046  0.75622157  0.94637004  1
  Se  Se175  1  0.57944646  0.08408042  0.44945603  1
  Se  Se176  1  0.58288568  0.08672139  0.94773971  1
  Se  Se177  1  0.57427943  0.40942914  0.44838664  1
  Se  Se178  1  0.59423011  0.41316135  0.93714757  1
  Se  Se179  1  0.59702072  0.74361407  0.44357299  1
  Se  Se180  1  0.58041946  0.75440827  0.94621399  1
  Se  Se181  1  0.91679242  0.08456976  0.44677779  1
  Se  Se182  1  0.91352012  0.08357601  0.95681357  1
  Se  Se183  1  0.90271575  0.42166228  0.44987817  1
  Se  Se184  1  0.91956583  0.41310348  0.94550086  1
  Se  Se185  1  0.91570559  0.75275545  0.44602971  1
  Se  Se186  1  0.91350218  0.73956044  0.93660714  1
  Se  Se187  1  0.25891970  0.25651691  0.29272276  1
  Se  Se188  1  0.26048526  0.25371702  0.80205255  1
  Se  Se189  1  0.24626156  0.57665113  0.31241957  1
  Se  Se190  1  0.24875158  0.57943855  0.81339735  1
  Se  Se191  1  0.25403944  0.91315786  0.29633456  1
  Se  Se192  1  0.24301678  0.91864061  0.80549313  1
  Se  Se193  1  0.58897219  0.24890582  0.30653253  1
  Se  Se194  1  0.58864050  0.25379689  0.80451556  1
  Se  Se195  1  0.57882838  0.57395404  0.31380363  1
  Se  Se196  1  0.58661593  0.58203508  0.80004597  1
  Se  Se197  1  0.58579556  0.91668860  0.29844686  1
  Se  Se198  1  0.58840670  0.92284971  0.80785461  1
  Se  Se199  1  0.90126265  0.24750944  0.31024877  1
  Se  Se200  1  0.91385366  0.23854858  0.81159519  1
  Se  Se201  1  0.89979341  0.57680174  0.30590455  1
  Se  Se202  1  0.92494609  0.57848357  0.79529042  1
  Se  Se203  1  0.91929082  0.92302633  0.30876893  1
  Se  Se204  1  0.90682795  0.90872715  0.81451102  1
  Se  Se205  1  0.10403333  0.11266122  0.30538104  1
  Se  Se206  1  0.09686169  0.08940122  0.80841172  1
  Se  Se207  1  0.08683126  0.42376478  0.30712736  1
  Se  Se208  1  0.09259315  0.42033934  0.81421879  1
  Se  Se209  1  0.09418141  0.75993218  0.30490570  1
  Se  Se210  1  0.07897250  0.74927576  0.80001747  1
  Se  Se211  1  0.42145101  0.08154220  0.29893914  1
  Se  Se212  1  0.42709293  0.08999201  0.80884684  1
  Se  Se213  1  0.41460165  0.40756439  0.30572914  1
  Se  Se214  1  0.42039895  0.41710344  0.79932662  1
  Se  Se215  1  0.42516850  0.75337125  0.31100704  1
  Se  Se216  1  0.42150100  0.76330308  0.81169015  1
  Se  Se217  1  0.73650914  0.06920071  0.30717245  1
  Se  Se218  1  0.74629182  0.08085535  0.80589767  1
  Se  Se219  1  0.74741607  0.42390252  0.30599249  1
  Se  Se220  1  0.75731261  0.40791220  0.79712497  1
  Se  Se221  1  0.75771400  0.75656207  0.31381951  1
  Se  Se222  1  0.75050089  0.75043953  0.80148883  1
  Se  Se223  1  0.24374749  0.09672056  0.20442560  1
  Se  Se224  1  0.24584370  0.09392585  0.68330876  1
  Se  Se225  1  0.25607731  0.42073731  0.19681891  1
  Se  Se226  1  0.25389188  0.41354139  0.70141377  1
  Se  Se227  1  0.24135308  0.75351604  0.18897392  1
  Se  Se228  1  0.25364968  0.75919183  0.69126502  1
  Se  Se229  1  0.58470828  0.08466179  0.19091517  1
  Se  Se230  1  0.58434872  0.08222601  0.69595838  1
  Se  Se231  1  0.59372193  0.41016710  0.20180144  1
  Se  Se232  1  0.58810061  0.41333069  0.68961933  1
  Se  Se233  1  0.57531395  0.75385820  0.18867073  1
  Se  Se234  1  0.58770257  0.75165061  0.70386222  1
  Se  Se235  1  0.92650613  0.08217962  0.20907821  1
  Se  Se236  1  0.90966652  0.08720747  0.69242845  1
  Se  Se237  1  0.90770573  0.42588095  0.18843668  1
  Se  Se238  1  0.90631520  0.42048035  0.68685387  1
  Se  Se239  1  0.90771601  0.75878310  0.19277455  1
  Se  Se240  1  0.91761542  0.74685754  0.69285156  1
  Se  Se241  1  0.08790120  0.24962232  0.18586083  1
  Se  Se242  1  0.08771882  0.24706785  0.69349864  1
  Se  Se243  1  0.08307554  0.57836765  0.18886894  1
  Se  Se244  1  0.08862763  0.58563779  0.69995166  1
  Se  Se245  1  0.07463667  0.92120775  0.20365168  1
  Se  Se246  1  0.08647252  0.91219463  0.68743979  1
  Se  Se247  1  0.42348979  0.25310050  0.19808941  1
  Se  Se248  1  0.41830507  0.25191617  0.69454043  1
  Se  Se249  1  0.43088668  0.57249388  0.19534588  1
  Se  Se250  1  0.42850271  0.57943576  0.68527333  1
  Se  Se251  1  0.41400169  0.91939638  0.19283910  1
  Se  Se252  1  0.43021555  0.91403536  0.68605629  1
  Se  Se253  1  0.75609655  0.24503579  0.19302136  1
  Se  Se254  1  0.74570171  0.25082415  0.69681119  1
  Se  Se255  1  0.75320283  0.58042508  0.19028664  1
  Se  Se256  1  0.73755067  0.59231055  0.68757455  1
  Se  Se257  1  0.74366091  0.91724692  0.20310905  1
  Se  Se258  1  0.75354810  0.92497338  0.70045089  1
