# generated using pymatgen
data_In86Cu29Se144
_symmetry_space_group_name_H-M   'P 1'
_cell_length_a   17.59156839
_cell_length_b   17.58155407
_cell_length_c   23.44767287
_cell_angle_alpha   90.00379586
_cell_angle_beta   89.99395992
_cell_angle_gamma   89.98990285
_symmetry_Int_Tables_number   1
_chemical_formula_structural   In86Cu29Se144
_chemical_formula_sum   'In86 Cu29 Se144'
_cell_volume   7252.06282788
_cell_formula_units_Z   1
loop_
 _symmetry_equiv_pos_site_id
 _symmetry_equiv_pos_as_xyz
  1  'x, y, z'
loop_
 _atom_site_type_symbol
 _atom_site_label
 _atom_site_symmetry_multiplicity
 _atom_site_fract_x
 _atom_site_fract_y
 _atom_site_fract_z
 _atom_site_occupancy
  In  In0  1  -0.00552592  0.16491341  0.13315740  1
  In  In1  1  0.00225407  0.15244584  0.62181112  1
  In  In2  1  -0.01439039  0.49386932  0.11451058  1
  In  In3  1  0.00769405  0.51578730  0.62362785  1
  In  In4  1  0.00059647  0.84082121  0.12500455  1
  In  In5  1  -0.01587553  0.82860546  0.61556213  1
  In  In6  1  0.33611106  0.15840595  0.11696830  1
  In  In7  1  0.34522578  0.16140133  0.63031738  1
  In  In8  1  0.33732094  0.51919963  0.11529583  1
  In  In9  1  0.33761693  0.49279858  0.63683779  1
  In  In10  1  0.33149925  0.81489501  0.11860325  1
  In  In11  1  0.32783182  0.83489242  0.63778870  1
  In  In12  1  0.66435943  0.17819857  0.12345193  1
  In  In13  1  0.65997390  0.18473124  0.63695172  1
  In  In14  1  0.67208068  0.49464254  0.12853680  1
  In  In15  1  0.66505762  0.50268948  0.62730609  1
  In  In16  1  0.65397192  0.82379449  0.11877239  1
  In  In17  1  0.68056549  0.82116248  0.63217395  1
  In  In18  1  0.15416170  -0.00441239  0.37789463  1
  In  In19  1  0.17097919  -0.02216954  0.86596113  1
  In  In20  1  0.16313644  0.34580535  0.37255093  1
  In  In21  1  0.19007355  0.34813685  0.87164567  1
  In  In22  1  0.18092431  0.67229281  0.37588803  1
  In  In23  1  0.16817326  0.66787205  0.86486067  1
  In  In24  1  0.50951761  0.00631824  0.38171048  1
  In  In25  1  0.50335587  -0.00036950  0.86974820  1
  In  In26  1  0.51209898  0.33192453  0.37996581  1
  In  In27  1  0.48711579  0.32036821  0.87391900  1
  In  In28  1  0.48931943  0.65378584  0.37340475  1
  In  In29  1  0.50596323  0.67078036  0.86815487  1
  In  In30  1  0.83717722  -0.01360524  0.38133739  1
  In  In31  1  0.81496611  -0.01020046  0.86642174  1
  In  In32  1  0.83574437  0.34077174  0.36965680  1
  In  In33  1  0.83596084  0.34411237  0.87137489  1
  In  In34  1  0.82378647  0.67467822  0.37901709  1
  In  In35  1  0.82799629  0.66662508  0.87806073  1
  In  In36  1  -0.00630204  0.16543709  0.36950600  1
  In  In37  1  -0.00385985  0.16717900  0.87682993  1
  In  In38  1  -0.00109768  0.48762708  0.37225394  1
  In  In39  1  -0.01304613  0.52578759  0.89610791  1
  In  In40  1  -0.00506689  0.84146512  0.38605641  1
  In  In41  1  0.00266801  0.79070103  0.87741428  1
  In  In42  1  0.34455205  0.17811519  0.37870577  1
  In  In43  1  0.34694456  0.17502692  0.86833498  1
  In  In44  1  0.33913551  0.52090695  0.37593472  1
  In  In45  1  0.32720067  0.49587658  0.87468543  1
  In  In46  1  0.33005182  0.80993489  0.38180167  1
  In  In47  1  0.33844369  0.84381734  0.85995852  1
  In  In48  1  0.65471723  0.16943514  0.37985601  1
  In  In49  1  0.65817287  0.15440187  0.86250465  1
  In  In50  1  0.66681941  0.50316514  0.37614626  1
  In  In51  1  0.67445170  0.50839025  0.86728756  1
  In  In52  1  0.67644266  0.83075705  0.37823946  1
  In  In53  1  0.66552808  0.82999422  0.87410711  1
  In  In54  1  0.15733525  -0.01306382  0.12279580  1
  In  In55  1  0.17517811  -0.00028554  0.62560421  1
  In  In56  1  0.15293462  0.33155523  0.12424929  1
  In  In57  1  0.16883635  0.34710234  0.62909725  1
  In  In58  1  0.17914913  0.66811878  0.12071537  1
  In  In59  1  0.15712194  0.67795905  0.63985719  1
  In  In60  1  0.49859473  -0.00246773  0.11384607  1
  In  In61  1  0.49381785  0.00948496  0.62854433  1
  In  In62  1  0.51511650  0.34138562  0.12194250  1
  In  In63  1  0.50173522  0.33842728  0.62765368  1
  In  In64  1  0.49329296  0.67099798  0.12854085  1
  In  In65  1  0.50438793  0.66100272  0.63409158  1
  In  In66  1  0.84114244  0.00059712  0.12568158  1
  In  In67  1  0.83819581  -0.01535503  0.62803414  1
  In  In68  1  0.82502526  0.33592141  0.12912462  1
  In  In69  1  0.81514721  0.33664268  0.62789134  1
  In  In70  1  0.82351916  0.65278164  0.11289506  1
  In  In71  1  0.83442054  0.66438310  0.62298214  1
  In  In72  1  0.00391111  0.33967869  0.75543447  1
  In  In73  1  -0.00255931  -0.00585424  0.74948282  1
  In  In74  1  0.33291012  0.33676974  0.24768150  1
  In  In75  1  0.17326835  0.16249571  0.50616189  1
  In  In76  1  -0.00171991  0.66687410  0.24490699  1
  In  In77  1  0.49807145  0.83082081  0.50887486  1
  In  In78  1  0.32949314  -0.00524945  0.24280387  1
  In  In79  1  0.17310671  0.50882496  0.49929091  1
  In  In80  1  0.82945768  0.16481249  0.50218485  1
  In  In81  1  0.17130756  0.17034299  -0.00673796  1
  In  In82  1  0.49823979  0.49789136  -0.00610777  1
  In  In83  1  0.16838459  0.82962743  -0.00502090  1
  In  In84  1  0.67007393  -0.00039048  0.25722266  1
  In  In85  1  0.82629666  0.16710092  0.00166755  1
  Cu  Cu86  1  0.16348855  0.50081789  0.24892003  1
  Cu  Cu87  1  0.83365058  0.82393459  0.75111001  1
  Cu  Cu88  1  0.34695613  0.33670027  0.50358368  1
  Cu  Cu89  1  0.66422660  0.66527989  -0.00492343  1
  Cu  Cu90  1  0.50404411  0.17010989  0.25139509  1
  Cu  Cu91  1  0.49933054  0.81959926  0.24964693  1
  Cu  Cu92  1  0.33679786  -0.00124719  0.50660155  1
  Cu  Cu93  1  0.83642108  0.50599741  0.75046654  1
  Cu  Cu94  1  0.65924128  0.34373347  0.50464288  1
  Cu  Cu95  1  0.34194740  0.00186463  -0.00985779  1
  Cu  Cu96  1  0.17126379  0.16688172  0.74903553  1
  Cu  Cu97  1  0.16598341  0.50484523  0.75312517  1
  Cu  Cu98  1  0.83008193  0.50080445  0.24626801  1
  Cu  Cu99  1  0.66633459  0.00340477  0.50575686  1
  Cu  Cu100  1  0.83298055  0.83252321  0.25406079  1
  Cu  Cu101  1  -0.00422163  -0.00488747  0.00055371  1
  Cu  Cu102  1  0.15545376  0.16611285  0.25070647  1
  Cu  Cu103  1  0.16353458  0.83312672  0.24747273  1
  Cu  Cu104  1  0.00060818  0.34206024  -0.00200447  1
  Cu  Cu105  1  0.49866482  0.16977941  0.74945485  1
  Cu  Cu106  1  -0.00502040  0.66682457  0.50056215  1
  Cu  Cu107  1  0.66628609  0.33417222  -0.00091138  1
  Cu  Cu108  1  0.65955651  -0.00433091  -0.00934503  1
  Cu  Cu109  1  0.83564044  0.16903134  0.25069173  1
  Cu  Cu110  1  0.50294399  0.49599647  0.75381254  1
  Cu  Cu111  1  0.50898235  0.83741583  0.74815903  1
  Cu  Cu112  1  -0.00658535  0.33093248  0.49434152  1
  Cu  Cu113  1  0.50551247  0.50049611  0.24838672  1
  Cu  Cu114  1  0.66713146  0.66441642  0.50430762  1
  Se  Se115  1  0.07580878  0.08108719  0.05508344  1
  Se  Se116  1  0.07716361  0.06496162  0.55086379  1
  Se  Se117  1  0.08613482  0.42054376  0.05230551  1
  Se  Se118  1  0.07743903  0.41164664  0.55299755  1
  Se  Se119  1  0.07738324  0.74585547  0.05864860  1
  Se  Se120  1  0.07972287  0.74290827  0.55827781  1
  Se  Se121  1  0.42137267  0.08588688  0.04601486  1
  Se  Se122  1  0.42007829  0.08815003  0.55156326  1
  Se  Se123  1  0.41142660  0.40957670  0.05921598  1
  Se  Se124  1  0.41988052  0.42516769  0.55916882  1
  Se  Se125  1  0.42460213  0.74959567  0.05136841  1
  Se  Se126  1  0.40957808  0.74337318  0.56833922  1
  Se  Se127  1  0.73599499  0.07186727  0.05921716  1
  Se  Se128  1  0.74342815  0.08206554  0.56918188  1
  Se  Se129  1  0.74981842  0.41506437  0.05404973  1
  Se  Se130  1  0.74921850  0.42294735  0.55437189  1
  Se  Se131  1  0.74517699  0.74902440  0.05166202  1
  Se  Se132  1  0.75359210  0.75004662  0.55243375  1
  Se  Se133  1  0.25497561  0.25818392  0.05868020  1
  Se  Se134  1  0.25831075  0.26186275  0.56154093  1
  Se  Se135  1  0.24968101  0.58870224  0.04541739  1
  Se  Se136  1  0.24843275  0.58608065  0.57415972  1
  Se  Se137  1  0.26022838  0.92581101  0.05431311  1
  Se  Se138  1  0.25668875  0.91459967  0.55856458  1
  Se  Se139  1  0.58128729  0.24963027  0.04954109  1
  Se  Se140  1  0.58310876  0.25316507  0.55747086  1
  Se  Se141  1  0.58723990  0.58354378  0.05879808  1
  Se  Se142  1  0.58137011  0.58484709  0.55752029  1
  Se  Se143  1  0.57991972  0.91198040  0.04849003  1
  Se  Se144  1  0.59129232  0.91942165  0.56727118  1
  Se  Se145  1  0.92408842  0.25513189  0.05736946  1
  Se  Se146  1  0.92219969  0.25525116  0.56255509  1
  Se  Se147  1  0.92226909  0.58994681  0.04715708  1
  Se  Se148  1  0.91540699  0.57896724  0.55218008  1
  Se  Se149  1  0.91215088  0.91367321  0.05372291  1
  Se  Se150  1  0.91252255  0.92092811  0.54769994  1
  Se  Se151  1  0.08266338  0.25265384  0.44115360  1
  Se  Se152  1  0.07898139  0.26371765  0.93613518  1
  Se  Se153  1  0.07531080  0.59012296  0.43641878  1
  Se  Se154  1  0.10227862  0.58724269  0.94339200  1
  Se  Se155  1  0.10192237  0.89860605  0.44859034  1
  Se  Se156  1  0.07069519  0.91622406  0.93643115  1
  Se  Se157  1  0.42740026  0.25078850  0.45023010  1
  Se  Se158  1  0.41086566  0.24737151  0.95036399  1
  Se  Se159  1  0.41170107  0.59097847  0.45420625  1
  Se  Se160  1  0.41294716  0.59194363  0.93691481  1
  Se  Se161  1  0.41238476  0.91960625  0.43975838  1
  Se  Se162  1  0.41978068  0.91418683  0.93739230  1
  Se  Se163  1  0.74164754  0.26128051  0.44466372  1
  Se  Se164  1  0.74364266  0.25385510  0.93544938  1
  Se  Se165  1  0.75045469  0.58367114  0.44697172  1
  Se  Se166  1  0.74862693  0.57761127  0.94740102  1
  Se  Se167  1  0.74518653  0.91843280  0.45111636  1
  Se  Se168  1  0.74901523  0.91232982  0.94568923  1
  Se  Se169  1  0.26192933  0.07742657  0.43857679  1
  Se  Se170  1  0.25206104  0.07338679  0.93207274  1
  Se  Se171  1  0.26300041  0.41122187  0.44111208  1
  Se  Se172  1  0.25668913  0.41757801  0.95288251  1
  Se  Se173  1  0.24610020  0.74573937  0.45662156  1
  Se  Se174  1  0.26197099  0.75187827  0.93248860  1
  Se  Se175  1  0.58253519  0.08789717  0.45515259  1
  Se  Se176  1  0.58099424  0.08645083  0.94178462  1
  Se  Se177  1  0.57929729  0.42681665  0.44776901  1
  Se  Se178  1  0.58993791  0.41077098  0.93335333  1
  Se  Se179  1  0.58568552  0.74506640  0.44312537  1
  Se  Se180  1  0.58078513  0.74952893  0.94416828  1
  Se  Se181  1  0.92557888  0.07714230  0.44572448  1
  Se  Se182  1  0.91434895  0.07453832  0.94045559  1
  Se  Se183  1  0.91217217  0.41875593  0.44554654  1
  Se  Se184  1  0.90934517  0.41973515  0.94829109  1
  Se  Se185  1  0.91167256  0.75107160  0.44743758  1
  Se  Se186  1  0.90643265  0.74865773  0.95079696  1
  Se  Se187  1  0.24223516  0.24220635  0.30846944  1
  Se  Se188  1  0.25203032  0.25066524  0.80314361  1
  Se  Se189  1  0.24696142  0.58243156  0.30252802  1
  Se  Se190  1  0.25783297  0.58418856  0.80151740  1
  Se  Se191  1  0.24759011  0.90840713  0.31031713  1
  Se  Se192  1  0.25202050  0.91782737  0.78833969  1
  Se  Se193  1  0.58678416  0.25268552  0.30379334  1
  Se  Se194  1  0.58097659  0.25365754  0.80350896  1
  Se  Se195  1  0.58370948  0.58536096  0.30542720  1
  Se  Se196  1  0.58703401  0.58565081  0.79972626  1
  Se  Se197  1  0.57257897  0.90583799  0.31030105  1
  Se  Se198  1  0.59215048  0.91975694  0.80302992  1
  Se  Se199  1  0.91825738  0.25499417  0.30289710  1
  Se  Se200  1  0.91021131  0.24253091  0.80537061  1
  Se  Se201  1  0.91005722  0.57948684  0.30878721  1
  Se  Se202  1  0.91683512  0.58540014  0.80944704  1
  Se  Se203  1  0.91814864  0.91381501  0.30648941  1
  Se  Se204  1  0.91594062  0.90121867  0.81325408  1
  Se  Se205  1  0.07956124  0.07919008  0.30583232  1
  Se  Se206  1  0.08993916  0.08897751  0.80920152  1
  Se  Se207  1  0.08027643  0.41394235  0.29733346  1
  Se  Se208  1  0.08422668  0.43143907  0.81879188  1
  Se  Se209  1  0.08447110  0.75381596  0.31003827  1
  Se  Se210  1  0.10086485  0.76769909  0.79990288  1
  Se  Se211  1  0.42169556  0.08573055  0.30610438  1
  Se  Se212  1  0.41717127  0.08141930  0.80099555  1
  Se  Se213  1  0.42243838  0.42247266  0.31069205  1
  Se  Se214  1  0.41623308  0.41593885  0.80739935  1
  Se  Se215  1  0.41188320  0.74360033  0.30460097  1
  Se  Se216  1  0.42367745  0.75281908  0.79843156  1
  Se  Se217  1  0.75957657  0.09177653  0.31718377  1
  Se  Se218  1  0.75688995  0.08694573  0.79864233  1
  Se  Se219  1  0.74726766  0.42004691  0.30408068  1
  Se  Se220  1  0.75279736  0.41888846  0.79927097  1
  Se  Se221  1  0.74586913  0.74882284  0.30213818  1
  Se  Se222  1  0.74666430  0.74449293  0.80493352  1
  Se  Se223  1  0.23574053  0.09043517  0.18778398  1
  Se  Se224  1  0.25311933  0.08357866  0.69505469  1
  Se  Se225  1  0.24581655  0.42510011  0.18556687  1
  Se  Se226  1  0.24817673  0.41439670  0.70575083  1
  Se  Se227  1  0.24938061  0.75023721  0.19683806  1
  Se  Se228  1  0.25236041  0.74707886  0.70636621  1
  Se  Se229  1  0.57837088  0.08316133  0.19111594  1
  Se  Se230  1  0.58266985  0.08605949  0.69685245  1
  Se  Se231  1  0.58884499  0.41341711  0.19962747  1
  Se  Se232  1  0.58756601  0.41619677  0.69773880  1
  Se  Se233  1  0.58769448  0.74241129  0.19695802  1
  Se  Se234  1  0.58950289  0.74697912  0.69893469  1
  Se  Se235  1  0.91542343  0.07864124  0.20117305  1
  Se  Se236  1  0.90775953  0.09017318  0.69397913  1
  Se  Se237  1  0.91493912  0.41769229  0.19360721  1
  Se  Se238  1  0.91630088  0.42464596  0.68883259  1
  Se  Se239  1  0.90483848  0.75392336  0.18661734  1
  Se  Se240  1  0.91779516  0.74657935  0.69357294  1
  Se  Se241  1  0.07639395  0.25294110  0.19801282  1
  Se  Se242  1  0.08748582  0.24330726  0.68943916  1
  Se  Se243  1  0.08650525  0.57777444  0.18405445  1
  Se  Se244  1  0.07655660  0.58616967  0.70459024  1
  Se  Se245  1  0.07817341  0.91904461  0.20009871  1
  Se  Se246  1  0.08168972  0.91006420  0.68370451  1
  Se  Se247  1  0.42165142  0.24354150  0.18824229  1
  Se  Se248  1  0.41598850  0.25585619  0.69654200  1
  Se  Se249  1  0.41708321  0.58005586  0.19645501  1
  Se  Se250  1  0.41834577  0.58109491  0.70275553  1
  Se  Se251  1  0.42564008  0.90554698  0.18863975  1
  Se  Se252  1  0.42121591  0.91950830  0.69723674  1
  Se  Se253  1  0.74803683  0.24741642  0.19776818  1
  Se  Se254  1  0.75437783  0.25350387  0.70411969  1
  Se  Se255  1  0.74854521  0.58706613  0.19491136  1
  Se  Se256  1  0.75144581  0.58577891  0.69463829  1
  Se  Se257  1  0.75140039  0.91089616  0.19099662  1
  Se  Se258  1  0.75293634  0.91382232  0.70125568  1
