# generated using pymatgen
data_In86Cu29Se144
_symmetry_space_group_name_H-M   'P 1'
_cell_length_a   17.59786681
_cell_length_b   17.59802304
_cell_length_c   23.45776581
_cell_angle_alpha   89.98936446
_cell_angle_beta   89.98523252
_cell_angle_gamma   90.00330133
_symmetry_Int_Tables_number   1
_chemical_formula_structural   In86Cu29Se144
_chemical_formula_sum   'In86 Cu29 Se144'
_cell_volume   7264.58035673
_cell_formula_units_Z   1
loop_
 _symmetry_equiv_pos_site_id
 _symmetry_equiv_pos_as_xyz
  1  'x, y, z'
loop_
 _atom_site_type_symbol
 _atom_site_label
 _atom_site_symmetry_multiplicity
 _atom_site_fract_x
 _atom_site_fract_y
 _atom_site_fract_z
 _atom_site_occupancy
  In  In0  1  0.01777199  0.18335483  0.11008352  1
  In  In1  1  -0.01779649  0.17534293  0.62007396  1
  In  In2  1  -0.00648430  0.50455459  0.12977068  1
  In  In3  1  0.00872490  0.49858480  0.62506095  1
  In  In4  1  -0.00848493  0.82662282  0.12923463  1
  In  In5  1  -0.00803951  0.82790821  0.61845784  1
  In  In6  1  0.32334926  0.17178999  0.13938433  1
  In  In7  1  0.33830118  0.15021720  0.62992129  1
  In  In8  1  0.33046168  0.49892290  0.12895207  1
  In  In9  1  0.34020376  0.49833834  0.63885624  1
  In  In10  1  0.34413662  0.82789419  0.13731990  1
  In  In11  1  0.33014212  0.83558906  0.62943941  1
  In  In12  1  0.66768030  0.15383723  0.12519991  1
  In  In13  1  0.66145993  0.16508838  0.62346189  1
  In  In14  1  0.68251830  0.50123293  0.12039411  1
  In  In15  1  0.65961228  0.49747383  0.63733135  1
  In  In16  1  0.65345628  0.84177330  0.13761137  1
  In  In17  1  0.67257079  0.82533281  0.62783308  1
  In  In18  1  0.15819394  -0.01079021  0.37515422  1
  In  In19  1  0.18482408  0.01079273  0.87346507  1
  In  In20  1  0.16707996  0.32773681  0.36314952  1
  In  In21  1  0.16763052  0.32038612  0.87898293  1
  In  In22  1  0.17607013  0.67447356  0.36968358  1
  In  In23  1  0.16557670  0.68044776  0.86113986  1
  In  In24  1  0.51434775  0.00106870  0.36412702  1
  In  In25  1  0.49500273  -0.00915783  0.87076375  1
  In  In26  1  0.48894269  0.33367442  0.37867449  1
  In  In27  1  0.50474849  0.34280253  0.85638376  1
  In  In28  1  0.50091041  0.67545714  0.35942162  1
  In  In29  1  0.51252338  0.67747261  0.86944818  1
  In  In30  1  0.82696768  0.00766983  0.37852934  1
  In  In31  1  0.83281544  0.01550996  0.87360615  1
  In  In32  1  0.83402966  0.31721537  0.38014983  1
  In  In33  1  0.83109644  0.34343929  0.88140148  1
  In  In34  1  0.84395469  0.67368833  0.37271276  1
  In  In35  1  0.82793743  0.66192855  0.86909508  1
  In  In36  1  -0.00686498  0.16571270  0.37295483  1
  In  In37  1  -0.00470992  0.18821960  0.89322212  1
  In  In38  1  0.00269912  0.50110412  0.36695056  1
  In  In39  1  -0.01433843  0.49815324  0.87939111  1
  In  In40  1  0.01011555  0.82970150  0.38232463  1
  In  In41  1  0.00949069  0.82254707  0.87025933  1
  In  In42  1  0.34036865  0.17540333  0.36933355  1
  In  In43  1  0.33661917  0.16815515  0.87210278  1
  In  In44  1  0.33267733  0.49950561  0.36798657  1
  In  In45  1  0.34560679  0.50743863  0.86175396  1
  In  In46  1  0.32753666  0.82401052  0.36968990  1
  In  In47  1  0.33923895  0.85035446  0.86908120  1
  In  In48  1  0.67896370  0.15967554  0.38242076  1
  In  In49  1  0.67142511  0.17393958  0.86638962  1
  In  In50  1  0.65248539  0.50086414  0.37590975  1
  In  In51  1  0.67578293  0.51197431  0.86680931  1
  In  In52  1  0.67143798  0.84354063  0.36710371  1
  In  In53  1  0.65810441  0.82643064  0.86802943  1
  In  In54  1  0.17278285  0.01562272  0.12813289  1
  In  In55  1  0.17842330  -0.00329575  0.62364255  1
  In  In56  1  0.17108269  0.32279217  0.13396415  1
  In  In57  1  0.16442383  0.34024731  0.62395609  1
  In  In58  1  0.16425606  0.66426381  0.13046275  1
  In  In59  1  0.16276027  0.67614805  0.63527042  1
  In  In60  1  0.50400137  -0.00854423  0.13776417  1
  In  In61  1  0.49364788  0.00812461  0.62660639  1
  In  In62  1  0.49479559  0.32397751  0.12518115  1
  In  In63  1  0.51286822  0.31499307  0.63994280  1
  In  In64  1  0.49256958  0.67861636  0.13296585  1
  In  In65  1  0.49768901  0.66333750  0.63793668  1
  In  In66  1  0.82220608  0.00266336  0.12709490  1
  In  In67  1  0.82555597  -0.00539491  0.62008684  1
  In  In68  1  0.84802777  0.34190385  0.11313077  1
  In  In69  1  0.82194579  0.31482568  0.61403347  1
  In  In70  1  0.83684171  0.66096481  0.13004235  1
  In  In71  1  0.82166160  0.67106480  0.62923991  1
  In  In72  1  0.50944379  0.50550502  -0.01157182  1
  In  In73  1  0.16863257  0.50033748  0.50660396  1
  In  In74  1  0.49930264  0.16341704  0.00119906  1
  In  In75  1  0.83191350  0.49670861  0.50460662  1
  In  In76  1  0.16907144  0.84378270  -0.00383953  1
  In  In77  1  -0.00136809  0.33793407  0.74869922  1
  In  In78  1  0.16298389  0.16002350  0.49431773  1
  In  In79  1  0.82937687  0.83747676  0.00622531  1
  In  In80  1  0.50270543  0.83611224  0.49688444  1
  In  In81  1  0.66660514  0.33490809  0.25016909  1
  In  In82  1  0.49427247  0.49607852  0.50315213  1
  In  In83  1  -0.00078830  0.00506575  0.25332895  1
  In  In84  1  0.16310522  0.49568315  -0.00418951  1
  In  In85  1  0.00824406  -0.00471055  0.75584484  1
  Cu  Cu86  1  0.83117803  0.16625549  0.25077707  1
  Cu  Cu87  1  0.83151093  0.83127050  0.74532228  1
  Cu  Cu88  1  0.67092020  0.00337452  0.49861656  1
  Cu  Cu89  1  0.68027796  0.33064731  -0.00503344  1
  Cu  Cu90  1  0.16798693  0.16395913  0.75346374  1
  Cu  Cu91  1  0.33194351  0.32537125  0.49951240  1
  Cu  Cu92  1  0.16763252  0.50211364  0.74904405  1
  Cu  Cu93  1  0.33738771  -0.00343895  0.50201297  1
  Cu  Cu94  1  0.49816197  0.15768184  0.74991661  1
  Cu  Cu95  1  -0.00540314  -0.00187550  0.49913227  1
  Cu  Cu96  1  0.49811096  0.50335814  0.24805687  1
  Cu  Cu97  1  0.83209190  0.82839424  0.25131445  1
  Cu  Cu98  1  0.33160710  0.66895471  0.49800764  1
  Cu  Cu99  1  0.00351217  0.01105365  -0.00158795  1
  Cu  Cu100  1  0.50068070  0.16694353  0.25014058  1
  Cu  Cu101  1  0.16360943  0.49830488  0.24695305  1
  Cu  Cu102  1  0.66982211  0.66798631  -0.00439477  1
  Cu  Cu103  1  0.83383715  0.49959622  0.24934668  1
  Cu  Cu104  1  0.33559311  0.33221797  0.00147027  1
  Cu  Cu105  1  0.66248455  -0.00339389  0.00250189  1
  Cu  Cu106  1  0.66997792  0.66910789  0.50280267  1
  Cu  Cu107  1  0.00364060  0.67186728  0.49981434  1
  Cu  Cu108  1  0.83460460  0.49973182  0.75000851  1
  Cu  Cu109  1  -0.00464739  0.66277926  0.00259277  1
  Cu  Cu110  1  0.82802219  0.16552443  0.74692826  1
  Cu  Cu111  1  0.33654304  0.67850567  0.00469514  1
  Cu  Cu112  1  0.33803950  0.00440535  0.00059862  1
  Cu  Cu113  1  0.16369251  0.83063873  0.25239036  1
  Cu  Cu114  1  0.50251380  0.83987705  0.74640484  1
  Se  Se115  1  0.09506949  0.08546065  0.05005018  1
  Se  Se116  1  0.07368983  0.07700186  0.56250827  1
  Se  Se117  1  0.08379549  0.41439927  0.06649291  1
  Se  Se118  1  0.06906173  0.40276544  0.55047835  1
  Se  Se119  1  0.07896939  0.74732524  0.05560554  1
  Se  Se120  1  0.08888135  0.74913727  0.55626027  1
  Se  Se121  1  0.41285794  0.08131230  0.06749784  1
  Se  Se122  1  0.41822278  0.08493103  0.55026462  1
  Se  Se123  1  0.41787810  0.41775596  0.05445412  1
  Se  Se124  1  0.40602130  0.40673492  0.56299830  1
  Se  Se125  1  0.42017055  0.75897902  0.05698197  1
  Se  Se126  1  0.41808308  0.74274229  0.55851574  1
  Se  Se127  1  0.74890264  0.08099414  0.05024295  1
  Se  Se128  1  0.75125877  0.08722496  0.55426972  1
  Se  Se129  1  0.75683888  0.42015726  0.04746520  1
  Se  Se130  1  0.73220500  0.41369819  0.55967037  1
  Se  Se131  1  0.74161536  0.74597043  0.06422886  1
  Se  Se132  1  0.75444964  0.75365659  0.55182996  1
  Se  Se133  1  0.25740846  0.25154468  0.05950859  1
  Se  Se134  1  0.25020631  0.24760682  0.56044510  1
  Se  Se135  1  0.25467955  0.59091775  0.05493337  1
  Se  Se136  1  0.26089813  0.58781599  0.56389065  1
  Se  Se137  1  0.25883792  0.92301770  0.06206648  1
  Se  Se138  1  0.25400419  0.91214904  0.55245478  1
  Se  Se139  1  0.59546744  0.25753811  0.05625793  1
  Se  Se140  1  0.57580820  0.24769604  0.55671604  1
  Se  Se141  1  0.58812277  0.59035884  0.05905242  1
  Se  Se142  1  0.58679927  0.59051995  0.56008790  1
  Se  Se143  1  0.58075934  0.91798150  0.05955223  1
  Se  Se144  1  0.59085353  0.92294332  0.56009042  1
  Se  Se145  1  0.89912885  0.22819751  0.05629104  1
  Se  Se146  1  0.91620098  0.25426792  0.54372799  1
  Se  Se147  1  0.91246729  0.58077258  0.05495815  1
  Se  Se148  1  0.92449293  0.59098300  0.55978722  1
  Se  Se149  1  0.92809520  0.92859677  0.05949717  1
  Se  Se150  1  0.91104045  0.91455515  0.55212409  1
  Se  Se151  1  0.07852179  0.25798179  0.43923645  1
  Se  Se152  1  0.09037344  0.25720807  0.95822839  1
  Se  Se153  1  0.08260984  0.58856030  0.44129621  1
  Se  Se154  1  0.08028075  0.59530901  0.93737280  1
  Se  Se155  1  0.08544362  0.91585843  0.45363970  1
  Se  Se156  1  0.07523445  0.92914903  0.93534675  1
  Se  Se157  1  0.41809915  0.24374568  0.44916289  1
  Se  Se158  1  0.42231175  0.26196655  0.93897524  1
  Se  Se159  1  0.41372522  0.59128189  0.43801242  1
  Se  Se160  1  0.41038406  0.59763617  0.94027692  1
  Se  Se161  1  0.41275150  0.92092432  0.43479642  1
  Se  Se162  1  0.41815149  0.91800604  0.94839518  1
  Se  Se163  1  0.74570367  0.25258357  0.45131737  1
  Se  Se164  1  0.75575870  0.24194400  0.94121967  1
  Se  Se165  1  0.74522588  0.58664484  0.44071306  1
  Se  Se166  1  0.75334209  0.58316405  0.94522112  1
  Se  Se167  1  0.74913202  0.91573758  0.44445915  1
  Se  Se168  1  0.74406268  0.92136273  0.93859235  1
  Se  Se169  1  0.25823337  0.07386203  0.43719839  1
  Se  Se170  1  0.25819368  0.09118232  0.94817020  1
  Se  Se171  1  0.25440646  0.40981676  0.44145218  1
  Se  Se172  1  0.26368760  0.41562330  0.93769187  1
  Se  Se173  1  0.24740234  0.75262638  0.44747104  1
  Se  Se174  1  0.25494454  0.74843140  0.93902342  1
  Se  Se175  1  0.58326132  0.07897678  0.44295684  1
  Se  Se176  1  0.58853293  0.07837135  0.93798570  1
  Se  Se177  1  0.58833060  0.40542116  0.44693740  1
  Se  Se178  1  0.59611191  0.40666161  0.93523951  1
  Se  Se179  1  0.58917623  0.74200013  0.43829174  1
  Se  Se180  1  0.58475109  0.75391302  0.94761960  1
  Se  Se181  1  0.91616448  0.08536970  0.44580942  1
  Se  Se182  1  0.91345112  0.08818648  0.94771038  1
  Se  Se183  1  0.92189876  0.41578701  0.43879002  1
  Se  Se184  1  0.93225125  0.40071178  0.94893811  1
  Se  Se185  1  0.91669536  0.75320564  0.44829726  1
  Se  Se186  1  0.91857437  0.74827380  0.94327070  1
  Se  Se187  1  0.25787314  0.25302924  0.29967499  1
  Se  Se188  1  0.25023992  0.25040791  0.80426223  1
  Se  Se189  1  0.24730922  0.58125206  0.30203525  1
  Se  Se190  1  0.24874092  0.58671117  0.80264979  1
  Se  Se191  1  0.24477803  0.91465141  0.30559067  1
  Se  Se192  1  0.23092516  0.90590039  0.80716750  1
  Se  Se193  1  0.58039968  0.24591337  0.31274513  1
  Se  Se194  1  0.58330944  0.24681181  0.79671763  1
  Se  Se195  1  0.58544289  0.58250820  0.30010730  1
  Se  Se196  1  0.56508151  0.56713313  0.80893636  1
  Se  Se197  1  0.57190789  0.89901404  0.29816946  1
  Se  Se198  1  0.58716439  0.92107248  0.80113828  1
  Se  Se199  1  0.91471336  0.24992276  0.30237665  1
  Se  Se200  1  0.91071725  0.24491799  0.80746024  1
  Se  Se201  1  0.91676015  0.58450100  0.30267653  1
  Se  Se202  1  0.91829316  0.58182275  0.80362357  1
  Se  Se203  1  0.91219663  0.91071609  0.31253098  1
  Se  Se204  1  0.90738958  0.90832594  0.81182730  1
  Se  Se205  1  0.09504973  0.09405981  0.30818476  1
  Se  Se206  1  0.08110056  0.09862892  0.81804254  1
  Se  Se207  1  0.08147236  0.41415519  0.30003713  1
  Se  Se208  1  0.08972989  0.42254836  0.81265549  1
  Se  Se209  1  0.07901135  0.74845121  0.30533546  1
  Se  Se210  1  0.07591009  0.74944502  0.79136202  1
  Se  Se211  1  0.41949350  0.08360665  0.30487745  1
  Se  Se212  1  0.41303735  0.07830479  0.80508954  1
  Se  Se213  1  0.42017375  0.41700772  0.30317966  1
  Se  Se214  1  0.39691449  0.40090787  0.79822962  1
  Se  Se215  1  0.40400906  0.74385892  0.29713534  1
  Se  Se216  1  0.42227682  0.76018621  0.80658534  1
  Se  Se217  1  0.74755431  0.08206306  0.30263768  1
  Se  Se218  1  0.74589688  0.08011669  0.79909878  1
  Se  Se219  1  0.75579083  0.42205930  0.31379137  1
  Se  Se220  1  0.75315379  0.41530850  0.80449288  1
  Se  Se221  1  0.74987037  0.74614674  0.30628414  1
  Se  Se222  1  0.74874892  0.74848089  0.80213510  1
  Se  Se223  1  0.25507623  0.07602287  0.20550728  1
  Se  Se224  1  0.24745322  0.07764006  0.70001003  1
  Se  Se225  1  0.25130682  0.41543401  0.19705175  1
  Se  Se226  1  0.24503694  0.41307415  0.69680622  1
  Se  Se227  1  0.24646101  0.74837243  0.19643137  1
  Se  Se228  1  0.26912817  0.73546434  0.69549917  1
  Se  Se229  1  0.58721948  0.08354435  0.20008635  1
  Se  Se230  1  0.58522829  0.07923598  0.69542225  1
  Se  Se231  1  0.57770703  0.42423833  0.18560283  1
  Se  Se232  1  0.56411071  0.42643898  0.70005992  1
  Se  Se233  1  0.59413873  0.73639533  0.19880660  1
  Se  Se234  1  0.58569876  0.75059725  0.69822562  1
  Se  Se235  1  0.91364052  0.09054296  0.18800278  1
  Se  Se236  1  0.91463609  0.08346678  0.69398993  1
  Se  Se237  1  0.91428381  0.41377517  0.19613292  1
  Se  Se238  1  0.90493854  0.41816527  0.68381473  1
  Se  Se239  1  0.91756234  0.74471449  0.20074074  1
  Se  Se240  1  0.91542266  0.74855489  0.69314601  1
  Se  Se241  1  0.07613658  0.24758104  0.19707706  1
  Se  Se242  1  0.08637289  0.23940895  0.69033039  1
  Se  Se243  1  0.07893629  0.58512883  0.19769692  1
  Se  Se244  1  0.08060169  0.58205029  0.69680914  1
  Se  Se245  1  0.08680537  0.91198359  0.18948437  1
  Se  Se246  1  0.08660037  0.90974432  0.68663583  1
  Se  Se247  1  0.41733782  0.25423341  0.20116446  1
  Se  Se248  1  0.41094984  0.24102447  0.69849518  1
  Se  Se249  1  0.41245904  0.58419241  0.19462839  1
  Se  Se250  1  0.41104069  0.58923764  0.70582424  1
  Se  Se251  1  0.40483221  0.92808399  0.20253044  1
  Se  Se252  1  0.41527098  0.92063064  0.69434403  1
  Se  Se253  1  0.75454844  0.24818638  0.18740378  1
  Se  Se254  1  0.74564841  0.24922276  0.69400184  1
  Se  Se255  1  0.74842906  0.58181873  0.19815337  1
  Se  Se256  1  0.74748672  0.58329507  0.69895951  1
  Se  Se257  1  0.75241288  0.91648571  0.19920057  1
  Se  Se258  1  0.74897527  0.91728872  0.69502546  1
