# generated using pymatgen
data_In86Cu29Se144
_symmetry_space_group_name_H-M   'P 1'
_cell_length_a   17.58589810
_cell_length_b   17.58922015
_cell_length_c   23.44602020
_cell_angle_alpha   90.01366083
_cell_angle_beta   90.00365806
_cell_angle_gamma   90.00148123
_symmetry_Int_Tables_number   1
_chemical_formula_structural   In86Cu29Se144
_chemical_formula_sum   'In86 Cu29 Se144'
_cell_volume   7252.37510445
_cell_formula_units_Z   1
loop_
 _symmetry_equiv_pos_site_id
 _symmetry_equiv_pos_as_xyz
  1  'x, y, z'
loop_
 _atom_site_type_symbol
 _atom_site_label
 _atom_site_symmetry_multiplicity
 _atom_site_fract_x
 _atom_site_fract_y
 _atom_site_fract_z
 _atom_site_occupancy
  In  In0  1  -0.00810241  0.17868876  0.12500261  1
  In  In1  1  0.00700210  0.17566838  0.63237121  1
  In  In2  1  0.00398889  0.48423076  0.12458957  1
  In  In3  1  0.00208299  0.50685596  0.62688946  1
  In  In4  1  -0.00923806  0.84518975  0.12150549  1
  In  In5  1  -0.02199425  0.81270609  0.61480515  1
  In  In6  1  0.34913953  0.15063987  0.14067671  1
  In  In7  1  0.35029123  0.15904449  0.61635325  1
  In  In8  1  0.33000060  0.50775527  0.13463630  1
  In  In9  1  0.32902369  0.49770946  0.61188239  1
  In  In10  1  0.35057036  0.82363554  0.13271512  1
  In  In11  1  0.32711820  0.84781296  0.61062168  1
  In  In12  1  0.66174889  0.17456838  0.11905007  1
  In  In13  1  0.65294231  0.16186428  0.62197281  1
  In  In14  1  0.65455710  0.50074677  0.14630075  1
  In  In15  1  0.67972526  0.50825295  0.60823594  1
  In  In16  1  0.66121968  0.83908790  0.11934110  1
  In  In17  1  0.67918848  0.82384386  0.63866266  1
  In  In18  1  0.17411205  -0.01468200  0.38052962  1
  In  In19  1  0.17296456  -0.00094342  0.87500135  1
  In  In20  1  0.17495265  0.34595760  0.36710544  1
  In  In21  1  0.16839262  0.34779795  0.87936962  1
  In  In22  1  0.17490796  0.65752734  0.38398588  1
  In  In23  1  0.15893775  0.66321853  0.87128073  1
  In  In24  1  0.51040249  0.00833878  0.37210751  1
  In  In25  1  0.55099082  -0.03133048  0.92550828  1
  In  In26  1  0.49931029  0.33479945  0.36949500  1
  In  In27  1  0.50390593  0.32631860  0.88427439  1
  In  In28  1  0.49099199  0.64930482  0.35786390  1
  In  In29  1  0.51707866  0.66264885  0.87099256  1
  In  In30  1  0.81038733  -0.01158122  0.38008740  1
  In  In31  1  0.82198443  0.00100337  0.87796161  1
  In  In32  1  0.84156805  0.33696998  0.36552744  1
  In  In33  1  0.83615225  0.32179343  0.87685139  1
  In  In34  1  0.81835468  0.67707924  0.37884754  1
  In  In35  1  0.83607718  0.67019742  0.87046712  1
  In  In36  1  -0.01007686  0.17464729  0.37175607  1
  In  In37  1  -0.01806655  0.16302878  0.86976550  1
  In  In38  1  0.00490388  0.49470439  0.38057348  1
  In  In39  1  0.01105419  0.50946225  0.86680548  1
  In  In40  1  -0.00104828  0.82995746  0.38338633  1
  In  In41  1  -0.00725086  0.81586887  0.86855216  1
  In  In42  1  0.34312741  0.17782402  0.36645682  1
  In  In43  1  0.35356757  0.16302651  0.88135744  1
  In  In44  1  0.33346609  0.49766144  0.37183962  1
  In  In45  1  0.33547007  0.48240484  0.87921615  1
  In  In46  1  0.33451258  0.82499254  0.36983495  1
  In  In47  1  0.33884783  0.84803288  0.87647432  1
  In  In48  1  0.65578429  0.15364152  0.36784068  1
  In  In49  1  0.68890839  0.14774896  0.91296842  1
  In  In50  1  0.66896644  0.49761642  0.37102844  1
  In  In51  1  0.66060701  0.51033596  0.87043029  1
  In  In52  1  0.66882734  0.83842219  0.37121168  1
  In  In53  1  0.66709940  0.82573048  0.87654599  1
  In  In54  1  0.16790216  0.00796478  0.12894159  1
  In  In55  1  0.17644403  -0.00310694  0.61703030  1
  In  In56  1  0.15751144  0.33770876  0.13060740  1
  In  In57  1  0.15779509  0.34290610  0.62776843  1
  In  In58  1  0.18122063  0.66764119  0.12280590  1
  In  In59  1  0.15011112  0.65311247  0.61401636  1
  In  In60  1  0.50850134  -0.00201021  0.12310971  1
  In  In61  1  0.50423860  0.00766813  0.61888850  1
  In  In62  1  0.51636155  0.32647053  0.15465381  1
  In  In63  1  0.49828118  0.33015604  0.61353298  1
  In  In64  1  0.49407569  0.66997483  0.13527671  1
  In  In65  1  0.51640019  0.67129994  0.62263722  1
  In  In66  1  0.80623216  -0.00644881  0.10380750  1
  In  In67  1  0.82583253  -0.01704333  0.62555614  1
  In  In68  1  0.83142032  0.32841787  0.12670942  1
  In  In69  1  0.83210682  0.34723232  0.62271477  1
  In  In70  1  0.81977518  0.67154383  0.12752719  1
  In  In71  1  0.83640954  0.66474005  0.62890471  1
  In  In72  1  0.66839777  0.33658131  0.75172154  1
  In  In73  1  0.17138378  0.17416372  0.50093048  1
  In  In74  1  0.16773946  0.16979629  0.00487817  1
  In  In75  1  0.32931876  0.66725660  0.74456158  1
  In  In76  1  0.82649772  0.16394168  0.49745210  1
  In  In77  1  -0.00348436  0.01036913  0.24814817  1
  In  In78  1  0.33833372  0.00546892  0.74276082  1
  In  In79  1  0.33220503  0.33355564  0.74286505  1
  In  In80  1  0.83298193  0.49522073  0.00923735  1
  In  In81  1  0.16790224  0.82918597  -0.00575519  1
  In  In82  1  0.00232571  0.66387265  0.26114103  1
  In  In83  1  -0.00515441  -0.00117474  0.74960370  1
  In  In84  1  0.50645258  0.83179789  0.49446127  1
  In  In85  1  0.49794137  0.49402166  0.00927319  1
  Cu  Cu86  1  0.66116995  0.33088601  0.49245898  1
  Cu  Cu87  1  0.16957968  0.18026060  0.75093300  1
  Cu  Cu88  1  -0.00738101  0.66609200  0.50086257  1
  Cu  Cu89  1  0.51006489  0.15674637  0.75499523  1
  Cu  Cu90  1  -0.00218601  0.66326468  -0.00427738  1
  Cu  Cu91  1  -0.00096494  -0.00479625  0.49971674  1
  Cu  Cu92  1  0.34043986  0.66157493  0.00526458  1
  Cu  Cu93  1  -0.00050150  0.34183372  0.50056424  1
  Cu  Cu94  1  0.16755880  0.16784129  0.25056237  1
  Cu  Cu95  1  0.50351366  0.49655357  0.74112285  1
  Cu  Cu96  1  0.33197103  0.66719498  0.49096904  1
  Cu  Cu97  1  0.83374077  0.49538903  0.24813656  1
  Cu  Cu98  1  0.17916700  0.83343868  0.25087471  1
  Cu  Cu99  1  0.50290934  0.16169641  0.24901212  1
  Cu  Cu100  1  0.16005527  0.82973461  0.73823621  1
  Cu  Cu101  1  0.32849814  0.33607969  0.01227100  1
  Cu  Cu102  1  0.50565199  0.83865803  0.75691214  1
  Cu  Cu103  1  -0.01292320  -0.00171206  -0.00399229  1
  Cu  Cu104  1  0.82479754  0.16545566  0.24653037  1
  Cu  Cu105  1  0.00123438  0.33551544  0.00062982  1
  Cu  Cu106  1  0.33619467  0.33710312  0.49044397  1
  Cu  Cu107  1  0.16409803  0.50150717  0.25414764  1
  Cu  Cu108  1  0.82376975  0.16645199  0.75591905  1
  Cu  Cu109  1  0.66577664  0.67035670  0.00216726  1
  Cu  Cu110  1  0.50734460  0.84072071  0.24974869  1
  Cu  Cu111  1  0.66512400  0.66298848  0.49805997  1
  Cu  Cu112  1  0.34050420  -0.00643472  0.01281451  1
  Cu  Cu113  1  0.84069700  0.50504485  0.74613183  1
  Cu  Cu114  1  0.83076578  0.84113827  0.24699251  1
  Se  Se115  1  0.06990298  0.07492152  0.05739555  1
  Se  Se116  1  0.07348579  0.08214166  0.55719757  1
  Se  Se117  1  0.08938593  0.41620997  0.05024370  1
  Se  Se118  1  0.08419228  0.42303530  0.55423223  1
  Se  Se119  1  0.07554591  0.74515424  0.06024950  1
  Se  Se120  1  0.08107602  0.75227138  0.54977611  1
  Se  Se121  1  0.42086145  0.08568229  0.05810552  1
  Se  Se122  1  0.41869950  0.07500302  0.54508753  1
  Se  Se123  1  0.41348412  0.40786938  0.07377306  1
  Se  Se124  1  0.41940240  0.41854904  0.54794655  1
  Se  Se125  1  0.42318290  0.74705043  0.05520966  1
  Se  Se126  1  0.41158238  0.74258116  0.55693309  1
  Se  Se127  1  0.74800344  0.10245632  0.04509069  1
  Se  Se128  1  0.74133749  0.07303297  0.55766957  1
  Se  Se129  1  0.73385161  0.41922743  0.07019886  1
  Se  Se130  1  0.75012225  0.40984836  0.54416879  1
  Se  Se131  1  0.75062550  0.75437657  0.05329441  1
  Se  Se132  1  0.74411763  0.74121587  0.55982096  1
  Se  Se133  1  0.25715712  0.24771276  0.07204917  1
  Se  Se134  1  0.26226891  0.26412920  0.56332794  1
  Se  Se135  1  0.25338829  0.57880949  0.05338812  1
  Se  Se136  1  0.24800724  0.58539515  0.54731653  1
  Se  Se137  1  0.25110548  0.91393103  0.06506689  1
  Se  Se138  1  0.25741579  0.93419846  0.54022087  1
  Se  Se139  1  0.57095721  0.26751727  0.06446747  1
  Se  Se140  1  0.58249326  0.24578075  0.54783381  1
  Se  Se141  1  0.58948601  0.58878447  0.06402863  1
  Se  Se142  1  0.57700310  0.58022862  0.54824730  1
  Se  Se143  1  0.59125437  0.92942621  0.04533137  1
  Se  Se144  1  0.59217242  0.90880386  0.56489424  1
  Se  Se145  1  0.91357865  0.25435450  0.05062190  1
  Se  Se146  1  0.92321816  0.25305076  0.55672939  1
  Se  Se147  1  0.92474145  0.59070607  0.06629249  1
  Se  Se148  1  0.91371216  0.58128773  0.55631306  1
  Se  Se149  1  0.90634931  0.91174470  0.04730584  1
  Se  Se150  1  0.91150214  0.91503490  0.55156420  1
  Se  Se151  1  0.07815497  0.25935815  0.43989800  1
  Se  Se152  1  0.07620292  0.24976712  0.93815005  1
  Se  Se153  1  0.07907913  0.58501733  0.44830554  1
  Se  Se154  1  0.08588279  0.58301774  0.94687166  1
  Se  Se155  1  0.08513553  0.91263226  0.44931552  1
  Se  Se156  1  0.07292668  0.92128000  0.93690585  1
  Se  Se157  1  0.42079777  0.25091285  0.44304435  1
  Se  Se158  1  0.41011493  0.25875237  0.95384520  1
  Se  Se159  1  0.41679871  0.58363833  0.44010583  1
  Se  Se160  1  0.41676175  0.58507293  0.93830540  1
  Se  Se161  1  0.41679008  0.91959102  0.43478632  1
  Se  Se162  1  0.41793168  0.90913933  0.95619937  1
  Se  Se163  1  0.74519749  0.25345538  0.43196334  1
  Se  Se164  1  0.74661475  0.27037326  0.95297194  1
  Se  Se165  1  0.74974122  0.57934337  0.44448290  1
  Se  Se166  1  0.74629809  0.58643233  0.94602640  1
  Se  Se167  1  0.75127918  0.89738721  0.45213420  1
  Se  Se168  1  0.73473091  0.92257228  0.94505293  1
  Se  Se169  1  0.25588207  0.08868732  0.43619722  1
  Se  Se170  1  0.26059274  0.07192783  0.94901673  1
  Se  Se171  1  0.24725272  0.42113633  0.44523181  1
  Se  Se172  1  0.24985410  0.41841952  0.95529761  1
  Se  Se173  1  0.24900315  0.75684500  0.44568206  1
  Se  Se174  1  0.26328704  0.73904889  0.93721729  1
  Se  Se175  1  0.59642493  0.07283118  0.44797456  1
  Se  Se176  1  0.55162763  0.11401929  0.94019419  1
  Se  Se177  1  0.58201902  0.41741807  0.43975862  1
  Se  Se178  1  0.59452572  0.41697989  0.94382510  1
  Se  Se179  1  0.58531363  0.73614136  0.43203004  1
  Se  Se180  1  0.57771426  0.74740338  0.94833419  1
  Se  Se181  1  0.92061198  0.07325321  0.43743676  1
  Se  Se182  1  0.90818883  0.08679191  0.94460245  1
  Se  Se183  1  0.91116001  0.41575634  0.44428108  1
  Se  Se184  1  0.92354100  0.41852463  0.93973544  1
  Se  Se185  1  0.91024143  0.75022112  0.44730059  1
  Se  Se186  1  0.91374396  0.74785476  0.94653601  1
  Se  Se187  1  0.24956084  0.25394432  0.30142560  1
  Se  Se188  1  0.25603130  0.24441356  0.81563385  1
  Se  Se189  1  0.24824784  0.58574210  0.30518537  1
  Se  Se190  1  0.25355060  0.57345989  0.81148738  1
  Se  Se191  1  0.25767344  0.92033489  0.30356465  1
  Se  Se192  1  0.24164843  0.90854809  0.79899423  1
  Se  Se193  1  0.58431945  0.24823309  0.30243037  1
  Se  Se194  1  0.58377355  0.24519552  0.81205733  1
  Se  Se195  1  0.59435540  0.58267532  0.29841468  1
  Se  Se196  1  0.58589898  0.58298858  0.79250220  1
  Se  Se197  1  0.59061510  0.92385913  0.30197211  1
  Se  Se198  1  0.57601558  0.91945611  0.82019470  1
  Se  Se199  1  0.91625273  0.24740862  0.29462861  1
  Se  Se200  1  0.91443463  0.25237231  0.79807603  1
  Se  Se201  1  0.90577183  0.57592699  0.31443089  1
  Se  Se202  1  0.92024065  0.58823936  0.80276286  1
  Se  Se203  1  0.91458213  0.91393349  0.30956610  1
  Se  Se204  1  0.90579760  0.91042726  0.80940539  1
  Se  Se205  1  0.09078420  0.08790180  0.31494926  1
  Se  Se206  1  0.09282037  0.09140702  0.80737546  1
  Se  Se207  1  0.07638114  0.41710148  0.30228533  1
  Se  Se208  1  0.08511643  0.41173320  0.80498519  1
  Se  Se209  1  0.09618998  0.75867850  0.31209456  1
  Se  Se210  1  0.08584900  0.74833257  0.79909571  1
  Se  Se211  1  0.41822726  0.08109759  0.30325114  1
  Se  Se212  1  0.42977023  0.07546042  0.81238804  1
  Se  Se213  1  0.41246525  0.41451077  0.30182863  1
  Se  Se214  1  0.43089609  0.41677947  0.80458354  1
  Se  Se215  1  0.42161465  0.75346928  0.29815606  1
  Se  Se216  1  0.41892438  0.75503483  0.80958641  1
  Se  Se217  1  0.75229093  0.07786698  0.30396306  1
  Se  Se218  1  0.74037429  0.09397453  0.81592275  1
  Se  Se219  1  0.74852513  0.41166797  0.29972674  1
  Se  Se220  1  0.76168941  0.42707539  0.81101181  1
  Se  Se221  1  0.74983839  0.75459368  0.29995048  1
  Se  Se222  1  0.73267179  0.73054394  0.80792205  1
  Se  Se223  1  0.24935180  0.07761119  0.20338533  1
  Se  Se224  1  0.24415143  0.09988726  0.68755360  1
  Se  Se225  1  0.24412036  0.41854033  0.19741870  1
  Se  Se226  1  0.24448815  0.43365537  0.69366028  1
  Se  Se227  1  0.25597512  0.74599562  0.19667791  1
  Se  Se228  1  0.24666016  0.75677939  0.67880337  1
  Se  Se229  1  0.58789322  0.08580313  0.19102013  1
  Se  Se230  1  0.58721085  0.07416076  0.69659793  1
  Se  Se231  1  0.55252872  0.44591482  0.21525489  1
  Se  Se232  1  0.58431975  0.41832951  0.68107267  1
  Se  Se233  1  0.58721264  0.75599179  0.19334262  1
  Se  Se234  1  0.58174664  0.74894322  0.70262188  1
  Se  Se235  1  0.90127241  0.08371611  0.18231625  1
  Se  Se236  1  0.90511667  0.09227787  0.68944517  1
  Se  Se237  1  0.91654078  0.41293220  0.19451086  1
  Se  Se238  1  0.91916695  0.41693122  0.69375140  1
  Se  Se239  1  0.91641652  0.75602232  0.19544030  1
  Se  Se240  1  0.91013232  0.75324358  0.69942585  1
  Se  Se241  1  0.08041292  0.24604163  0.19731093  1
  Se  Se242  1  0.08214944  0.26154978  0.70192538  1
  Se  Se243  1  0.08701140  0.58168269  0.19023511  1
  Se  Se244  1  0.08365835  0.58848423  0.69726312  1
  Se  Se245  1  0.08899165  0.90864520  0.19483008  1
  Se  Se246  1  0.08385877  0.91806851  0.68284695  1
  Se  Se247  1  0.41067392  0.25051511  0.20761629  1
  Se  Se248  1  0.43120414  0.23817209  0.69379967  1
  Se  Se249  1  0.41432950  0.58673287  0.20235140  1
  Se  Se250  1  0.42141708  0.57730490  0.68407868  1
  Se  Se251  1  0.42183877  0.92213389  0.19521688  1
  Se  Se252  1  0.42491177  0.90602030  0.68778300  1
  Se  Se253  1  0.74325495  0.25202394  0.19522908  1
  Se  Se254  1  0.75318652  0.24436692  0.68573903  1
  Se  Se255  1  0.75240211  0.58576115  0.20072190  1
  Se  Se256  1  0.74783782  0.57633028  0.69195488  1
  Se  Se257  1  0.74852131  0.92001536  0.18929448  1
  Se  Se258  1  0.74717529  0.92180591  0.70439719  1
