# generated using pymatgen
data_In86Cu29Se144
_symmetry_space_group_name_H-M   'P 1'
_cell_length_a   17.58008615
_cell_length_b   17.57614153
_cell_length_c   23.43288202
_cell_angle_alpha   90.00271793
_cell_angle_beta   90.00592496
_cell_angle_gamma   89.97970444
_symmetry_Int_Tables_number   1
_chemical_formula_structural   In86Cu29Se144
_chemical_formula_sum   'In86 Cu29 Se144'
_cell_volume   7240.52764023
_cell_formula_units_Z   1
loop_
 _symmetry_equiv_pos_site_id
 _symmetry_equiv_pos_as_xyz
  1  'x, y, z'
loop_
 _atom_site_type_symbol
 _atom_site_label
 _atom_site_symmetry_multiplicity
 _atom_site_fract_x
 _atom_site_fract_y
 _atom_site_fract_z
 _atom_site_occupancy
  In  In0  1  -0.00135961  0.15948557  0.11480119  1
  In  In1  1  0.01256406  0.17758903  0.61891305  1
  In  In2  1  0.01102756  0.51927334  0.10532618  1
  In  In3  1  0.00469725  0.49071840  0.63243518  1
  In  In4  1  -0.01633959  0.81136369  0.10020790  1
  In  In5  1  0.00663831  0.82356358  0.62575390  1
  In  In6  1  0.32089306  0.17666940  0.13470640  1
  In  In7  1  0.33027486  0.17051880  0.62470651  1
  In  In8  1  0.32670681  0.50445690  0.13419039  1
  In  In9  1  0.31098509  0.49640580  0.62300950  1
  In  In10  1  0.32161649  0.83937539  0.13260106  1
  In  In11  1  0.33155167  0.84711028  0.62649336  1
  In  In12  1  0.68232853  0.17353746  0.13141074  1
  In  In13  1  0.67681964  0.18620600  0.60901985  1
  In  In14  1  0.66959367  0.49469511  0.12476993  1
  In  In15  1  0.66860637  0.49809320  0.63367071  1
  In  In16  1  0.67013587  0.81897161  0.12346510  1
  In  In17  1  0.65693014  0.82705505  0.63256712  1
  In  In18  1  0.17153996  -0.00511878  0.37861285  1
  In  In19  1  0.17069993  -0.00582458  0.88094669  1
  In  In20  1  0.17604924  0.32376500  0.38196988  1
  In  In21  1  0.16201521  0.33722071  0.87069450  1
  In  In22  1  0.16702974  0.66511995  0.36994160  1
  In  In23  1  0.16725862  0.66410460  0.89072773  1
  In  In24  1  0.49543365  0.01750993  0.37794758  1
  In  In25  1  0.49834871  0.00926896  0.86698728  1
  In  In26  1  0.49882850  0.32932556  0.37591517  1
  In  In27  1  0.49758639  0.32923032  0.86263724  1
  In  In28  1  0.50208958  0.66868845  0.36823934  1
  In  In29  1  0.50298044  0.65940476  0.87459969  1
  In  In30  1  0.84264844  0.00510763  0.37261534  1
  In  In31  1  0.85202118  -0.00856738  0.89389722  1
  In  In32  1  0.82563018  0.32800847  0.37125121  1
  In  In33  1  0.83550023  0.33256042  0.87599937  1
  In  In34  1  0.83105506  0.65847173  0.35801715  1
  In  In35  1  0.83023989  0.66771632  0.89570845  1
  In  In36  1  -0.00078964  0.17309687  0.38257829  1
  In  In37  1  -0.00929624  0.17520196  0.88144899  1
  In  In38  1  -0.00224323  0.51334739  0.36945813  1
  In  In39  1  0.01507316  0.48704090  0.88954838  1
  In  In40  1  0.01262202  0.83548958  0.36881615  1
  In  In41  1  0.00922523  0.82235665  0.89826624  1
  In  In42  1  0.33096862  0.16799796  0.37387933  1
  In  In43  1  0.32739768  0.16027889  0.86275403  1
  In  In44  1  0.32389663  0.48810695  0.36876516  1
  In  In45  1  0.32790351  0.48829256  0.87230955  1
  In  In46  1  0.32261142  0.82711207  0.36460764  1
  In  In47  1  0.32316135  0.83159929  0.87497438  1
  In  In48  1  0.66492458  0.17806019  0.38330482  1
  In  In49  1  0.67566063  0.17643349  0.86977967  1
  In  In50  1  0.66664541  0.49723362  0.36766489  1
  In  In51  1  0.67735427  0.50335767  0.87239243  1
  In  In52  1  0.67655308  0.82724646  0.36877481  1
  In  In53  1  0.67660605  0.83342552  0.87922540  1
  In  In54  1  0.16662272  0.00430559  0.11695011  1
  In  In55  1  0.17628762  0.01101678  0.61840820  1
  In  In56  1  0.16711111  0.33908533  0.12137103  1
  In  In57  1  0.17092132  0.33746889  0.62928230  1
  In  In58  1  0.16502506  0.66628873  0.12360761  1
  In  In59  1  0.16155734  0.66882143  0.61473423  1
  In  In60  1  0.48780322  -0.00681865  0.12740726  1
  In  In61  1  0.48156882  0.00672966  0.62924892  1
  In  In62  1  0.49914061  0.33356894  0.13354483  1
  In  In63  1  0.50808417  0.32231668  0.62749287  1
  In  In64  1  0.50382681  0.65855910  0.13402395  1
  In  In65  1  0.50812982  0.67681176  0.63111213  1
  In  In66  1  0.84446521  0.00119616  0.11376516  1
  In  In67  1  0.82122043  0.00838693  0.62934490  1
  In  In68  1  0.82632956  0.32869233  0.12213058  1
  In  In69  1  0.83585901  0.33224910  0.63205739  1
  In  In70  1  0.82947926  0.66343266  0.11682233  1
  In  In71  1  0.82940919  0.65233478  0.62984458  1
  In  In72  1  0.49911858  0.83096476  0.00052403  1
  In  In73  1  0.33618029  0.66398075  0.75531883  1
  In  In74  1  0.00064339  0.00111987  0.76022120  1
  In  In75  1  0.84216971  0.49477148  0.50497906  1
  In  In76  1  0.00416149  -0.00344787  0.23742863  1
  In  In77  1  0.50095352  0.49662047  0.00638937  1
  In  In78  1  -0.00215763  0.33705426  0.24716086  1
  In  In79  1  0.66585671  0.00369517  0.75259185  1
  In  In80  1  0.50013258  0.16734177  -0.00916465  1
  In  In81  1  0.49765677  0.83920462  0.50619160  1
  In  In82  1  0.66102058  0.00095818  0.25197180  1
  In  In83  1  0.49673127  0.49510621  0.49371814  1
  In  In84  1  -0.00075333  0.65934557  0.76832584  1
  In  In85  1  0.84210021  0.83886506  0.49650079  1
  Cu  Cu86  1  0.83343873  0.81977804  0.76261621  1
  Cu  Cu87  1  0.00939824  0.67202775  0.49321117  1
  Cu  Cu88  1  0.66639676  0.01230253  0.50107301  1
  Cu  Cu89  1  0.83555586  0.16994857  0.75207682  1
  Cu  Cu90  1  0.67722716  -0.00021277  0.00252337  1
  Cu  Cu91  1  0.49760494  0.49567350  0.74833760  1
  Cu  Cu92  1  0.32380340  0.66966777  0.49482701  1
  Cu  Cu93  1  0.32923349  0.00763638  -0.00090437  1
  Cu  Cu94  1  0.82733314  0.49532036  0.75730705  1
  Cu  Cu95  1  0.00017531  0.33273480  -0.00051280  1
  Cu  Cu96  1  0.49315061  0.83232646  0.24746744  1
  Cu  Cu97  1  0.16781593  0.49895928  0.24562076  1
  Cu  Cu98  1  0.50450813  0.49963360  0.25225840  1
  Cu  Cu99  1  0.16806805  0.16263560  0.25021368  1
  Cu  Cu100  1  0.49517168  0.16876346  0.25547065  1
  Cu  Cu101  1  0.31874742  0.33111266  -0.00062119  1
  Cu  Cu102  1  0.83252720  0.82553544  0.23806749  1
  Cu  Cu103  1  0.16186450  0.82554313  0.24470839  1
  Cu  Cu104  1  0.32841939  0.00446630  0.49969700  1
  Cu  Cu105  1  0.17266650  0.84032079  0.75208246  1
  Cu  Cu106  1  0.00642281  0.33562197  0.50565953  1
  Cu  Cu107  1  0.32894247  0.33058138  0.50023020  1
  Cu  Cu108  1  0.66786505  0.33140541  -0.00239171  1
  Cu  Cu109  1  0.49785479  0.16668602  0.74320660  1
  Cu  Cu110  1  0.83713034  0.50265261  0.23958098  1
  Cu  Cu111  1  0.00086484  0.00350455  0.49886842  1
  Cu  Cu112  1  0.16751110  0.17334489  0.74524365  1
  Cu  Cu113  1  0.67219219  0.66408769  0.50118876  1
  Cu  Cu114  1  0.33008092  0.66530947  0.00615333  1
  Se  Se115  1  0.08475017  0.08377254  0.04723397  1
  Se  Se116  1  0.08595309  0.08630755  0.55147370  1
  Se  Se117  1  0.08730018  0.41707451  0.04895629  1
  Se  Se118  1  0.08727738  0.42119715  0.55776325  1
  Se  Se119  1  0.09893429  0.75308521  0.04884632  1
  Se  Se120  1  0.08677288  0.76036678  0.54668794  1
  Se  Se121  1  0.41094893  0.08606837  0.05859798  1
  Se  Se122  1  0.41239438  0.08673082  0.55310948  1
  Se  Se123  1  0.40490030  0.40544982  0.06015452  1
  Se  Se124  1  0.40901444  0.41214841  0.56048710  1
  Se  Se125  1  0.41244131  0.74352804  0.06551444  1
  Se  Se126  1  0.40729499  0.74023925  0.55920392  1
  Se  Se127  1  0.75097459  0.08929771  0.05688625  1
  Se  Se128  1  0.75874472  0.08889490  0.55079766  1
  Se  Se129  1  0.74827730  0.41531035  0.05181316  1
  Se  Se130  1  0.74316995  0.41160467  0.55955594  1
  Se  Se131  1  0.75638613  0.75847343  0.04939011  1
  Se  Se132  1  0.75073207  0.74845057  0.55947108  1
  Se  Se133  1  0.24297875  0.24416563  0.05513487  1
  Se  Se134  1  0.24427301  0.25089667  0.55643974  1
  Se  Se135  1  0.24975363  0.57686687  0.05719815  1
  Se  Se136  1  0.24439128  0.58339361  0.54856067  1
  Se  Se137  1  0.25498744  0.91742449  0.05314793  1
  Se  Se138  1  0.24829234  0.91567914  0.55127264  1
  Se  Se139  1  0.58494543  0.25354938  0.05808208  1
  Se  Se140  1  0.57430887  0.24946462  0.54669640  1
  Se  Se141  1  0.59173017  0.59351434  0.05666180  1
  Se  Se142  1  0.58716766  0.58620960  0.55811056  1
  Se  Se143  1  0.58927275  0.92562059  0.06031508  1
  Se  Se144  1  0.59280209  0.92880997  0.56329368  1
  Se  Se145  1  0.91605719  0.25224684  0.05434218  1
  Se  Se146  1  0.91693621  0.25648756  0.55756501  1
  Se  Se147  1  0.90224109  0.57474020  0.04584674  1
  Se  Se148  1  0.93181956  0.59453233  0.55891971  1
  Se  Se149  1  0.92936896  0.92674434  0.04521996  1
  Se  Se150  1  0.92414422  0.92726372  0.56553769  1
  Se  Se151  1  0.08659504  0.24906791  0.45073277  1
  Se  Se152  1  0.08550994  0.25350282  0.94358043  1
  Se  Se153  1  0.08605992  0.58141033  0.44172805  1
  Se  Se154  1  0.06841577  0.59610713  0.95236506  1
  Se  Se155  1  0.07992366  0.91667878  0.44531460  1
  Se  Se156  1  0.07573506  0.93216629  0.95058618  1
  Se  Se157  1  0.41295044  0.25060948  0.44445943  1
  Se  Se158  1  0.40460472  0.25870465  0.93769556  1
  Se  Se159  1  0.40850098  0.59102892  0.43738097  1
  Se  Se160  1  0.40732733  0.58532845  0.94404919  1
  Se  Se161  1  0.40873183  0.92060693  0.43957135  1
  Se  Se162  1  0.41352468  0.92811184  0.94104689  1
  Se  Se163  1  0.76044679  0.24934063  0.44877694  1
  Se  Se164  1  0.75301088  0.24722284  0.94653531  1
  Se  Se165  1  0.75226159  0.58612662  0.44115767  1
  Se  Se166  1  0.74631203  0.57199420  0.95304648  1
  Se  Se167  1  0.74123567  0.92686663  0.44072115  1
  Se  Se168  1  0.75590367  0.91003025  0.95230061  1
  Se  Se169  1  0.24621213  0.08740877  0.44435847  1
  Se  Se170  1  0.25125355  0.09084798  0.94204363  1
  Se  Se171  1  0.24813189  0.41919408  0.44877199  1
  Se  Se172  1  0.24235337  0.41966675  0.94553399  1
  Se  Se173  1  0.24376608  0.75435828  0.44070543  1
  Se  Se174  1  0.25305540  0.75416840  0.95199380  1
  Se  Se175  1  0.57969205  0.09117854  0.44848795  1
  Se  Se176  1  0.59788278  0.07418412  0.93819692  1
  Se  Se177  1  0.59750887  0.40901385  0.44286093  1
  Se  Se178  1  0.58145589  0.40650367  0.93880823  1
  Se  Se179  1  0.59070619  0.74776828  0.44459251  1
  Se  Se180  1  0.58993573  0.73965929  0.94475257  1
  Se  Se181  1  0.91517071  0.08499272  0.44714849  1
  Se  Se182  1  0.91296760  0.09569119  0.95363605  1
  Se  Se183  1  0.92879203  0.40975638  0.43789143  1
  Se  Se184  1  0.91259467  0.41493748  0.94876065  1
  Se  Se185  1  0.91838190  0.74055187  0.43348587  1
  Se  Se186  1  0.91850910  0.74609980  0.96154461  1
  Se  Se187  1  0.24823541  0.25021350  0.30280230  1
  Se  Se188  1  0.24968756  0.25583708  0.80177748  1
  Se  Se189  1  0.25090112  0.58131086  0.30178264  1
  Se  Se190  1  0.23756977  0.58080530  0.81104996  1
  Se  Se191  1  0.23902571  0.91473881  0.29978045  1
  Se  Se192  1  0.25504653  0.92387699  0.80461093  1
  Se  Se193  1  0.58391425  0.24872362  0.30640777  1
  Se  Se194  1  0.58417924  0.24370067  0.79934288  1
  Se  Se195  1  0.58842734  0.58688565  0.30247792  1
  Se  Se196  1  0.57969780  0.57462725  0.80606664  1
  Se  Se197  1  0.57093372  0.90957169  0.31352000  1
  Se  Se198  1  0.58002349  0.90768550  0.81007021  1
  Se  Se199  1  0.91288984  0.24012892  0.30431573  1
  Se  Se200  1  0.92010365  0.25384399  0.80366895  1
  Se  Se201  1  0.92316544  0.58581086  0.29102639  1
  Se  Se202  1  0.90534744  0.57102279  0.82236101  1
  Se  Se203  1  0.90890312  0.90676462  0.30108362  1
  Se  Se204  1  0.91928120  0.89889977  0.81714581  1
  Se  Se205  1  0.08287702  0.08580009  0.30905862  1
  Se  Se206  1  0.09241567  0.09514970  0.81249203  1
  Se  Se207  1  0.09112320  0.41935486  0.31062068  1
  Se  Se208  1  0.08025126  0.42457590  0.80439915  1
  Se  Se209  1  0.07905508  0.74335469  0.29933826  1
  Se  Se210  1  0.09498636  0.76006289  0.81452646  1
  Se  Se211  1  0.41012762  0.08168208  0.30243685  1
  Se  Se212  1  0.41517389  0.08072418  0.79424977  1
  Se  Se213  1  0.42153872  0.41569062  0.30616939  1
  Se  Se214  1  0.41081326  0.41459324  0.79953295  1
  Se  Se215  1  0.41321153  0.74602036  0.30136951  1
  Se  Se216  1  0.42565503  0.75834833  0.81121228  1
  Se  Se217  1  0.75170395  0.08969193  0.30988374  1
  Se  Se218  1  0.76817205  0.07921572  0.81352249  1
  Se  Se219  1  0.76009037  0.42295141  0.30198106  1
  Se  Se220  1  0.74384596  0.40591591  0.80531580  1
  Se  Se221  1  0.74685224  0.74638116  0.29395274  1
  Se  Se222  1  0.75140177  0.73785362  0.81532835  1
  Se  Se223  1  0.24647088  0.07615574  0.19514389  1
  Se  Se224  1  0.25040914  0.08449617  0.69603335  1
  Se  Se225  1  0.24982486  0.40894154  0.19765504  1
  Se  Se226  1  0.24537361  0.42185305  0.70206084  1
  Se  Se227  1  0.25106415  0.74171696  0.19681247  1
  Se  Se228  1  0.24375984  0.75215638  0.69112598  1
  Se  Se229  1  0.57262517  0.09212961  0.18884251  1
  Se  Se230  1  0.58577819  0.09116909  0.68400675  1
  Se  Se231  1  0.58640429  0.41673273  0.19685476  1
  Se  Se232  1  0.58277473  0.41224476  0.69646592  1
  Se  Se233  1  0.58234646  0.75262655  0.19719665  1
  Se  Se234  1  0.59574801  0.73795301  0.70504647  1
  Se  Se235  1  0.90690415  0.09275144  0.19225568  1
  Se  Se236  1  0.91667810  0.08920972  0.69241974  1
  Se  Se237  1  0.91924886  0.42546126  0.17955326  1
  Se  Se238  1  0.91358849  0.41976100  0.70032477  1
  Se  Se239  1  0.91828672  0.74498911  0.18561493  1
  Se  Se240  1  0.91374613  0.74851632  0.69642771  1
  Se  Se241  1  0.08605884  0.24057530  0.18962631  1
  Se  Se242  1  0.08009380  0.25632582  0.69678626  1
  Se  Se243  1  0.08269226  0.57940760  0.19176517  1
  Se  Se244  1  0.08772253  0.58793641  0.69426927  1
  Se  Se245  1  0.08569607  0.90140192  0.17849698  1
  Se  Se246  1  0.08825837  0.91610114  0.69206384  1
  Se  Se247  1  0.41312108  0.25265377  0.20024052  1
  Se  Se248  1  0.41243548  0.25326006  0.69472164  1
  Se  Se249  1  0.41663346  0.58108423  0.20125534  1
  Se  Se250  1  0.41985447  0.57632356  0.68631876  1
  Se  Se251  1  0.40826036  0.91999959  0.20136790  1
  Se  Se252  1  0.43370789  0.89897034  0.69362871  1
  Se  Se253  1  0.74483689  0.26506205  0.20158400  1
  Se  Se254  1  0.74804884  0.24597518  0.69581675  1
  Se  Se255  1  0.74784784  0.58541415  0.19105347  1
  Se  Se256  1  0.74722494  0.58273686  0.70396708  1
  Se  Se257  1  0.75442885  0.91778468  0.18691482  1
  Se  Se258  1  0.76073490  0.90432602  0.69882120  1
