# generated using pymatgen
data_In86Cu29Se144
_symmetry_space_group_name_H-M   'P 1'
_cell_length_a   17.57648678
_cell_length_b   17.57963367
_cell_length_c   23.43335137
_cell_angle_alpha   89.98715470
_cell_angle_beta   89.98923509
_cell_angle_gamma   90.01187723
_symmetry_Int_Tables_number   1
_chemical_formula_structural   In86Cu29Se144
_chemical_formula_sum   'In86 Cu29 Se144'
_cell_volume   7240.62856951
_cell_formula_units_Z   1
loop_
 _symmetry_equiv_pos_site_id
 _symmetry_equiv_pos_as_xyz
  1  'x, y, z'
loop_
 _atom_site_type_symbol
 _atom_site_label
 _atom_site_symmetry_multiplicity
 _atom_site_fract_x
 _atom_site_fract_y
 _atom_site_fract_z
 _atom_site_occupancy
  In  In0  1  -0.00471209  0.18117936  0.12379916  1
  In  In1  1  -0.00611547  0.18269969  0.61914895  1
  In  In2  1  -0.00226986  0.48549540  0.12273965  1
  In  In3  1  0.00448285  0.49691871  0.63034892  1
  In  In4  1  -0.00068161  0.83204497  0.11735974  1
  In  In5  1  -0.00624094  0.82359796  0.62610515  1
  In  In6  1  0.33526038  0.14687335  0.13093002  1
  In  In7  1  0.34990673  0.17132728  0.62123742  1
  In  In8  1  0.33789818  0.51339533  0.12560682  1
  In  In9  1  0.33426951  0.49611290  0.62470258  1
  In  In10  1  0.33501594  0.82950096  0.12831454  1
  In  In11  1  0.33584199  0.82263027  0.60926542  1
  In  In12  1  0.66612853  0.16696863  0.12521988  1
  In  In13  1  0.68038854  0.17997704  0.60750319  1
  In  In14  1  0.66336314  0.50077263  0.13841976  1
  In  In15  1  0.65594358  0.49783059  0.61845331  1
  In  In16  1  0.66278160  0.83570816  0.12942425  1
  In  In17  1  0.67229906  0.83324414  0.61235030  1
  In  In18  1  0.16347746  -0.01775927  0.37343071  1
  In  In19  1  0.15881116  -0.00729526  0.87723791  1
  In  In20  1  0.16187441  0.33982021  0.37275355  1
  In  In21  1  0.17220067  0.34026892  0.87027051  1
  In  In22  1  0.18106154  0.67628209  0.37332511  1
  In  In23  1  0.14963973  0.67962884  0.88183359  1
  In  In24  1  0.50291063  0.00092300  0.36860926  1
  In  In25  1  0.50205709  -0.00169837  0.88255821  1
  In  In26  1  0.52779809  0.31698609  0.39842225  1
  In  In27  1  0.49230822  0.32969692  0.86951852  1
  In  In28  1  0.49754006  0.66804337  0.38085650  1
  In  In29  1  0.50994371  0.67566088  0.87754040  1
  In  In30  1  0.82125036  0.01268161  0.38285351  1
  In  In31  1  0.83178064  0.00319108  0.88467188  1
  In  In32  1  0.82391091  0.32628753  0.37479981  1
  In  In33  1  0.82469214  0.32608430  0.86457775  1
  In  In34  1  0.83082464  0.68606521  0.37892453  1
  In  In35  1  0.84217855  0.66879246  0.87324533  1
  In  In36  1  -0.02367510  0.16997646  0.38369781  1
  In  In37  1  -0.01491683  0.16127073  0.87342053  1
  In  In38  1  0.00507064  0.49167423  0.37314986  1
  In  In39  1  0.00719370  0.51061194  0.86718447  1
  In  In40  1  -0.00294138  0.85128960  0.39642399  1
  In  In41  1  0.00142141  0.82963385  0.87777114  1
  In  In42  1  0.35148878  0.16890028  0.37171519  1
  In  In43  1  0.33362030  0.17534086  0.87499454  1
  In  In44  1  0.34271641  0.51981045  0.37138899  1
  In  In45  1  0.32966398  0.48644189  0.87554093  1
  In  In46  1  0.33294304  0.82973611  0.37588039  1
  In  In47  1  0.33132308  0.83504784  0.87956878  1
  In  In48  1  0.67197545  0.16612221  0.37502747  1
  In  In49  1  0.66042333  0.17095541  0.88059754  1
  In  In50  1  0.65742640  0.49441855  0.37563904  1
  In  In51  1  0.68095060  0.49737264  0.87092927  1
  In  In52  1  0.65777926  0.83008316  0.37311454  1
  In  In53  1  0.66373791  0.83479377  0.88250511  1
  In  In54  1  0.17999144  -0.00748345  0.12833457  1
  In  In55  1  0.16814297  -0.00530417  0.62341341  1
  In  In56  1  0.15189575  0.32799213  0.12214409  1
  In  In57  1  0.16296516  0.34376110  0.63210032  1
  In  In58  1  0.17633694  0.67550647  0.11852320  1
  In  In59  1  0.16335667  0.66303766  0.62794935  1
  In  In60  1  0.50092504  -0.00167864  0.12876610  1
  In  In61  1  0.50213208  0.00273160  0.61483339  1
  In  In62  1  0.51686013  0.33495034  0.12686989  1
  In  In63  1  0.50561895  0.33112233  0.62317446  1
  In  In64  1  0.48804238  0.67235242  0.13911787  1
  In  In65  1  0.51258120  0.66982219  0.59684151  1
  In  In66  1  0.82393104  -0.00843111  0.12059341  1
  In  In67  1  0.83111090  -0.01153019  0.61545105  1
  In  In68  1  0.83412407  0.32874933  0.12923718  1
  In  In69  1  0.84078192  0.32474912  0.62410528  1
  In  In70  1  0.81824530  0.66824243  0.13012613  1
  In  In71  1  0.84396994  0.68966281  0.62423971  1
  In  In72  1  0.16745156  0.15979938  0.00152570  1
  In  In73  1  0.67149355  0.66223715  0.74366073  1
  In  In74  1  0.66961669  0.00031238  0.73654164  1
  In  In75  1  0.83699596  0.50338291  -0.00240076  1
  In  In76  1  0.16730123  0.16361780  0.50115028  1
  In  In77  1  0.00125858  0.66466003  0.25408617  1
  In  In78  1  0.49854992  0.50240816  -0.00024697  1
  In  In79  1  0.33154626  0.00131228  0.75354672  1
  In  In80  1  -0.00283235  -0.00220971  0.74995270  1
  In  In81  1  0.82783655  0.49889325  0.49502189  1
  In  In82  1  0.17211149  0.50681209  0.50645377  1
  In  In83  1  0.33295622  0.65934337  0.74354657  1
  In  In84  1  0.33917999  0.34273929  0.25362000  1
  In  In85  1  -0.00343501  0.00589786  0.25717464  1
  Cu  Cu86  1  0.33807563  0.34063159  0.50066941  1
  Cu  Cu87  1  0.82803141  0.49559069  0.25320680  1
  Cu  Cu88  1  0.16361351  0.16498915  0.24694595  1
  Cu  Cu89  1  0.16859533  0.17714823  0.74728123  1
  Cu  Cu90  1  0.00150512  0.66767223  -0.00407587  1
  Cu  Cu91  1  0.16619538  0.50036288  0.75155378  1
  Cu  Cu92  1  0.50107089  0.49910547  0.25896514  1
  Cu  Cu93  1  -0.00333334  -0.00127663  -0.00046294  1
  Cu  Cu94  1  0.67125313  0.32996940  -0.00043141  1
  Cu  Cu95  1  0.50827484  0.16784851  0.25227066  1
  Cu  Cu96  1  0.83005767  0.16826360  0.74667756  1
  Cu  Cu97  1  0.34032068  -0.00933597  0.00680540  1
  Cu  Cu98  1  0.50609681  0.17892930  0.74735902  1
  Cu  Cu99  1  0.49986070  0.49436029  0.74366509  1
  Cu  Cu100  1  0.00204396  0.66816044  0.50208769  1
  Cu  Cu101  1  0.82777367  0.17091450  0.25115766  1
  Cu  Cu102  1  0.82437249  0.83843498  0.25180594  1
  Cu  Cu103  1  0.50082428  0.83514333  0.74276271  1
  Cu  Cu104  1  0.49909306  0.83319497  0.25334423  1
  Cu  Cu105  1  0.66116067  0.67797342  0.00783208  1
  Cu  Cu106  1  0.65941483  -0.00432636  0.49218475  1
  Cu  Cu107  1  0.66509026  0.00206981  0.00634104  1
  Cu  Cu108  1  0.33474795  0.32738743  -0.00407493  1
  Cu  Cu109  1  0.32939704  0.66958809  0.00325160  1
  Cu  Cu110  1  0.33723921  -0.00132011  0.49392644  1
  Cu  Cu111  1  -0.00116966  0.33405390  -0.00308092  1
  Cu  Cu112  1  0.83415093  0.49284225  0.74414143  1
  Cu  Cu113  1  0.16970802  0.82856485  0.25141690  1
  Cu  Cu114  1  0.16358582  0.49869288  0.24989930  1
  Se  Se115  1  0.07661479  0.07393958  0.06537920  1
  Se  Se116  1  0.07441052  0.07843788  0.56166301  1
  Se  Se117  1  0.08410325  0.41588657  0.04879667  1
  Se  Se118  1  0.07590957  0.40959481  0.55308265  1
  Se  Se119  1  0.08499682  0.75044094  0.05163788  1
  Se  Se120  1  0.08612073  0.74718742  0.55804132  1
  Se  Se121  1  0.41945012  0.08146215  0.05567959  1
  Se  Se122  1  0.41693202  0.08499549  0.54763524  1
  Se  Se123  1  0.41127146  0.40807489  0.06057695  1
  Se  Se124  1  0.42098213  0.41910317  0.55687058  1
  Se  Se125  1  0.41751586  0.74519613  0.05841075  1
  Se  Se126  1  0.43094906  0.76293210  0.53932648  1
  Se  Se127  1  0.75136052  0.08726924  0.05527846  1
  Se  Se128  1  0.74584056  0.07207996  0.55001264  1
  Se  Se129  1  0.74254622  0.41924824  0.05957330  1
  Se  Se130  1  0.74595181  0.40607599  0.55762750  1
  Se  Se131  1  0.75105524  0.75662108  0.05834068  1
  Se  Se132  1  0.74446143  0.73436055  0.55223395  1
  Se  Se133  1  0.25843669  0.24937651  0.06274612  1
  Se  Se134  1  0.25318033  0.26232875  0.56012578  1
  Se  Se135  1  0.24932075  0.57924953  0.05244840  1
  Se  Se136  1  0.26633612  0.59950757  0.55834650  1
  Se  Se137  1  0.25078482  0.90906102  0.05517811  1
  Se  Se138  1  0.25522993  0.92218655  0.55306773  1
  Se  Se139  1  0.58433609  0.25015760  0.05272705  1
  Se  Se140  1  0.56906347  0.23773061  0.55128097  1
  Se  Se141  1  0.58560526  0.58905262  0.06453638  1
  Se  Se142  1  0.58444212  0.56862698  0.53865072  1
  Se  Se143  1  0.58159747  0.91615610  0.05757273  1
  Se  Se144  1  0.58057133  0.91311815  0.54962734  1
  Se  Se145  1  0.91242599  0.25561048  0.05123547  1
  Se  Se146  1  0.90110284  0.23849375  0.54564085  1
  Se  Se147  1  0.92233163  0.59345314  0.06286942  1
  Se  Se148  1  0.92241075  0.58383340  0.55928162  1
  Se  Se149  1  0.91318141  0.91472501  0.05281822  1
  Se  Se150  1  0.92095015  0.90820333  0.55413278  1
  Se  Se151  1  0.07822093  0.25619978  0.44237647  1
  Se  Se152  1  0.07968930  0.24914191  0.93884940  1
  Se  Se153  1  0.07990017  0.59047614  0.43922849  1
  Se  Se154  1  0.08353880  0.57856713  0.94746369  1
  Se  Se155  1  0.09701295  0.91895747  0.45797317  1
  Se  Se156  1  0.08134789  0.91420870  0.94916028  1
  Se  Se157  1  0.41559162  0.24924215  0.45035294  1
  Se  Se158  1  0.42224694  0.24673103  0.94613003  1
  Se  Se159  1  0.41272009  0.58757815  0.45111238  1
  Se  Se160  1  0.40806462  0.59254104  0.93772209  1
  Se  Se161  1  0.41984637  0.91896736  0.43827676  1
  Se  Se162  1  0.42062014  0.91029711  0.94711799  1
  Se  Se163  1  0.76436454  0.23250749  0.44727867  1
  Se  Se164  1  0.75489275  0.24992315  0.94411243  1
  Se  Se165  1  0.74267931  0.59349989  0.43809399  1
  Se  Se166  1  0.73910217  0.59713298  0.94493516  1
  Se  Se167  1  0.74595304  0.91245841  0.44139687  1
  Se  Se168  1  0.74623476  0.91884661  0.94926189  1
  Se  Se169  1  0.25680843  0.08146331  0.43472843  1
  Se  Se170  1  0.26129780  0.06994176  0.94165090  1
  Se  Se171  1  0.25675894  0.41640587  0.43918648  1
  Se  Se172  1  0.24785505  0.41269757  0.94955118  1
  Se  Se173  1  0.24173245  0.76173106  0.44806559  1
  Se  Se174  1  0.24792639  0.75090483  0.94572872  1
  Se  Se175  1  0.58109477  0.08485603  0.44024118  1
  Se  Se176  1  0.58288801  0.08382103  0.94886778  1
  Se  Se177  1  0.58356522  0.42756046  0.45782798  1
  Se  Se178  1  0.59202373  0.41428673  0.94010966  1
  Se  Se179  1  0.57448071  0.75884987  0.44789441  1
  Se  Se180  1  0.57688148  0.75822265  0.95298668  1
  Se  Se181  1  0.93793338  0.05422416  0.44260900  1
  Se  Se182  1  0.91395446  0.08792722  0.95248505  1
  Se  Se183  1  0.92333088  0.40738837  0.44177614  1
  Se  Se184  1  0.91986641  0.41242657  0.93395554  1
  Se  Se185  1  0.91586527  0.75347463  0.45332297  1
  Se  Se186  1  0.91364818  0.75098027  0.94765525  1
  Se  Se187  1  0.24610602  0.24573201  0.30757481  1
  Se  Se188  1  0.25488129  0.25406335  0.80319372  1
  Se  Se189  1  0.24606171  0.58292860  0.30184716  1
  Se  Se190  1  0.24421014  0.58177820  0.81349971  1
  Se  Se191  1  0.25288584  0.91423771  0.30244055  1
  Se  Se192  1  0.23908655  0.90629735  0.80549526  1
  Se  Se193  1  0.58589030  0.25289519  0.30875173  1
  Se  Se194  1  0.58937109  0.25531135  0.80612709  1
  Se  Se195  1  0.58219333  0.58704476  0.30947439  1
  Se  Se196  1  0.57634750  0.57540954  0.80741645  1
  Se  Se197  1  0.58671192  0.91851950  0.30014364  1
  Se  Se198  1  0.57935826  0.91417387  0.80424394  1
  Se  Se199  1  0.91456285  0.25129179  0.30387304  1
  Se  Se200  1  0.91798641  0.24794505  0.79965009  1
  Se  Se201  1  0.90701900  0.57718815  0.31386292  1
  Se  Se202  1  0.90943969  0.57933170  0.80160271  1
  Se  Se203  1  0.91024932  0.91022505  0.31352199  1
  Se  Se204  1  0.90547499  0.91405639  0.81213491  1
  Se  Se205  1  0.08784584  0.09393076  0.31698528  1
  Se  Se206  1  0.09263487  0.09273623  0.80715725  1
  Se  Se207  1  0.07975321  0.41252288  0.29785952  1
  Se  Se208  1  0.08142792  0.41468031  0.80267869  1
  Se  Se209  1  0.07987604  0.76278539  0.31473046  1
  Se  Se210  1  0.07281430  0.74609229  0.80374177  1
  Se  Se211  1  0.41859252  0.08345211  0.29757024  1
  Se  Se212  1  0.42978591  0.09214310  0.80692283  1
  Se  Se213  1  0.43073863  0.41330185  0.32306630  1
  Se  Se214  1  0.41499467  0.41837377  0.80141961  1
  Se  Se215  1  0.41663204  0.74800482  0.30643707  1
  Se  Se216  1  0.42255863  0.75517177  0.80486286  1
  Se  Se217  1  0.74840542  0.08146109  0.30160222  1
  Se  Se218  1  0.75196334  0.08615845  0.80717792  1
  Se  Se219  1  0.74479322  0.41421363  0.30802919  1
  Se  Se220  1  0.74613825  0.41305567  0.79562111  1
  Se  Se221  1  0.74548293  0.74948458  0.30277278  1
  Se  Se222  1  0.75006418  0.75571647  0.80893915  1
  Se  Se223  1  0.24899563  0.07622464  0.20357554  1
  Se  Se224  1  0.24715884  0.09451038  0.68875689  1
  Se  Se225  1  0.24348143  0.41980186  0.18708444  1
  Se  Se226  1  0.25361610  0.42062040  0.69864660  1
  Se  Se227  1  0.25169287  0.74450946  0.19801869  1
  Se  Se228  1  0.24910555  0.75981946  0.69039109  1
  Se  Se229  1  0.58592066  0.08309709  0.19526669  1
  Se  Se230  1  0.57872207  0.09621744  0.68470625  1
  Se  Se231  1  0.58300323  0.41412694  0.20536333  1
  Se  Se232  1  0.58818279  0.41382955  0.69414730  1
  Se  Se233  1  0.58424040  0.74940139  0.19968211  1
  Se  Se234  1  0.57752738  0.75090580  0.68463178  1
  Se  Se235  1  0.90938248  0.09029775  0.19019112  1
  Se  Se236  1  0.90776136  0.08521622  0.68693871  1
  Se  Se237  1  0.91320556  0.41734805  0.19702945  1
  Se  Se238  1  0.92030824  0.40945292  0.69392339  1
  Se  Se239  1  0.91138798  0.75878024  0.19507006  1
  Se  Se240  1  0.92821679  0.74167181  0.70455521  1
  Se  Se241  1  0.07916489  0.25073713  0.19897449  1
  Se  Se242  1  0.07948987  0.25236657  0.69341041  1
  Se  Se243  1  0.08611134  0.57919595  0.18683148  1
  Se  Se244  1  0.08275853  0.58336507  0.69887051  1
  Se  Se245  1  0.08338378  0.91005131  0.19508283  1
  Se  Se246  1  0.09026358  0.90897133  0.69401553  1
  Se  Se247  1  0.42242780  0.24609144  0.19172555  1
  Se  Se248  1  0.41565148  0.25694924  0.69610906  1
  Se  Se249  1  0.41353430  0.57904938  0.20607147  1
  Se  Se250  1  0.43478116  0.58547642  0.68256692  1
  Se  Se251  1  0.41592004  0.91481103  0.19638236  1
  Se  Se252  1  0.41799990  0.91506585  0.68644848  1
  Se  Se253  1  0.74388929  0.25382460  0.19646532  1
  Se  Se254  1  0.74669012  0.24936930  0.69187208  1
  Se  Se255  1  0.74743220  0.58548146  0.20403753  1
  Se  Se256  1  0.76078314  0.57557745  0.68114745  1
  Se  Se257  1  0.74446705  0.92277917  0.19793314  1
  Se  Se258  1  0.76050627  0.89856637  0.69192205  1
