# generated using pymatgen
data_In86Cu29Se144
_symmetry_space_group_name_H-M   'P 1'
_cell_length_a   17.58157738
_cell_length_b   17.58126933
_cell_length_c   23.43850990
_cell_angle_alpha   90.00783305
_cell_angle_beta   90.01565316
_cell_angle_gamma   90.02237994
_symmetry_Int_Tables_number   1
_chemical_formula_structural   In86Cu29Se144
_chemical_formula_sum   'In86 Cu29 Se144'
_cell_volume   7244.99363167
_cell_formula_units_Z   1
loop_
 _symmetry_equiv_pos_site_id
 _symmetry_equiv_pos_as_xyz
  1  'x, y, z'
loop_
 _atom_site_type_symbol
 _atom_site_label
 _atom_site_symmetry_multiplicity
 _atom_site_fract_x
 _atom_site_fract_y
 _atom_site_fract_z
 _atom_site_occupancy
  In  In0  1  -0.00322335  0.17056727  0.12750264  1
  In  In1  1  -0.01249787  0.17047477  0.62328767  1
  In  In2  1  -0.01314194  0.49035314  0.12141349  1
  In  In3  1  -0.00297167  0.50841480  0.62465378  1
  In  In4  1  0.01065935  0.85432764  0.13112606  1
  In  In5  1  0.00309943  0.85022814  0.62336977  1
  In  In6  1  0.33344622  0.16553888  0.12645918  1
  In  In7  1  0.34790702  0.16161584  0.62243135  1
  In  In8  1  0.33598130  0.48343169  0.11650660  1
  In  In9  1  0.37179118  0.48107875  0.65248750  1
  In  In10  1  0.34236927  0.84485628  0.12912911  1
  In  In11  1  0.34570600  0.81838593  0.63150131  1
  In  In12  1  0.65730232  0.15549142  0.11700283  1
  In  In13  1  0.66931123  0.17030892  0.62224874  1
  In  In14  1  0.65584671  0.49632187  0.11668352  1
  In  In15  1  0.65820004  0.49398667  0.63424074  1
  In  In16  1  0.65512922  0.84562910  0.13116692  1
  In  In17  1  0.65459651  0.82033970  0.61858191  1
  In  In18  1  0.17503098  0.00791184  0.34816430  1
  In  In19  1  0.16818531  0.01863021  0.88010416  1
  In  In20  1  0.16110624  0.31966267  0.35393833  1
  In  In21  1  0.17163187  0.31605376  0.87827905  1
  In  In22  1  0.17306049  0.66800715  0.37579842  1
  In  In23  1  0.18046368  0.65447874  0.87556851  1
  In  In24  1  0.50983634  -0.00393688  0.37132433  1
  In  In25  1  0.49812024  0.00223791  0.88661070  1
  In  In26  1  0.49510584  0.33541798  0.37820451  1
  In  In27  1  0.50390437  0.33300128  0.87057242  1
  In  In28  1  0.49945242  0.65948326  0.38517305  1
  In  In29  1  0.49643522  0.66394996  0.87328952  1
  In  In30  1  0.83095717  0.00165557  0.37448244  1
  In  In31  1  0.84029428  -0.00257479  0.87668249  1
  In  In32  1  0.83218293  0.32603268  0.38243104  1
  In  In33  1  0.82186355  0.34391799  0.88263466  1
  In  In34  1  0.82626846  0.67293971  0.38645907  1
  In  In35  1  0.81627934  0.66300100  0.86815573  1
  In  In36  1  -0.00737940  0.15776676  0.36449034  1
  In  In37  1  0.00180475  0.16349562  0.88286046  1
  In  In38  1  -0.00266230  0.48797126  0.37393252  1
  In  In39  1  -0.00287313  0.48541180  0.87862881  1
  In  In40  1  -0.00642403  0.83739685  0.37623815  1
  In  In41  1  -0.01684116  0.83989393  0.87119048  1
  In  In42  1  0.34095857  0.17452250  0.36464119  1
  In  In43  1  0.33217506  0.17724099  0.88769987  1
  In  In44  1  0.34317653  0.49410504  0.37670693  1
  In  In45  1  0.36058945  0.50763423  0.86325989  1
  In  In46  1  0.34024792  0.84367530  0.37155207  1
  In  In47  1  0.34904609  0.82354336  0.88320159  1
  In  In48  1  0.67569728  0.15849506  0.37958334  1
  In  In49  1  0.65432705  0.17833094  0.88620704  1
  In  In50  1  0.66238079  0.50121737  0.38647466  1
  In  In51  1  0.66286451  0.50419921  0.86860891  1
  In  In52  1  0.65278905  0.84709443  0.38414635  1
  In  In53  1  0.65358595  0.81460022  0.86378894  1
  In  In54  1  0.14929022  0.02697275  0.15091739  1
  In  In55  1  0.16376807  -0.01329597  0.62326408  1
  In  In56  1  0.18923510  0.30126449  0.14574864  1
  In  In57  1  0.17875079  0.34653793  0.62507860  1
  In  In58  1  0.17359479  0.66830735  0.12178638  1
  In  In59  1  0.18263285  0.67215914  0.62492606  1
  In  In60  1  0.49360980  -0.00236863  0.12839493  1
  In  In61  1  0.49929846  0.00070622  0.61426352  1
  In  In62  1  0.47577103  0.31199155  0.09830402  1
  In  In63  1  0.49913179  0.32934361  0.62795862  1
  In  In64  1  0.49038524  0.67013254  0.10787449  1
  In  In65  1  0.50738977  0.66683937  0.63308468  1
  In  In66  1  0.82486725  0.00922158  0.13237522  1
  In  In67  1  0.83987198  0.01014860  0.61834808  1
  In  In68  1  0.83563976  0.33700443  0.12171639  1
  In  In69  1  0.82144330  0.32119596  0.62015640  1
  In  In70  1  0.83343738  0.66114138  0.12178790  1
  In  In71  1  0.81534856  0.65288203  0.61780756  1
  In  In72  1  0.33413065  0.67113473  0.24596638  1
  In  In73  1  0.66333252  0.67025427  0.24996480  1
  In  In74  1  0.00263899  0.32625229  0.75214097  1
  In  In75  1  0.66254808  0.32993719  0.24605699  1
  In  In76  1  0.00442095  0.67259268  0.74544460  1
  In  In77  1  0.33117363  -0.00236586  0.75101986  1
  In  In78  1  -0.00037510  0.67351583  0.25094374  1
  In  In79  1  0.17031601  0.84385325  0.00610839  1
  In  In80  1  0.17178739  0.50240223  0.49519712  1
  In  In81  1  0.17085782  0.48534287  -0.00087510  1
  In  In82  1  0.66791395  -0.00212633  0.75392115  1
  In  In83  1  0.16673779  0.16596617  0.48258477  1
  In  In84  1  0.16997315  0.83613389  0.49126331  1
  In  In85  1  0.82184939  0.83077381  -0.00205663  1
  Cu  Cu86  1  0.83486388  0.16542738  0.25247524  1
  Cu  Cu87  1  0.33014161  0.00689343  0.00724593  1
  Cu  Cu88  1  -0.00909721  0.67047378  0.50337098  1
  Cu  Cu89  1  0.18419731  0.49663455  0.75239360  1
  Cu  Cu90  1  0.16571253  0.16418329  0.75595936  1
  Cu  Cu91  1  0.33607657  0.33063256  0.49920535  1
  Cu  Cu92  1  0.82921932  0.16739460  0.74722502  1
  Cu  Cu93  1  0.49520823  0.49088240  0.24783826  1
  Cu  Cu94  1  0.34408542  -0.00401401  0.49441488  1
  Cu  Cu95  1  0.00028031  0.32722836  0.00422979  1
  Cu  Cu96  1  0.83421350  0.49454309  0.25197735  1
  Cu  Cu97  1  0.66087114  0.66199287  -0.00871676  1
  Cu  Cu98  1  -0.00339618  0.66129225  0.00369209  1
  Cu  Cu99  1  0.83511288  0.84328151  0.25413300  1
  Cu  Cu100  1  0.67080457  0.00184866  0.49912247  1
  Cu  Cu101  1  0.16431839  0.49603942  0.24348023  1
  Cu  Cu102  1  0.49972835  0.16907692  0.75254906  1
  Cu  Cu103  1  0.66861298  0.66336090  0.50729295  1
  Cu  Cu104  1  -0.01327178  0.33750245  0.49770697  1
  Cu  Cu105  1  0.34777461  0.65823173  0.51001529  1
  Cu  Cu106  1  -0.00011629  0.00679612  0.00598186  1
  Cu  Cu107  1  0.65687598  0.33568691  0.50387390  1
  Cu  Cu108  1  -0.00090417  0.00611775  0.49501015  1
  Cu  Cu109  1  0.50046738  0.16257011  0.24366123  1
  Cu  Cu110  1  0.67450775  0.33901080  -0.00466558  1
  Cu  Cu111  1  0.83708195  0.84068929  0.74126473  1
  Cu  Cu112  1  0.66173064  -0.00415723  0.00447511  1
  Cu  Cu113  1  0.83273314  0.49458880  0.75004265  1
  Cu  Cu114  1  0.16175576  0.84326035  0.75458393  1
  Se  Se115  1  0.08453233  0.08531651  0.06154786  1
  Se  Se116  1  0.08366617  0.08196400  0.55587332  1
  Se  Se117  1  0.08340728  0.40332627  0.06519446  1
  Se  Se118  1  0.07552755  0.41158120  0.55558362  1
  Se  Se119  1  0.07103102  0.74831905  0.06022406  1
  Se  Se120  1  0.08171665  0.74656020  0.55828438  1
  Se  Se121  1  0.42142379  0.08638503  0.05713000  1
  Se  Se122  1  0.42104511  0.08705912  0.54534314  1
  Se  Se123  1  0.42800577  0.42866530  0.04226283  1
  Se  Se124  1  0.41244651  0.41323456  0.55905191  1
  Se  Se125  1  0.39684463  0.75489534  0.05314012  1
  Se  Se126  1  0.42834194  0.74975082  0.55682938  1
  Se  Se127  1  0.75148259  0.07838625  0.05161140  1
  Se  Se128  1  0.75142679  0.08917212  0.55239143  1
  Se  Se129  1  0.75214132  0.42132806  0.05439412  1
  Se  Se130  1  0.74172863  0.41610646  0.56031478  1
  Se  Se131  1  0.73326087  0.74138950  0.06062476  1
  Se  Se132  1  0.75377194  0.75463697  0.55189208  1
  Se  Se133  1  0.26301685  0.25959426  0.05709795  1
  Se  Se134  1  0.25076443  0.24987371  0.55529880  1
  Se  Se135  1  0.25665789  0.58581639  0.05400837  1
  Se  Se136  1  0.26230425  0.57655644  0.56393497  1
  Se  Se137  1  0.24598924  0.93666733  0.07140912  1
  Se  Se138  1  0.26439748  0.91746087  0.55721105  1
  Se  Se139  1  0.59388107  0.25365267  0.04946993  1
  Se  Se140  1  0.57779164  0.24714482  0.55632248  1
  Se  Se141  1  0.57772294  0.58173032  0.04813384  1
  Se  Se142  1  0.58413115  0.58158436  0.56142000  1
  Se  Se143  1  0.57519321  0.91408271  0.05495672  1
  Se  Se144  1  0.58645118  0.91703914  0.55104321  1
  Se  Se145  1  0.91168219  0.24575806  0.05470889  1
  Se  Se146  1  0.91049852  0.24750550  0.54981034  1
  Se  Se147  1  0.91025914  0.57734361  0.05175380  1
  Se  Se148  1  0.91280278  0.57989426  0.55294645  1
  Se  Se149  1  0.91607056  0.91984259  0.05805974  1
  Se  Se150  1  0.91936298  0.92126585  0.54989692  1
  Se  Se151  1  0.07016980  0.26197252  0.43571433  1
  Se  Se152  1  0.08563757  0.24627464  0.95079403  1
  Se  Se153  1  0.07286449  0.59375060  0.44082349  1
  Se  Se154  1  0.07749954  0.58550684  0.94236252  1
  Se  Se155  1  0.08650001  0.93464734  0.43374112  1
  Se  Se156  1  0.07186130  0.92289953  0.94191131  1
  Se  Se157  1  0.41609799  0.24519014  0.44489281  1
  Se  Se158  1  0.43500965  0.24591454  0.94453589  1
  Se  Se159  1  0.42020481  0.57063648  0.45153051  1
  Se  Se160  1  0.41822236  0.58313391  0.94608677  1
  Se  Se161  1  0.42795209  0.91148172  0.44371853  1
  Se  Se162  1  0.40961185  0.92174620  0.95231450  1
  Se  Se163  1  0.74185083  0.25281398  0.45009555  1
  Se  Se164  1  0.75643747  0.24546660  0.94925811  1
  Se  Se165  1  0.75151713  0.58029632  0.45181893  1
  Se  Se166  1  0.75039808  0.58013348  0.94345389  1
  Se  Se167  1  0.75373874  0.91688791  0.44611026  1
  Se  Se168  1  0.73371783  0.91819403  0.93482453  1
  Se  Se169  1  0.26065455  0.07037914  0.43269340  1
  Se  Se170  1  0.24743822  0.09164027  0.95405441  1
  Se  Se171  1  0.24836517  0.40042404  0.43547183  1
  Se  Se172  1  0.26159038  0.41544255  0.92846232  1
  Se  Se173  1  0.26889879  0.73762356  0.44546273  1
  Se  Se174  1  0.25148754  0.74398868  0.94877450  1
  Se  Se175  1  0.58412096  0.08169417  0.44496228  1
  Se  Se176  1  0.58124863  0.08532929  0.95315724  1
  Se  Se177  1  0.57438342  0.41825256  0.44938170  1
  Se  Se178  1  0.58877040  0.41675064  0.93924604  1
  Se  Se179  1  0.58889098  0.74265995  0.44713560  1
  Se  Se180  1  0.57792869  0.75186871  0.94513108  1
  Se  Se181  1  0.91417036  0.08856182  0.44269533  1
  Se  Se182  1  0.91317756  0.08231455  0.94892744  1
  Se  Se183  1  0.90633131  0.42471204  0.44631992  1
  Se  Se184  1  0.91702803  0.41344105  0.95236237  1
  Se  Se185  1  0.91545018  0.75828189  0.44869521  1
  Se  Se186  1  0.91779689  0.73981701  0.94038841  1
  Se  Se187  1  0.25805827  0.24962290  0.29292529  1
  Se  Se188  1  0.25515018  0.24365513  0.80504048  1
  Se  Se189  1  0.24488362  0.57338831  0.30620538  1
  Se  Se190  1  0.26300455  0.58696295  0.80124921  1
  Se  Se191  1  0.25257316  0.90458965  0.29789539  1
  Se  Se192  1  0.24479097  0.91392123  0.81935005  1
  Se  Se193  1  0.57821138  0.24040233  0.30987600  1
  Se  Se194  1  0.59017926  0.24839690  0.80210308  1
  Se  Se195  1  0.57500759  0.57125569  0.30674805  1
  Se  Se196  1  0.60382198  0.61134776  0.80705389  1
  Se  Se197  1  0.58773014  0.91170040  0.30029609  1
  Se  Se198  1  0.56726967  0.91484814  0.80839683  1
  Se  Se199  1  0.91100543  0.25546130  0.30574123  1
  Se  Se200  1  0.90748655  0.24566490  0.81302832  1
  Se  Se201  1  0.90689103  0.58372844  0.31055652  1
  Se  Se202  1  0.91852046  0.57547934  0.80595813  1
  Se  Se203  1  0.92125434  0.92414014  0.30537266  1
  Se  Se204  1  0.91554649  0.92459319  0.79708086  1
  Se  Se205  1  0.09779170  0.11020433  0.29657525  1
  Se  Se206  1  0.07854289  0.08433992  0.80682505  1
  Se  Se207  1  0.07834916  0.41849999  0.29862532  1
  Se  Se208  1  0.09565773  0.42025985  0.80835615  1
  Se  Se209  1  0.09344340  0.75916186  0.31061019  1
  Se  Se210  1  0.08979934  0.75600209  0.81611640  1
  Se  Se211  1  0.42334296  0.08088154  0.30455476  1
  Se  Se212  1  0.41906588  0.08856883  0.81204119  1
  Se  Se213  1  0.41304957  0.40946147  0.30275475  1
  Se  Se214  1  0.44025967  0.42316738  0.79414964  1
  Se  Se215  1  0.42866369  0.74833666  0.31050689  1
  Se  Se216  1  0.41371701  0.74918717  0.80412878  1
  Se  Se217  1  0.74838485  0.08164479  0.30249881  1
  Se  Se218  1  0.75256675  0.09160085  0.81408374  1
  Se  Se219  1  0.74707160  0.42118031  0.31115472  1
  Se  Se220  1  0.74796300  0.41397947  0.80342141  1
  Se  Se221  1  0.75579954  0.75764761  0.30936905  1
  Se  Se222  1  0.75708510  0.75756047  0.79664960  1
  Se  Se223  1  0.26635203  0.08013443  0.20188673  1
  Se  Se224  1  0.24181267  0.08777509  0.68792625  1
  Se  Se225  1  0.25531135  0.41759552  0.19465364  1
  Se  Se226  1  0.26227113  0.40564359  0.70327949  1
  Se  Se227  1  0.23830780  0.76184512  0.19291305  1
  Se  Se228  1  0.24335094  0.76106868  0.69971059  1
  Se  Se229  1  0.58655024  0.07861129  0.19454858  1
  Se  Se230  1  0.57612816  0.08564763  0.69169552  1
  Se  Se231  1  0.56964914  0.41168151  0.18369419  1
  Se  Se232  1  0.55762069  0.42843681  0.70061397  1
  Se  Se233  1  0.56716724  0.74881066  0.18889897  1
  Se  Se234  1  0.59274665  0.74911738  0.70096107  1
  Se  Se235  1  0.91834981  0.08220210  0.19807707  1
  Se  Se236  1  0.91648508  0.08620984  0.69658797  1
  Se  Se237  1  0.91534469  0.41175071  0.19849540  1
  Se  Se238  1  0.91464609  0.41667083  0.69000544  1
  Se  Se239  1  0.90717303  0.76139086  0.18849345  1
  Se  Se240  1  0.91219624  0.75379190  0.68171914  1
  Se  Se241  1  0.06760548  0.26179120  0.19731529  1
  Se  Se242  1  0.09505174  0.24356569  0.68646147  1
  Se  Se243  1  0.08483481  0.58012480  0.18726658  1
  Se  Se244  1  0.09976603  0.57461489  0.69268731  1
  Se  Se245  1  0.08233622  0.92117121  0.21023609  1
  Se  Se246  1  0.07908698  0.92455446  0.70080809  1
  Se  Se247  1  0.42346985  0.25272228  0.19128597  1
  Se  Se248  1  0.41261134  0.24645205  0.69737347  1
  Se  Se249  1  0.42151888  0.57681225  0.18697701  1
  Se  Se250  1  0.39526928  0.61260125  0.69441203  1
  Se  Se251  1  0.42153796  0.91546846  0.20384261  1
  Se  Se252  1  0.42843578  0.91503995  0.69289481  1
  Se  Se253  1  0.75350219  0.23985400  0.18781436  1
  Se  Se254  1  0.74327897  0.25135803  0.69833047  1
  Se  Se255  1  0.75204184  0.57260891  0.19246127  1
  Se  Se256  1  0.74862853  0.57982325  0.69873477  1
  Se  Se257  1  0.74732552  0.91764281  0.19778706  1
  Se  Se258  1  0.75231549  0.91774615  0.68317679  1
