# generated using pymatgen
data_In86Cu29Se144
_symmetry_space_group_name_H-M   'P 1'
_cell_length_a   17.58118376
_cell_length_b   17.57520898
_cell_length_c   23.44166124
_cell_angle_alpha   90.02795440
_cell_angle_beta   90.00209945
_cell_angle_gamma   89.99386741
_symmetry_Int_Tables_number   1
_chemical_formula_structural   In86Cu29Se144
_chemical_formula_sum   'In86 Cu29 Se144'
_cell_volume   7243.30782311
_cell_formula_units_Z   1
loop_
 _symmetry_equiv_pos_site_id
 _symmetry_equiv_pos_as_xyz
  1  'x, y, z'
loop_
 _atom_site_type_symbol
 _atom_site_label
 _atom_site_symmetry_multiplicity
 _atom_site_fract_x
 _atom_site_fract_y
 _atom_site_fract_z
 _atom_site_occupancy
  In  In0  1  -0.00410379  0.16437092  0.12267840  1
  In  In1  1  -0.01154587  0.17234356  0.62829939  1
  In  In2  1  -0.01303875  0.49980209  0.12743604  1
  In  In3  1  0.00483587  0.50380537  0.62134015  1
  In  In4  1  0.01747538  0.85310469  0.10839101  1
  In  In5  1  0.00105343  0.82737619  0.63522889  1
  In  In6  1  0.31373899  0.15808752  0.10822900  1
  In  In7  1  0.34950742  0.14077193  0.64146584  1
  In  In8  1  0.33456028  0.49366495  0.12505383  1
  In  In9  1  0.31470865  0.49902217  0.62618681  1
  In  In10  1  0.34650243  0.84832515  0.10786547  1
  In  In11  1  0.32637971  0.85655340  0.62877187  1
  In  In12  1  0.67622988  0.17589741  0.11660639  1
  In  In13  1  0.67363942  0.16446547  0.62873154  1
  In  In14  1  0.65604647  0.49022322  0.12569702  1
  In  In15  1  0.67820049  0.48613040  0.62777109  1
  In  In16  1  0.67046520  0.84101499  0.10800479  1
  In  In17  1  0.67111043  0.84332808  0.64893190  1
  In  In18  1  0.16388562  -0.00155803  0.37382702  1
  In  In19  1  0.16526164  0.00640771  0.86444001  1
  In  In20  1  0.16973909  0.34243352  0.38056621  1
  In  In21  1  0.17902044  0.30144574  0.88251626  1
  In  In22  1  0.15516274  0.66917583  0.38305527  1
  In  In23  1  0.16701547  0.68627589  0.87648372  1
  In  In24  1  0.50007526  0.01412003  0.37623297  1
  In  In25  1  0.49940602  0.00210206  0.87481933  1
  In  In26  1  0.49664999  0.31398559  0.37607747  1
  In  In27  1  0.48701897  0.31944606  0.86676403  1
  In  In28  1  0.50374497  0.68112644  0.37724263  1
  In  In29  1  0.51043919  0.66803366  0.87407722  1
  In  In30  1  0.84230704  -0.00438141  0.37715019  1
  In  In31  1  0.83406814  0.00105185  0.87214558  1
  In  In32  1  0.83379512  0.32634990  0.37590081  1
  In  In33  1  0.82683829  0.33358969  0.87690455  1
  In  In34  1  0.81950940  0.66536327  0.38022230  1
  In  In35  1  0.85553303  0.69554037  0.84448390  1
  In  In36  1  -0.00590934  0.15688723  0.37238707  1
  In  In37  1  0.02220667  0.14886343  0.89020788  1
  In  In38  1  0.00592561  0.49178162  0.38143329  1
  In  In39  1  -0.01319905  0.49607402  0.87147982  1
  In  In40  1  0.00196295  0.85110288  0.37185745  1
  In  In41  1  0.00186790  0.84471062  0.86732392  1
  In  In42  1  0.34489667  0.16444570  0.37817107  1
  In  In43  1  0.33379621  0.17134879  0.87146733  1
  In  In44  1  0.32458690  0.48920704  0.38305917  1
  In  In45  1  0.34446338  0.49687624  0.87105072  1
  In  In46  1  0.31832973  0.83213558  0.37453700  1
  In  In47  1  0.31388421  0.84744816  0.88995347  1
  In  In48  1  0.65015753  0.16975633  0.38325500  1
  In  In49  1  0.66559537  0.16640031  0.87459805  1
  In  In50  1  0.68808280  0.49390370  0.38618377  1
  In  In51  1  0.67014272  0.50216968  0.86441638  1
  In  In52  1  0.67290442  0.83615872  0.37652372  1
  In  In53  1  0.67018898  0.83485439  0.86997018  1
  In  In54  1  0.16592600  0.00492054  0.12294872  1
  In  In55  1  0.18040095  -0.00448766  0.63284360  1
  In  In56  1  0.15792760  0.31461409  0.11607005  1
  In  In57  1  0.16396059  0.34025092  0.62891557  1
  In  In58  1  0.15871343  0.67385654  0.11470766  1
  In  In59  1  0.15253338  0.66341089  0.62471664  1
  In  In60  1  0.49320898  -0.00262148  0.11483185  1
  In  In61  1  0.50153114  0.00880200  0.63079873  1
  In  In62  1  0.50470989  0.33460642  0.12372942  1
  In  In63  1  0.51389080  0.31524018  0.63166240  1
  In  In64  1  0.49676826  0.67384070  0.11574997  1
  In  In65  1  0.50254410  0.67965791  0.63127473  1
  In  In66  1  0.84516828  0.01379188  0.11161538  1
  In  In67  1  0.82520009  0.00928229  0.64237563  1
  In  In68  1  0.84764789  0.31502804  0.13835362  1
  In  In69  1  0.82496632  0.31944022  0.61805912  1
  In  In70  1  0.82392623  0.66896031  0.11936480  1
  In  In71  1  0.84339806  0.66478690  0.63559205  1
  In  In72  1  -0.00383662  0.66623264  0.24962338  1
  In  In73  1  0.49710983  0.84377991  0.51778337  1
  In  In74  1  0.83611668  0.83755290  0.50295996  1
  In  In75  1  0.17082265  0.16513069  0.50606164  1
  In  In76  1  0.66370291  0.65863580  0.24896669  1
  In  In77  1  0.32916264  0.32004214  0.24850519  1
  In  In78  1  0.66874946  0.00431151  0.24877449  1
  In  In79  1  0.17062194  0.50275435  0.00141023  1
  In  In80  1  0.33800055  0.66947671  0.75453760  1
  In  In81  1  0.49444151  0.49864926  0.50184292  1
  In  In82  1  0.50236645  0.50162054  -0.00106254  1
  In  In83  1  0.32888445  0.66410116  0.23703434  1
  In  In84  1  0.82940040  0.50018355  -0.00576907  1
  In  In85  1  -0.00125379  0.33040631  0.75630125  1
  Cu  Cu86  1  0.83218193  0.49801805  0.74400400  1
  Cu  Cu87  1  0.33164693  0.33130484  0.50566348  1
  Cu  Cu88  1  0.16857177  0.83703232  0.75070940  1
  Cu  Cu89  1  0.50992814  0.48755523  0.25326669  1
  Cu  Cu90  1  0.00408602  -0.00328455  0.50187104  1
  Cu  Cu91  1  0.16077404  0.49878236  0.75250151  1
  Cu  Cu92  1  0.31814516  0.66595469  0.50217604  1
  Cu  Cu93  1  -0.00192999  0.67899582  -0.01225236  1
  Cu  Cu94  1  0.66924726  0.32693043  0.50418874  1
  Cu  Cu95  1  0.84175194  0.83934055  0.24023519  1
  Cu  Cu96  1  0.49322877  0.84092267  0.23926974  1
  Cu  Cu97  1  0.50650290  0.16558076  0.75305870  1
  Cu  Cu98  1  0.15931168  0.16012368  0.24630922  1
  Cu  Cu99  1  0.17035662  0.84795704  0.24449369  1
  Cu  Cu100  1  0.32780628  0.00798871  -0.00638111  1
  Cu  Cu101  1  0.83442274  0.48436492  0.25556166  1
  Cu  Cu102  1  0.67633443  0.67571668  -0.01218695  1
  Cu  Cu103  1  0.83289735  0.16960459  0.75495086  1
  Cu  Cu104  1  0.66359452  0.00058734  -0.00875688  1
  Cu  Cu105  1  0.16516538  0.49566559  0.25506060  1
  Cu  Cu106  1  0.49900067  0.84058675  0.75579483  1
  Cu  Cu107  1  0.49820365  0.16293414  0.24831038  1
  Cu  Cu108  1  0.83374357  0.16756402  0.24948768  1
  Cu  Cu109  1  0.67268736  0.66695073  0.51135671  1
  Cu  Cu110  1  0.00155440  -0.00176894  -0.00647882  1
  Cu  Cu111  1  -0.00229644  0.67027332  0.50631402  1
  Cu  Cu112  1  0.50022899  0.48989151  0.74693450  1
  Cu  Cu113  1  0.66305949  0.33277812  -0.00346185  1
  Cu  Cu114  1  -0.00371628  0.33671802  0.50148543  1
  Se  Se115  1  0.07933258  0.08221443  0.05281825  1
  Se  Se116  1  0.07730292  0.07826427  0.56543818  1
  Se  Se117  1  0.07352020  0.41821846  0.05961298  1
  Se  Se118  1  0.08363910  0.41460539  0.55462330  1
  Se  Se119  1  0.08665661  0.75662208  0.04128321  1
  Se  Se120  1  0.08052565  0.75651131  0.55677105  1
  Se  Se121  1  0.41587606  0.08713272  0.04766194  1
  Se  Se122  1  0.41133477  0.07211001  0.55715365  1
  Se  Se123  1  0.40897614  0.40736916  0.05286115  1
  Se  Se124  1  0.41365079  0.41046564  0.56772911  1
  Se  Se125  1  0.41962162  0.75214226  0.04565844  1
  Se  Se126  1  0.40042187  0.74290055  0.56335790  1
  Se  Se127  1  0.74519118  0.08226459  0.04857420  1
  Se  Se128  1  0.76676398  0.08953618  0.56222871  1
  Se  Se129  1  0.74483061  0.41015576  0.05835102  1
  Se  Se130  1  0.75421054  0.41514056  0.54954255  1
  Se  Se131  1  0.75870105  0.75549632  0.04558882  1
  Se  Se132  1  0.74750172  0.75364780  0.56993900  1
  Se  Se133  1  0.25193521  0.26018676  0.04380083  1
  Se  Se134  1  0.25862134  0.25059956  0.56997391  1
  Se  Se135  1  0.26509365  0.59325496  0.05910457  1
  Se  Se136  1  0.23789984  0.58127340  0.55573359  1
  Se  Se137  1  0.24628620  0.92439303  0.05000343  1
  Se  Se138  1  0.24749776  0.92179475  0.55147350  1
  Se  Se139  1  0.58050816  0.25094602  0.05216070  1
  Se  Se140  1  0.58705599  0.24083785  0.55459048  1
  Se  Se141  1  0.60119491  0.59487150  0.05326634  1
  Se  Se142  1  0.58434932  0.58728521  0.56421336  1
  Se  Se143  1  0.57830157  0.91777495  0.04530997  1
  Se  Se144  1  0.60167608  0.92500103  0.56770256  1
  Se  Se145  1  0.90534783  0.24269737  0.05584683  1
  Se  Se146  1  0.91646384  0.24611593  0.54948714  1
  Se  Se147  1  0.92527774  0.59562587  0.05150237  1
  Se  Se148  1  0.91432078  0.58628484  0.55751740  1
  Se  Se149  1  0.91344504  0.91533804  0.04560126  1
  Se  Se150  1  0.92199721  0.92397860  0.56644876  1
  Se  Se151  1  0.07836437  0.25252515  0.44241304  1
  Se  Se152  1  0.08030397  0.25446597  0.95408022  1
  Se  Se153  1  0.07803367  0.58311842  0.45056134  1
  Se  Se154  1  0.07640345  0.58724047  0.93607891  1
  Se  Se155  1  0.08688404  0.91568483  0.44773245  1
  Se  Se156  1  0.08809910  0.92021433  0.93764832  1
  Se  Se157  1  0.41511221  0.24841107  0.45322035  1
  Se  Se158  1  0.41630435  0.24892439  0.94486791  1
  Se  Se159  1  0.40637864  0.59589721  0.44114830  1
  Se  Se160  1  0.41086862  0.59327423  0.94127476  1
  Se  Se161  1  0.41789311  0.91253603  0.43747983  1
  Se  Se162  1  0.41597436  0.92201365  0.94652689  1
  Se  Se163  1  0.74817378  0.24541359  0.44450158  1
  Se  Se164  1  0.74857159  0.24920786  0.94604242  1
  Se  Se165  1  0.75613885  0.58357249  0.45832976  1
  Se  Se166  1  0.75392989  0.59317134  0.92908835  1
  Se  Se167  1  0.74118390  0.92926197  0.44684257  1
  Se  Se168  1  0.74982467  0.91756908  0.94160932  1
  Se  Se169  1  0.25762351  0.07665996  0.44310725  1
  Se  Se170  1  0.24558616  0.08749149  0.93740713  1
  Se  Se171  1  0.24568426  0.41705819  0.45835703  1
  Se  Se172  1  0.25601136  0.41457726  0.93810378  1
  Se  Se173  1  0.24101877  0.75314140  0.44758568  1
  Se  Se174  1  0.25151031  0.74470454  0.95346120  1
  Se  Se175  1  0.58258545  0.07751113  0.45166260  1
  Se  Se176  1  0.57954609  0.08811167  0.94442853  1
  Se  Se177  1  0.58557842  0.40713274  0.44263037  1
  Se  Se178  1  0.58737142  0.41399198  0.93462453  1
  Se  Se179  1  0.59420511  0.74995133  0.45152926  1
  Se  Se180  1  0.58342680  0.75690387  0.94333660  1
  Se  Se181  1  0.91988282  0.07847921  0.44865786  1
  Se  Se182  1  0.91248206  0.08301411  0.94563568  1
  Se  Se183  1  0.91233193  0.41546567  0.44471911  1
  Se  Se184  1  0.92609461  0.40412812  0.94729556  1
  Se  Se185  1  0.92461895  0.74718031  0.43678271  1
  Se  Se186  1  0.91354232  0.75848456  0.93395928  1
  Se  Se187  1  0.23780517  0.23713763  0.31340561  1
  Se  Se188  1  0.25419203  0.25179549  0.79771338  1
  Se  Se189  1  0.24590370  0.57997715  0.31084928  1
  Se  Se190  1  0.24207762  0.58052262  0.81203306  1
  Se  Se191  1  0.25403022  0.92357579  0.30267164  1
  Se  Se192  1  0.25549414  0.91699974  0.80326435  1
  Se  Se193  1  0.58159551  0.24527723  0.30203100  1
  Se  Se194  1  0.58869250  0.25391800  0.80330775  1
  Se  Se195  1  0.57972971  0.57403020  0.31786476  1
  Se  Se196  1  0.57560943  0.57898689  0.80063747  1
  Se  Se197  1  0.57735715  0.90857800  0.30606574  1
  Se  Se198  1  0.58634238  0.92356652  0.80501230  1
  Se  Se199  1  0.91853060  0.24783868  0.30536585  1
  Se  Se200  1  0.91554087  0.23965036  0.81895479  1
  Se  Se201  1  0.90581523  0.57806841  0.31219192  1
  Se  Se202  1  0.92000586  0.57858534  0.79523614  1
  Se  Se203  1  0.91830058  0.92294865  0.29838967  1
  Se  Se204  1  0.90256928  0.91079380  0.79945906  1
  Se  Se205  1  0.08038447  0.07782548  0.30401600  1
  Se  Se206  1  0.07242878  0.08441061  0.80023824  1
  Se  Se207  1  0.08257313  0.41152470  0.30712775  1
  Se  Se208  1  0.09223089  0.41592120  0.81820715  1
  Se  Se209  1  0.09250540  0.76015055  0.30328751  1
  Se  Se210  1  0.08348510  0.75234148  0.80105091  1
  Se  Se211  1  0.41351396  0.08167123  0.30144212  1
  Se  Se212  1  0.41887243  0.08522066  0.80478730  1
  Se  Se213  1  0.41716970  0.41751728  0.31014711  1
  Se  Se214  1  0.41261299  0.41116877  0.79794512  1
  Se  Se215  1  0.41847981  0.75416664  0.30030307  1
  Se  Se216  1  0.41720488  0.76318629  0.81719374  1
  Se  Se217  1  0.75459712  0.08978519  0.31410598  1
  Se  Se218  1  0.74749318  0.08412234  0.80456397  1
  Se  Se219  1  0.74487067  0.40846671  0.30757430  1
  Se  Se220  1  0.75428037  0.41390149  0.80097997  1
  Se  Se221  1  0.75956574  0.75874583  0.30025582  1
  Se  Se222  1  0.72357175  0.72535565  0.80539001  1
  Se  Se223  1  0.25020683  0.08713303  0.19250327  1
  Se  Se224  1  0.24648470  0.08398110  0.70639436  1
  Se  Se225  1  0.24033780  0.41517234  0.19097011  1
  Se  Se226  1  0.24695026  0.41667113  0.70216276  1
  Se  Se227  1  0.24313502  0.76286546  0.18184820  1
  Se  Se228  1  0.24709837  0.75239624  0.68999257  1
  Se  Se229  1  0.57944083  0.08782937  0.18473510  1
  Se  Se230  1  0.59105752  0.08254076  0.69984180  1
  Se  Se231  1  0.58957818  0.40336900  0.20008116  1
  Se  Se232  1  0.58846474  0.41130271  0.69518651  1
  Se  Se233  1  0.58238429  0.75817651  0.18714585  1
  Se  Se234  1  0.58109305  0.75213073  0.70581507  1
  Se  Se235  1  0.91314521  0.08237739  0.19480744  1
  Se  Se236  1  0.92088054  0.08850119  0.70383529  1
  Se  Se237  1  0.92406269  0.41108248  0.20145601  1
  Se  Se238  1  0.91295830  0.41372610  0.68592920  1
  Se  Se239  1  0.91678317  0.75411849  0.18130224  1
  Se  Se240  1  0.91892255  0.74832338  0.70549249  1
  Se  Se241  1  0.07952926  0.24682629  0.19437906  1
  Se  Se242  1  0.08915400  0.24335482  0.69482814  1
  Se  Se243  1  0.09280901  0.57770578  0.19102308  1
  Se  Se244  1  0.07875937  0.58126402  0.69891983  1
  Se  Se245  1  0.07908224  0.92367104  0.19286800  1
  Se  Se246  1  0.08503130  0.91865619  0.69669522  1
  Se  Se247  1  0.41730894  0.23725376  0.18381251  1
  Se  Se248  1  0.41897527  0.24704106  0.69906640  1
  Se  Se249  1  0.43462650  0.57029823  0.19069845  1
  Se  Se250  1  0.42055359  0.57553805  0.68875925  1
  Se  Se251  1  0.40981530  0.92502054  0.19001463  1
  Se  Se252  1  0.41878075  0.92158933  0.69876949  1
  Se  Se253  1  0.74363062  0.24797495  0.19977993  1
  Se  Se254  1  0.75120195  0.25274206  0.69937267  1
  Se  Se255  1  0.75965604  0.56706815  0.19116517  1
  Se  Se256  1  0.74626924  0.58302344  0.69398665  1
  Se  Se257  1  0.75566820  0.91643843  0.18367332  1
  Se  Se258  1  0.77620588  0.90464271  0.71241816  1
