# generated using pymatgen
data_In86Cu29Se144
_symmetry_space_group_name_H-M   'P 1'
_cell_length_a   17.58174630
_cell_length_b   17.58254465
_cell_length_c   23.43751625
_cell_angle_alpha   89.98890682
_cell_angle_beta   90.00903614
_cell_angle_gamma   90.01244304
_symmetry_Int_Tables_number   1
_chemical_formula_structural   In86Cu29Se144
_chemical_formula_sum   'In86 Cu29 Se144'
_cell_volume   7245.28211181
_cell_formula_units_Z   1
loop_
 _symmetry_equiv_pos_site_id
 _symmetry_equiv_pos_as_xyz
  1  'x, y, z'
loop_
 _atom_site_type_symbol
 _atom_site_label
 _atom_site_symmetry_multiplicity
 _atom_site_fract_x
 _atom_site_fract_y
 _atom_site_fract_z
 _atom_site_occupancy
  In  In0  1  0.00423649  0.16357694  0.12680959  1
  In  In1  1  0.01218500  0.16368470  0.62986070  1
  In  In2  1  0.00718598  0.48419068  0.13009653  1
  In  In3  1  -0.00938981  0.49994506  0.62002330  1
  In  In4  1  0.01524287  0.83475170  0.12844187  1
  In  In5  1  -0.00961263  0.82067808  0.59688701  1
  In  In6  1  0.34222792  0.17506760  0.11772947  1
  In  In7  1  0.33926790  0.15719757  0.63709878  1
  In  In8  1  0.32039154  0.51026571  0.12747673  1
  In  In9  1  0.34385463  0.48816888  0.63303343  1
  In  In10  1  0.33554963  0.83137804  0.12136656  1
  In  In11  1  0.33740016  0.83008637  0.63101433  1
  In  In12  1  0.65428331  0.15812476  0.11744558  1
  In  In13  1  0.68025144  0.16312170  0.64260605  1
  In  In14  1  0.66756623  0.50190018  0.12135498  1
  In  In15  1  0.66788055  0.50365366  0.62828457  1
  In  In16  1  0.66801775  0.84781407  0.12418650  1
  In  In17  1  0.66157067  0.82600083  0.63213288  1
  In  In18  1  0.16016142  -0.00189611  0.37543110  1
  In  In19  1  0.17727655  -0.01157664  0.88602753  1
  In  In20  1  0.16525129  0.33528398  0.36493803  1
  In  In21  1  0.16341792  0.33064149  0.88096782  1
  In  In22  1  0.17976547  0.67070267  0.37491725  1
  In  In23  1  0.17365722  0.65855706  0.87886955  1
  In  In24  1  0.50252556  -0.02505455  0.37115024  1
  In  In25  1  0.49786396  -0.00090886  0.86974223  1
  In  In26  1  0.49914298  0.34491121  0.37708064  1
  In  In27  1  0.48599465  0.32175160  0.86975806  1
  In  In28  1  0.48675695  0.67477998  0.38339996  1
  In  In29  1  0.49718975  0.67429719  0.86045678  1
  In  In30  1  0.82717959  -0.00235787  0.37408987  1
  In  In31  1  0.81974994  0.00410628  0.86401198  1
  In  In32  1  0.84349133  0.33038249  0.37826324  1
  In  In33  1  0.83931416  0.32759041  0.86023264  1
  In  In34  1  0.83350501  0.67201008  0.39487188  1
  In  In35  1  0.82322865  0.67825049  0.86262560  1
  In  In36  1  0.00088002  0.16963422  0.36592610  1
  In  In37  1  0.00397251  0.17944604  0.87696753  1
  In  In38  1  0.00038410  0.49141230  0.37834258  1
  In  In39  1  0.01308383  0.49496901  0.88005669  1
  In  In40  1  -0.01429306  0.85073532  0.39583035  1
  In  In41  1  0.00155883  0.84200724  0.87467231  1
  In  In42  1  0.32221979  0.16932409  0.37158985  1
  In  In43  1  0.32859637  0.16431117  0.88074824  1
  In  In44  1  0.33475593  0.50831237  0.37026660  1
  In  In45  1  0.32414302  0.49076969  0.86669846  1
  In  In46  1  0.34815370  0.81898025  0.38203621  1
  In  In47  1  0.33437254  0.83504916  0.86767921  1
  In  In48  1  0.67612519  0.15986115  0.37541364  1
  In  In49  1  0.65195624  0.15052651  0.85827680  1
  In  In50  1  0.65998523  0.50760984  0.38916284  1
  In  In51  1  0.66580328  0.50031360  0.86447910  1
  In  In52  1  0.65967211  0.83778647  0.38337368  1
  In  In53  1  0.63830632  0.81755640  0.83947605  1
  In  In54  1  0.16388190  -0.00861947  0.12002873  1
  In  In55  1  0.17228826  -0.00851071  0.62663132  1
  In  In56  1  0.16452006  0.33703705  0.11839349  1
  In  In57  1  0.17219966  0.32562215  0.63707965  1
  In  In58  1  0.18014183  0.67832502  0.11588566  1
  In  In59  1  0.16742049  0.68036984  0.62457954  1
  In  In60  1  0.50160923  -0.00057172  0.12088643  1
  In  In61  1  0.51921719  -0.03054134  0.65135474  1
  In  In62  1  0.49992986  0.31709039  0.12041374  1
  In  In63  1  0.49626753  0.33685756  0.63352490  1
  In  In64  1  0.48307289  0.66321929  0.12276952  1
  In  In65  1  0.50352787  0.66883247  0.63092122  1
  In  In66  1  0.83478382  0.00561003  0.13323205  1
  In  In67  1  0.82881052  -0.02310071  0.62844775  1
  In  In68  1  0.83960103  0.34105025  0.12621411  1
  In  In69  1  0.82506890  0.34195462  0.63753266  1
  In  In70  1  0.82139127  0.67049881  0.12735530  1
  In  In71  1  0.83156698  0.66103067  0.61939286  1
  In  In72  1  0.50241761  0.16263505  0.51310675  1
  In  In73  1  -0.00162734  -0.00140921  0.74730969  1
  In  In74  1  0.49476520  0.50085075  -0.00411039  1
  In  In75  1  0.16547811  0.50764344  0.49664769  1
  In  In76  1  0.83590231  0.16565599  0.50355209  1
  In  In77  1  -0.00197120  0.66563618  0.73769513  1
  In  In78  1  0.83285371  0.84165037  -0.01191664  1
  In  In79  1  0.16809509  0.15981487  0.50456745  1
  In  In80  1  0.33623006  0.00157414  0.24516593  1
  In  In81  1  0.83620571  0.16738434  -0.00504948  1
  In  In82  1  0.66653172  0.32976317  0.24553866  1
  In  In83  1  0.65803705  0.67667823  0.26305559  1
  In  In84  1  0.84100605  0.50130574  -0.00375361  1
  In  In85  1  0.00782216  0.66933369  0.25945166  1
  Cu  Cu86  1  0.66781962  0.34415668  0.51074664  1
  Cu  Cu87  1  0.65826692  0.67932513  -0.01493535  1
  Cu  Cu88  1  0.16513837  0.83352606  0.74913850  1
  Cu  Cu89  1  0.00398674  0.66437432  0.00341235  1
  Cu  Cu90  1  0.66544573  0.66534008  0.50900085  1
  Cu  Cu91  1  0.33747196  0.00051075  -0.00095816  1
  Cu  Cu92  1  0.32819435  0.33539854  -0.00416560  1
  Cu  Cu93  1  0.50167298  0.16074861  0.24415003  1
  Cu  Cu94  1  0.83745492  0.16453205  0.25120562  1
  Cu  Cu95  1  0.65914814  -0.00875688  0.50406139  1
  Cu  Cu96  1  0.50581024  0.50340299  0.74836315  1
  Cu  Cu97  1  0.84212015  0.84091410  0.25471591  1
  Cu  Cu98  1  0.17030021  0.49626146  0.75618057  1
  Cu  Cu99  1  0.16549600  0.16813872  0.75861600  1
  Cu  Cu100  1  0.33975888  0.33611518  0.50252094  1
  Cu  Cu101  1  0.33824833  -0.01612699  0.50637679  1
  Cu  Cu102  1  0.66618769  0.32386964  -0.00903852  1
  Cu  Cu103  1  0.16974788  0.83762737  0.24915366  1
  Cu  Cu104  1  0.16579185  0.17494617  0.24498988  1
  Cu  Cu105  1  0.48634369  0.49699318  0.25000380  1
  Cu  Cu106  1  0.00318517  -0.00001100  0.00121394  1
  Cu  Cu107  1  0.48746204  0.17635816  0.75635104  1
  Cu  Cu108  1  0.83685937  0.50313127  0.74557148  1
  Cu  Cu109  1  0.33464240  0.67645653  -0.00535851  1
  Cu  Cu110  1  0.83180963  0.49651943  0.25684012  1
  Cu  Cu111  1  0.16571727  0.49801566  0.24754768  1
  Cu  Cu112  1  0.34067807  0.66299986  0.50455557  1
  Cu  Cu113  1  0.65608305  -0.00411477  -0.00826773  1
  Cu  Cu114  1  -0.00088125  0.33482474  0.50149267  1
  Se  Se115  1  0.08431335  0.08307419  0.05528320  1
  Se  Se116  1  0.07432743  0.06784843  0.55680615  1
  Se  Se117  1  0.08406664  0.42380543  0.05062859  1
  Se  Se118  1  0.08867762  0.40687270  0.56045940  1
  Se  Se119  1  0.08461353  0.75472368  0.05231365  1
  Se  Se120  1  0.09326072  0.74515739  0.54480962  1
  Se  Se121  1  0.42097825  0.08394652  0.05294352  1
  Se  Se122  1  0.41369256  0.06725050  0.56664309  1
  Se  Se123  1  0.40989834  0.41215440  0.06023671  1
  Se  Se124  1  0.42349924  0.41659445  0.55586755  1
  Se  Se125  1  0.42107042  0.75348936  0.04935537  1
  Se  Se126  1  0.41946580  0.74897824  0.55956063  1
  Se  Se127  1  0.74538478  0.06953023  0.05132990  1
  Se  Se128  1  0.73955677  0.07764901  0.55963929  1
  Se  Se129  1  0.74179326  0.40695658  0.05147330  1
  Se  Se130  1  0.75787878  0.42319635  0.56008886  1
  Se  Se131  1  0.74355601  0.74870866  0.05009836  1
  Se  Se132  1  0.74685567  0.75317142  0.55900950  1
  Se  Se133  1  0.24949660  0.25032050  0.05267112  1
  Se  Se134  1  0.26149288  0.25219118  0.56054897  1
  Se  Se135  1  0.25400286  0.58774600  0.04725471  1
  Se  Se136  1  0.25906860  0.58289870  0.56389471  1
  Se  Se137  1  0.25428535  0.91593734  0.05324303  1
  Se  Se138  1  0.24950243  0.90574428  0.55775215  1
  Se  Se139  1  0.58196812  0.24462825  0.04602145  1
  Se  Se140  1  0.59574912  0.25482151  0.56786325  1
  Se  Se141  1  0.59077776  0.59400290  0.05180826  1
  Se  Se142  1  0.58018669  0.58188514  0.55980845  1
  Se  Se143  1  0.57983990  0.91250820  0.05036575  1
  Se  Se144  1  0.57805693  0.91002562  0.56044699  1
  Se  Se145  1  0.92249392  0.25751715  0.05675583  1
  Se  Se146  1  0.92365813  0.25603540  0.56532329  1
  Se  Se147  1  0.92052983  0.59188808  0.06563854  1
  Se  Se148  1  0.92815722  0.59396212  0.55212136  1
  Se  Se149  1  0.91977529  0.92066565  0.06032991  1
  Se  Se150  1  0.91452368  0.92816047  0.54838838  1
  Se  Se151  1  0.08133006  0.25551846  0.44215125  1
  Se  Se152  1  0.08575974  0.24604099  0.95151492  1
  Se  Se153  1  0.07496958  0.59603107  0.43738307  1
  Se  Se154  1  0.08682976  0.58245271  0.94948605  1
  Se  Se155  1  0.09817914  0.91208174  0.44972109  1
  Se  Se156  1  0.08308882  0.91019371  0.95054999  1
  Se  Se157  1  0.41394119  0.24798564  0.44357327  1
  Se  Se158  1  0.41462346  0.24902054  0.94904322  1
  Se  Se159  1  0.41663971  0.57551492  0.44782078  1
  Se  Se160  1  0.40995177  0.59084252  0.93348887  1
  Se  Se161  1  0.42544920  0.90842767  0.45051374  1
  Se  Se162  1  0.41492587  0.91779399  0.93988697  1
  Se  Se163  1  0.74063691  0.26002207  0.44682575  1
  Se  Se164  1  0.74530893  0.24794826  0.92969660  1
  Se  Se165  1  0.75047826  0.58104222  0.45612496  1
  Se  Se166  1  0.74478664  0.59183590  0.93824802  1
  Se  Se167  1  0.74978879  0.91831136  0.44816555  1
  Se  Se168  1  0.73304217  0.91715407  0.92885547  1
  Se  Se169  1  0.26469997  0.07091266  0.44621640  1
  Se  Se170  1  0.24703660  0.08368339  0.95266000  1
  Se  Se171  1  0.25404247  0.40870605  0.44116171  1
  Se  Se172  1  0.24709444  0.42239351  0.94554727  1
  Se  Se173  1  0.25677540  0.74611657  0.45086103  1
  Se  Se174  1  0.24924817  0.75626662  0.93998741  1
  Se  Se175  1  0.58522952  0.07657793  0.44230421  1
  Se  Se176  1  0.57804446  0.08622668  0.94089097  1
  Se  Se177  1  0.57957753  0.41604358  0.45257365  1
  Se  Se178  1  0.58680922  0.41162394  0.93669719  1
  Se  Se179  1  0.58561423  0.74375487  0.44776104  1
  Se  Se180  1  0.57714379  0.75964174  0.93090779  1
  Se  Se181  1  0.92457864  0.08289100  0.43884801  1
  Se  Se182  1  0.92114313  0.06980245  0.93647142  1
  Se  Se183  1  0.91406992  0.41795659  0.45046354  1
  Se  Se184  1  0.92163496  0.40255383  0.94037063  1
  Se  Se185  1  0.91466180  0.75598884  0.46011021  1
  Se  Se186  1  0.92270936  0.73764838  0.93895261  1
  Se  Se187  1  0.25264704  0.25434777  0.29868036  1
  Se  Se188  1  0.24930263  0.25138706  0.81135343  1
  Se  Se189  1  0.24680384  0.58391536  0.30085490  1
  Se  Se190  1  0.25223383  0.58806639  0.80122177  1
  Se  Se191  1  0.25435558  0.91227116  0.31173136  1
  Se  Se192  1  0.24471913  0.92028849  0.80240953  1
  Se  Se193  1  0.57759764  0.24198101  0.31013001  1
  Se  Se194  1  0.58231448  0.25698460  0.80106732  1
  Se  Se195  1  0.57081680  0.57273562  0.31097067  1
  Se  Se196  1  0.58877886  0.58966585  0.79902190  1
  Se  Se197  1  0.59476289  0.91189640  0.30154595  1
  Se  Se198  1  0.59437664  0.94386318  0.79477643  1
  Se  Se199  1  0.91634901  0.25531211  0.30074930  1
  Se  Se200  1  0.92351081  0.24028526  0.79822047  1
  Se  Se201  1  0.90673160  0.58331688  0.31461344  1
  Se  Se202  1  0.91737091  0.57868695  0.81074688  1
  Se  Se203  1  0.92426850  0.92164250  0.31001540  1
  Se  Se204  1  0.90447960  0.90507447  0.80383344  1
  Se  Se205  1  0.09237415  0.08861246  0.30386420  1
  Se  Se206  1  0.08819108  0.07907538  0.81480665  1
  Se  Se207  1  0.07818345  0.41970141  0.30115534  1
  Se  Se208  1  0.08425341  0.41316441  0.80608496  1
  Se  Se209  1  0.08959233  0.76690589  0.31654397  1
  Se  Se210  1  0.08396599  0.75049384  0.80763359  1
  Se  Se211  1  0.42534566  0.08736343  0.31288469  1
  Se  Se212  1  0.40918827  0.08655100  0.80725313  1
  Se  Se213  1  0.40906630  0.41095562  0.30522948  1
  Se  Se214  1  0.42149196  0.42065728  0.80271687  1
  Se  Se215  1  0.42057696  0.74823276  0.30289726  1
  Se  Se216  1  0.41900299  0.76208133  0.79455440  1
  Se  Se217  1  0.75015338  0.08184888  0.30108892  1
  Se  Se218  1  0.76139539  0.10006713  0.79500015  1
  Se  Se219  1  0.74632830  0.41901239  0.31437910  1
  Se  Se220  1  0.75452870  0.41947184  0.80052864  1
  Se  Se221  1  0.76435569  0.75705482  0.31441377  1
  Se  Se222  1  0.75242176  0.75532426  0.78837598  1
  Se  Se223  1  0.24586714  0.09193471  0.18594362  1
  Se  Se224  1  0.23840053  0.08447254  0.69719685  1
  Se  Se225  1  0.24789597  0.41520933  0.19236829  1
  Se  Se226  1  0.25391465  0.41272548  0.70158980  1
  Se  Se227  1  0.25108771  0.75476893  0.19429379  1
  Se  Se228  1  0.25034796  0.74720407  0.70026165  1
  Se  Se229  1  0.58606245  0.07736174  0.19395982  1
  Se  Se230  1  0.56168764  0.10211396  0.68898635  1
  Se  Se231  1  0.57293465  0.42469580  0.18863739  1
  Se  Se232  1  0.58841781  0.41662126  0.69716658  1
  Se  Se233  1  0.58204841  0.74872364  0.18385820  1
  Se  Se234  1  0.56969899  0.75898849  0.70411386  1
  Se  Se235  1  0.92404370  0.08230894  0.19910820  1
  Se  Se236  1  0.90771018  0.08497209  0.68568572  1
  Se  Se237  1  0.91546298  0.41708612  0.20176210  1
  Se  Se238  1  0.92486680  0.41916784  0.69768560  1
  Se  Se239  1  0.91281953  0.75424881  0.19338213  1
  Se  Se240  1  0.91132452  0.76264428  0.68404339  1
  Se  Se241  1  0.08167680  0.25670122  0.19130246  1
  Se  Se242  1  0.08159351  0.24901421  0.70347568  1
  Se  Se243  1  0.09051390  0.58676693  0.18856554  1
  Se  Se244  1  0.09547034  0.57156285  0.68704019  1
  Se  Se245  1  0.08469783  0.92293713  0.19993069  1
  Se  Se246  1  0.07809301  0.90108059  0.68601680  1
  Se  Se247  1  0.41848375  0.24891920  0.19694614  1
  Se  Se248  1  0.40526670  0.25911288  0.69989804  1
  Se  Se249  1  0.40859769  0.58586678  0.19763211  1
  Se  Se250  1  0.41682343  0.58345821  0.69754096  1
  Se  Se251  1  0.42751970  0.90731094  0.19320084  1
  Se  Se252  1  0.39386749  0.93283528  0.69923466  1
  Se  Se253  1  0.75632542  0.23817958  0.18467149  1
  Se  Se254  1  0.75499176  0.25312843  0.70723412  1
  Se  Se255  1  0.74924941  0.57713235  0.19978456  1
  Se  Se256  1  0.75259434  0.58875739  0.69622852  1
  Se  Se257  1  0.75440734  0.91586266  0.19782460  1
  Se  Se258  1  0.72350505  0.93361413  0.69638967  1
