# generated using pymatgen
data_In86Cu29Se144
_symmetry_space_group_name_H-M   'P 1'
_cell_length_a   17.59011255
_cell_length_b   17.59147727
_cell_length_c   23.45683661
_cell_angle_alpha   90.01396724
_cell_angle_beta   90.02430145
_cell_angle_gamma   89.98044770
_symmetry_Int_Tables_number   1
_chemical_formula_structural   In86Cu29Se144
_chemical_formula_sum   'In86 Cu29 Se144'
_cell_volume   7258.38992833
_cell_formula_units_Z   1
loop_
 _symmetry_equiv_pos_site_id
 _symmetry_equiv_pos_as_xyz
  1  'x, y, z'
loop_
 _atom_site_type_symbol
 _atom_site_label
 _atom_site_symmetry_multiplicity
 _atom_site_fract_x
 _atom_site_fract_y
 _atom_site_fract_z
 _atom_site_occupancy
  In  In0  1  0.01682493  0.17979900  0.11046974  1
  In  In1  1  0.00215839  0.16048084  0.63630905  1
  In  In2  1  0.00978370  0.50489192  0.13007474  1
  In  In3  1  -0.00230360  0.48898210  0.62499818  1
  In  In4  1  -0.01064709  0.82525889  0.11525666  1
  In  In5  1  0.00387663  0.83929080  0.63120760  1
  In  In6  1  0.33833965  0.17434812  0.11907835  1
  In  In7  1  0.32728898  0.17244006  0.63442412  1
  In  In8  1  0.28294653  0.50314302  0.12175996  1
  In  In9  1  0.32822847  0.49960068  0.62964608  1
  In  In10  1  0.32631821  0.80936642  0.09514164  1
  In  In11  1  0.33225055  0.82614977  0.64163803  1
  In  In12  1  0.64610013  0.16656066  0.12370174  1
  In  In13  1  0.66928074  0.16496470  0.63589050  1
  In  In14  1  0.67837388  0.49923613  0.12661840  1
  In  In15  1  0.65824459  0.50519060  0.62865497  1
  In  In16  1  0.66848529  0.82938701  0.12682072  1
  In  In17  1  0.67406013  0.83158059  0.62646518  1
  In  In18  1  0.17179405  -0.00678449  0.37412897  1
  In  In19  1  0.17253860  0.00127588  0.87397218  1
  In  In20  1  0.18888356  0.36690449  0.34420068  1
  In  In21  1  0.16768329  0.32780594  0.87991309  1
  In  In22  1  0.16034122  0.66133788  0.37505650  1
  In  In23  1  0.17752518  0.66334520  0.87982533  1
  In  In24  1  0.49934109  -0.01549696  0.37388766  1
  In  In25  1  0.49974528  0.00024938  0.87420559  1
  In  In26  1  0.49777651  0.35118451  0.38047284  1
  In  In27  1  0.48804720  0.32261730  0.86941286  1
  In  In28  1  0.49229400  0.64725245  0.37037788  1
  In  In29  1  0.49212527  0.68245572  0.88265291  1
  In  In30  1  0.82510090  0.00583370  0.37170644  1
  In  In31  1  0.82448156  -0.00580268  0.87196781  1
  In  In32  1  0.83765129  0.32358107  0.36972780  1
  In  In33  1  0.84265091  0.34070797  0.87131399  1
  In  In34  1  0.84569964  0.67948434  0.36873988  1
  In  In35  1  0.83759112  0.66154553  0.88395121  1
  In  In36  1  -0.00666130  0.17670052  0.37104112  1
  In  In37  1  0.01610977  0.18102593  0.87339790  1
  In  In38  1  0.01871403  0.51902958  0.35665519  1
  In  In39  1  0.01977159  0.48000584  0.89435369  1
  In  In40  1  -0.00242824  0.80959982  0.37626132  1
  In  In41  1  -0.00335743  0.83754148  0.88024681  1
  In  In42  1  0.31625642  0.17825133  0.38160424  1
  In  In43  1  0.33368329  0.16805714  0.87793894  1
  In  In44  1  0.33895211  0.50052317  0.38477650  1
  In  In45  1  0.32136555  0.48712701  0.86712665  1
  In  In46  1  0.32189708  0.82867122  0.37187065  1
  In  In47  1  0.32776676  0.83813937  0.87419107  1
  In  In48  1  0.67789990  0.16475325  0.36855272  1
  In  In49  1  0.65593281  0.15627741  0.86994709  1
  In  In50  1  0.65062667  0.50094259  0.37250964  1
  In  In51  1  0.68070065  0.50294509  0.87569453  1
  In  In52  1  0.67294505  0.84247557  0.36786034  1
  In  In53  1  0.66069771  0.84408837  0.88148542  1
  In  In54  1  0.17153686  0.00217824  0.11067654  1
  In  In55  1  0.16759020  -0.01411663  0.64934423  1
  In  In56  1  0.16904278  0.33741418  0.12698703  1
  In  In57  1  0.16633473  0.34130191  0.62988000  1
  In  In58  1  0.15152502  0.64846014  0.10305381  1
  In  In59  1  0.18163054  0.66230119  0.62662402  1
  In  In60  1  0.50273106  -0.00202854  0.11861513  1
  In  In61  1  0.49697327  -0.00067998  0.63610247  1
  In  In62  1  0.49297757  0.32120234  0.11863453  1
  In  In63  1  0.48656628  0.35111437  0.64075059  1
  In  In64  1  0.49401818  0.67829276  0.12291650  1
  In  In65  1  0.49088520  0.65097161  0.62201852  1
  In  In66  1  0.83364380  -0.01495741  0.12168534  1
  In  In67  1  0.84161490  -0.01011289  0.63504418  1
  In  In68  1  0.84103981  0.35158701  0.11636734  1
  In  In69  1  0.84177197  0.32287077  0.63434629  1
  In  In70  1  0.83737530  0.66692584  0.12911716  1
  In  In71  1  0.82070999  0.67059652  0.61746176  1
  In  In72  1  0.83390415  0.50405733  0.49772733  1
  In  In73  1  0.33548916  0.66701696  0.24164312  1
  In  In74  1  0.50394818  0.17389550  0.49724613  1
  In  In75  1  0.16138850  0.17256561  0.51481656  1
  In  In76  1  0.66724697  0.33186934  0.24985837  1
  In  In77  1  0.49781231  0.49501291  -0.00072893  1
  In  In78  1  0.00230510  0.66771484  0.75910045  1
  In  In79  1  0.35262231  0.00820498  0.23570114  1
  In  In80  1  0.83401752  0.16723069  0.49709701  1
  In  In81  1  -0.00333089  0.00330179  0.24425135  1
  In  In82  1  0.50050480  0.82413013  0.50909762  1
  In  In83  1  0.83636941  0.16818787  -0.00079317  1
  In  In84  1  0.65970144  0.66612136  0.74829895  1
  In  In85  1  0.16356824  0.82076165  0.50364645  1
  Cu  Cu86  1  0.49458523  0.49836170  0.24614600  1
  Cu  Cu87  1  0.49500708  0.16211665  0.24878986  1
  Cu  Cu88  1  0.67457868  0.66805336  0.00399950  1
  Cu  Cu89  1  0.00330072  0.00202642  -0.00525500  1
  Cu  Cu90  1  0.66542808  0.67275970  0.49363987  1
  Cu  Cu91  1  0.32839230  0.33541026  -0.00099628  1
  Cu  Cu92  1  0.84093984  0.49259706  0.75402130  1
  Cu  Cu93  1  0.50754548  0.83482214  0.24280640  1
  Cu  Cu94  1  0.82757174  0.82941152  0.75397270  1
  Cu  Cu95  1  0.67615015  -0.00173712  0.49737777  1
  Cu  Cu96  1  0.66191618  0.34135426  0.51017091  1
  Cu  Cu97  1  -0.00300073  0.66923366  0.00097367  1
  Cu  Cu98  1  0.83727495  0.50485159  0.24603953  1
  Cu  Cu99  1  -0.00407396  -0.01214722  0.50830958  1
  Cu  Cu100  1  0.82848385  0.16313958  0.23704209  1
  Cu  Cu101  1  0.16315332  0.49505235  0.75560117  1
  Cu  Cu102  1  0.17057942  0.16791868  0.75539160  1
  Cu  Cu103  1  0.16641042  0.83465331  0.24178274  1
  Cu  Cu104  1  0.49596800  0.83607576  0.75668622  1
  Cu  Cu105  1  0.33870380  0.00102444  -0.00582318  1
  Cu  Cu106  1  0.83211895  0.16636021  0.75812116  1
  Cu  Cu107  1  0.49660112  0.50091375  0.75230820  1
  Cu  Cu108  1  0.00854779  0.33549796  0.49522701  1
  Cu  Cu109  1  0.50247665  0.16678280  0.75227506  1
  Cu  Cu110  1  0.66672900  -0.00462302  -0.00280946  1
  Cu  Cu111  1  0.83336578  0.83180933  0.24650746  1
  Cu  Cu112  1  0.33284728  -0.00282206  0.51090037  1
  Cu  Cu113  1  0.66452604  0.32714226  -0.00293975  1
  Cu  Cu114  1  0.16260635  0.17587873  0.24593399  1
  Se  Se115  1  0.08788705  0.08662623  0.04444416  1
  Se  Se116  1  0.07976198  0.06546389  0.56721072  1
  Se  Se117  1  0.10203889  0.43503541  0.06033170  1
  Se  Se118  1  0.08562184  0.41633122  0.55445616  1
  Se  Se119  1  0.08477154  0.75754435  0.04760514  1
  Se  Se120  1  0.07284485  0.73734223  0.56573285  1
  Se  Se121  1  0.41664296  0.08259832  0.05426564  1
  Se  Se122  1  0.41541207  0.08303143  0.56164997  1
  Se  Se123  1  0.40217294  0.41695027  0.06363964  1
  Se  Se124  1  0.42807791  0.43163926  0.56259550  1
  Se  Se125  1  0.43632423  0.74992133  0.03849489  1
  Se  Se126  1  0.39852196  0.74032586  0.56065242  1
  Se  Se127  1  0.74226658  0.08018230  0.06017995  1
  Se  Se128  1  0.75035098  0.07799283  0.56113395  1
  Se  Se129  1  0.74217293  0.41491994  0.04967689  1
  Se  Se130  1  0.75273996  0.41263292  0.56690414  1
  Se  Se131  1  0.75685421  0.75101022  0.05870136  1
  Se  Se132  1  0.74577330  0.75679154  0.54743143  1
  Se  Se133  1  0.24661870  0.25123822  0.05441143  1
  Se  Se134  1  0.26310502  0.26424571  0.55947980  1
  Se  Se135  1  0.27629218  0.61315307  0.05058750  1
  Se  Se136  1  0.23520146  0.56461168  0.55735360  1
  Se  Se137  1  0.25204478  0.91680843  0.04407234  1
  Se  Se138  1  0.24946545  0.91662305  0.56623163  1
  Se  Se139  1  0.57706549  0.24632217  0.04641663  1
  Se  Se140  1  0.58792352  0.25459070  0.56656811  1
  Se  Se141  1  0.58958771  0.58489939  0.05977031  1
  Se  Se142  1  0.59101658  0.59059944  0.55409350  1
  Se  Se143  1  0.58768676  0.91174679  0.05474450  1
  Se  Se144  1  0.58950242  0.92755650  0.55906115  1
  Se  Se145  1  0.92738621  0.26861823  0.04727378  1
  Se  Se146  1  0.93075132  0.25162686  0.55632318  1
  Se  Se147  1  0.92225017  0.58556647  0.06094375  1
  Se  Se148  1  0.92252842  0.59061066  0.56035575  1
  Se  Se149  1  0.91805777  0.91871951  0.04655575  1
  Se  Se150  1  0.91113725  0.90641311  0.55915532  1
  Se  Se151  1  0.08584702  0.25063346  0.43839264  1
  Se  Se152  1  0.08191339  0.25516909  0.95271099  1
  Se  Se153  1  0.07681164  0.58353943  0.44389749  1
  Se  Se154  1  0.08568860  0.58939818  0.94904187  1
  Se  Se155  1  0.07799091  0.91807769  0.44165024  1
  Se  Se156  1  0.08803709  0.91837218  0.94362267  1
  Se  Se157  1  0.40644571  0.26329760  0.44550733  1
  Se  Se158  1  0.41550834  0.25170231  0.94960871  1
  Se  Se159  1  0.42346484  0.58248644  0.45192699  1
  Se  Se160  1  0.40975468  0.57801907  0.93511242  1
  Se  Se161  1  0.40463848  0.91546502  0.44662801  1
  Se  Se162  1  0.42040992  0.91458111  0.94315294  1
  Se  Se163  1  0.73676229  0.26278180  0.44499181  1
  Se  Se164  1  0.74442753  0.25045332  0.93499461  1
  Se  Se165  1  0.74347565  0.58942599  0.43416035  1
  Se  Se166  1  0.75348502  0.58000455  0.95249080  1
  Se  Se167  1  0.75684214  0.91580067  0.44278850  1
  Se  Se168  1  0.75566615  0.91354798  0.94986557  1
  Se  Se169  1  0.25075130  0.07478407  0.45075798  1
  Se  Se170  1  0.25066806  0.08559378  0.94671874  1
  Se  Se171  1  0.24436950  0.41257991  0.43822210  1
  Se  Se172  1  0.24551285  0.42033917  0.94766680  1
  Se  Se173  1  0.25974065  0.73550289  0.44425745  1
  Se  Se174  1  0.25389090  0.75263266  0.94679588  1
  Se  Se175  1  0.59250572  0.07567725  0.43849175  1
  Se  Se176  1  0.58220053  0.08088135  0.94725514  1
  Se  Se177  1  0.58392024  0.42319139  0.45243179  1
  Se  Se178  1  0.58717643  0.40936107  0.93489839  1
  Se  Se179  1  0.58255861  0.74951843  0.43296438  1
  Se  Se180  1  0.59182401  0.74683270  0.94747759  1
  Se  Se181  1  0.92881474  0.07319542  0.44207276  1
  Se  Se182  1  0.92134550  0.08076413  0.93440435  1
  Se  Se183  1  0.91806714  0.40856380  0.43938998  1
  Se  Se184  1  0.90029850  0.43108735  0.94612396  1
  Se  Se185  1  0.91289872  0.74776700  0.45203754  1
  Se  Se186  1  0.91421958  0.75335121  0.94859850  1
  Se  Se187  1  0.25567627  0.24969735  0.29765413  1
  Se  Se188  1  0.25347123  0.25291116  0.80790998  1
  Se  Se189  1  0.25312798  0.58090894  0.30887337  1
  Se  Se190  1  0.24768305  0.58330098  0.80212797  1
  Se  Se191  1  0.25074931  0.91719364  0.29539500  1
  Se  Se192  1  0.26076537  0.92988649  0.80280946  1
  Se  Se193  1  0.57361435  0.24475603  0.31185654  1
  Se  Se194  1  0.58540605  0.25263517  0.80355542  1
  Se  Se195  1  0.58060517  0.58240692  0.29595454  1
  Se  Se196  1  0.57445405  0.58107126  0.81487959  1
  Se  Se197  1  0.58446017  0.92133044  0.29842042  1
  Se  Se198  1  0.58554957  0.91796961  0.80413387  1
  Se  Se199  1  0.90971689  0.24289096  0.29448207  1
  Se  Se200  1  0.92005388  0.25034934  0.80545864  1
  Se  Se201  1  0.91890072  0.59242625  0.29718544  1
  Se  Se202  1  0.91869978  0.57035337  0.81663667  1
  Se  Se203  1  0.91436533  0.91244537  0.30899732  1
  Se  Se204  1  0.91228572  0.91144735  0.80647841  1
  Se  Se205  1  0.09224577  0.08910853  0.30788667  1
  Se  Se206  1  0.08478867  0.08501991  0.80655759  1
  Se  Se207  1  0.05274014  0.39079056  0.31062979  1
  Se  Se208  1  0.08202879  0.41059729  0.80948415  1
  Se  Se209  1  0.09173197  0.75296119  0.30305979  1
  Se  Se210  1  0.09272778  0.75788659  0.81458590  1
  Se  Se211  1  0.41837203  0.09080777  0.31880839  1
  Se  Se212  1  0.41802639  0.08737096  0.80779483  1
  Se  Se213  1  0.41503865  0.42107291  0.30639430  1
  Se  Se214  1  0.41386611  0.41269693  0.80075353  1
  Se  Se215  1  0.42431386  0.75953671  0.30632990  1
  Se  Se216  1  0.41254112  0.75048038  0.80542624  1
  Se  Se217  1  0.74947397  0.08209293  0.29475720  1
  Se  Se218  1  0.74561820  0.07919789  0.80262796  1
  Se  Se219  1  0.75722932  0.42586475  0.30884667  1
  Se  Se220  1  0.74853248  0.41477533  0.80326820  1
  Se  Se221  1  0.74994978  0.75050949  0.30223515  1
  Se  Se222  1  0.74987280  0.74815730  0.81381229  1
  Se  Se223  1  0.24247223  0.09041758  0.18888594  1
  Se  Se224  1  0.25316667  0.08320991  0.70236624  1
  Se  Se225  1  0.25470843  0.40939866  0.20166186  1
  Se  Se226  1  0.25143036  0.41458381  0.70256490  1
  Se  Se227  1  0.24579832  0.75517500  0.18152099  1
  Se  Se228  1  0.22756624  0.76081539  0.69971491  1
  Se  Se229  1  0.57685694  0.07930134  0.19622124  1
  Se  Se230  1  0.58507453  0.08030515  0.70042139  1
  Se  Se231  1  0.57542810  0.41606627  0.18694965  1
  Se  Se232  1  0.58865505  0.42131702  0.70262029  1
  Se  Se233  1  0.58587591  0.74247199  0.19504658  1
  Se  Se234  1  0.56859986  0.75668198  0.68842619  1
  Se  Se235  1  0.91567945  0.09310004  0.17627992  1
  Se  Se236  1  0.91358801  0.08267605  0.70205978  1
  Se  Se237  1  0.91866067  0.41899354  0.19446660  1
  Se  Se238  1  0.92391077  0.40956961  0.70003035  1
  Se  Se239  1  0.92307692  0.75210422  0.19704653  1
  Se  Se240  1  0.90435469  0.74739031  0.69408512  1
  Se  Se241  1  0.07716181  0.25540780  0.19332992  1
  Se  Se242  1  0.08924508  0.24799209  0.69598673  1
  Se  Se243  1  0.10296154  0.58446430  0.19348731  1
  Se  Se244  1  0.08361480  0.57495285  0.69477285  1
  Se  Se245  1  0.08729335  0.91598352  0.18305050  1
  Se  Se246  1  0.06554988  0.91921629  0.70947640  1
  Se  Se247  1  0.41613056  0.24916570  0.19645290  1
  Se  Se248  1  0.41597532  0.25034633  0.70142217  1
  Se  Se249  1  0.41701991  0.57123891  0.17941399  1
  Se  Se250  1  0.41262828  0.58427489  0.69990736  1
  Se  Se251  1  0.41722777  0.89858004  0.17961837  1
  Se  Se252  1  0.41142355  0.92012437  0.70315298  1
  Se  Se253  1  0.75238591  0.24956885  0.17985467  1
  Se  Se254  1  0.75116726  0.25032817  0.70185066  1
  Se  Se255  1  0.74889849  0.58605784  0.19759528  1
  Se  Se256  1  0.76217625  0.57665779  0.69614085  1
  Se  Se257  1  0.74947491  0.91740578  0.19653395  1
  Se  Se258  1  0.74628827  0.91411257  0.69993225  1
