# generated using pymatgen
data_In86Cu29Se144
_symmetry_space_group_name_H-M   'P 1'
_cell_length_a   17.57875755
_cell_length_b   17.57705958
_cell_length_c   23.44128734
_cell_angle_alpha   90.01236599
_cell_angle_beta   90.01241570
_cell_angle_gamma   90.00036442
_symmetry_Int_Tables_number   1
_chemical_formula_structural   In86Cu29Se144
_chemical_formula_sum   'In86 Cu29 Se144'
_cell_volume   7242.95586791
_cell_formula_units_Z   1
loop_
 _symmetry_equiv_pos_site_id
 _symmetry_equiv_pos_as_xyz
  1  'x, y, z'
loop_
 _atom_site_type_symbol
 _atom_site_label
 _atom_site_symmetry_multiplicity
 _atom_site_fract_x
 _atom_site_fract_y
 _atom_site_fract_z
 _atom_site_occupancy
  In  In0  1  0.00608040  0.16003312  0.12752431  1
  In  In1  1  -0.00273940  0.16534151  0.62582105  1
  In  In2  1  -0.01541768  0.51443104  0.13306434  1
  In  In3  1  -0.01093294  0.50908869  0.63185188  1
  In  In4  1  0.00747888  0.82776138  0.13054075  1
  In  In5  1  0.00176715  0.82089411  0.63127642  1
  In  In6  1  0.32566700  0.17208111  0.11896352  1
  In  In7  1  0.32308473  0.18048140  0.63399257  1
  In  In8  1  0.34755617  0.49407392  0.12033815  1
  In  In9  1  0.33834523  0.48914472  0.62807977  1
  In  In10  1  0.33278067  0.84064585  0.11932050  1
  In  In11  1  0.33742046  0.84280046  0.62236006  1
  In  In12  1  0.67288808  0.16746917  0.13555152  1
  In  In13  1  0.68436349  0.16685907  0.61987163  1
  In  In14  1  0.66612431  0.49951746  0.12434317  1
  In  In15  1  0.65688316  0.49499707  0.61243356  1
  In  In16  1  0.68101283  0.81813308  0.14508468  1
  In  In17  1  0.66515708  0.84300185  0.61496120  1
  In  In18  1  0.15864522  0.00529347  0.38502126  1
  In  In19  1  0.16688152  0.00250341  0.86977869  1
  In  In20  1  0.14981801  0.33547647  0.37851520  1
  In  In21  1  0.15492628  0.32194725  0.86962224  1
  In  In22  1  0.16596809  0.67928812  0.37415834  1
  In  In23  1  0.16469950  0.68288525  0.87934933  1
  In  In24  1  0.50321452  -0.01482795  0.37720174  1
  In  In25  1  0.49524974  0.01426373  0.86800106  1
  In  In26  1  0.51988528  0.33835625  0.37212469  1
  In  In27  1  0.51209692  0.33948016  0.85739885  1
  In  In28  1  0.51757900  0.65813366  0.39166958  1
  In  In29  1  0.49579645  0.65856359  0.88195719  1
  In  In30  1  0.84188472  0.00551819  0.37181735  1
  In  In31  1  0.83938757  -0.01404524  0.86982137  1
  In  In32  1  0.83623705  0.33587339  0.38043366  1
  In  In33  1  0.84405235  0.34568055  0.86632523  1
  In  In34  1  0.81995233  0.64954386  0.37044705  1
  In  In35  1  0.83245906  0.65531369  0.87490827  1
  In  In36  1  -0.00170450  0.16725328  0.38152581  1
  In  In37  1  0.00682818  0.17257652  0.86985655  1
  In  In38  1  -0.01147001  0.48801905  0.36656992  1
  In  In39  1  -0.00549780  0.49746763  0.87230488  1
  In  In40  1  0.00507873  0.84029977  0.37021089  1
  In  In41  1  0.00480259  0.84820063  0.86246235  1
  In  In42  1  0.32752171  0.15765326  0.38189336  1
  In  In43  1  0.32795599  0.15590270  0.85786012  1
  In  In44  1  0.34671333  0.50584405  0.37570303  1
  In  In45  1  0.34679191  0.50018474  0.87471951  1
  In  In46  1  0.33070224  0.83007690  0.38712470  1
  In  In47  1  0.32098767  0.83611949  0.87397083  1
  In  In48  1  0.68182378  0.18174361  0.36852082  1
  In  In49  1  0.65216107  0.17722468  0.87352725  1
  In  In50  1  0.67101508  0.50673419  0.38123895  1
  In  In51  1  0.67876211  0.49169882  0.88528705  1
  In  In52  1  0.64655787  0.81560912  0.35906852  1
  In  In53  1  0.67174125  0.82062856  0.88032296  1
  In  In54  1  0.15869536  -0.00875437  0.11523630  1
  In  In55  1  0.16160122  0.00075281  0.62373090  1
  In  In56  1  0.16644876  0.31821447  0.12031155  1
  In  In57  1  0.17204385  0.32478286  0.63082504  1
  In  In58  1  0.14402926  0.67197275  0.11992715  1
  In  In59  1  0.14850120  0.66638123  0.62536859  1
  In  In60  1  0.50512255  -0.00393039  0.13418344  1
  In  In61  1  0.50082934  -0.01040298  0.62415833  1
  In  In62  1  0.51154275  0.34488121  0.12178144  1
  In  In63  1  0.49219133  0.33909817  0.63082909  1
  In  In64  1  0.53099077  0.64401828  0.14447247  1
  In  In65  1  0.50616482  0.67115843  0.61066512  1
  In  In66  1  0.83909667  -0.00428307  0.13749531  1
  In  In67  1  0.83017234  0.00872307  0.62368688  1
  In  In68  1  0.82091883  0.34941098  0.13064571  1
  In  In69  1  0.83419860  0.33397796  0.62599310  1
  In  In70  1  0.83889176  0.65644385  0.12750003  1
  In  In71  1  0.84542268  0.67004023  0.62039498  1
  In  In72  1  0.49099170  0.17023790  -0.00454431  1
  In  In73  1  0.33187626  0.67121845  0.25325442  1
  In  In74  1  0.67326935  0.66509822  0.75002105  1
  In  In75  1  0.67071438  0.00485616  0.74686335  1
  In  In76  1  0.82834671  0.83138463  0.49168649  1
  In  In77  1  0.49720612  0.16845047  0.50162278  1
  In  In78  1  0.16418472  0.49969332  0.50327208  1
  In  In79  1  0.33286379  0.33084118  0.24584016  1
  In  In80  1  0.49594207  0.82639038  0.00678651  1
  In  In81  1  0.32952315  0.66491823  0.75632790  1
  In  In82  1  0.84334180  0.82004031  0.00951275  1
  In  In83  1  0.16248664  0.50028222  -0.00052894  1
  In  In84  1  0.33330794  -0.00115963  0.24779337  1
  In  In85  1  0.83809508  0.17117525  0.00030898  1
  Cu  Cu86  1  0.01154665  -0.00036912  -0.00386025  1
  Cu  Cu87  1  -0.00240714  -0.00231296  0.50034243  1
  Cu  Cu88  1  0.16007749  0.16362187  0.74722203  1
  Cu  Cu89  1  0.16716868  0.83971837  0.74899397  1
  Cu  Cu90  1  0.33017492  0.32591277  -0.00561833  1
  Cu  Cu91  1  0.33237996  0.67085022  0.50086819  1
  Cu  Cu92  1  0.50284802  0.83944964  0.74785745  1
  Cu  Cu93  1  -0.00178249  0.66552431  0.49885119  1
  Cu  Cu94  1  0.66757001  0.34044886  -0.00185941  1
  Cu  Cu95  1  -0.00287759  0.32884077  0.50343667  1
  Cu  Cu96  1  0.32415985  0.00114930  0.50406399  1
  Cu  Cu97  1  0.16233502  0.83893088  0.24997063  1
  Cu  Cu98  1  0.15846317  0.49967865  0.24682358  1
  Cu  Cu99  1  0.82893413  0.49981095  0.25309813  1
  Cu  Cu100  1  0.32608896  0.00257411  -0.00657799  1
  Cu  Cu101  1  0.33555319  0.33622324  0.50636818  1
  Cu  Cu102  1  0.66839008  -0.00689358  0.00801128  1
  Cu  Cu103  1  0.83387983  0.83451671  0.25625954  1
  Cu  Cu104  1  0.15759985  0.16466310  0.25323424  1
  Cu  Cu105  1  -0.00649101  0.33996446  -0.00227571  1
  Cu  Cu106  1  0.50319758  0.49987779  0.74657413  1
  Cu  Cu107  1  0.66633334  0.00045126  0.49285366  1
  Cu  Cu108  1  0.33658612  0.66505991  0.00193878  1
  Cu  Cu109  1  0.67397983  0.33633048  0.49747363  1
  Cu  Cu110  1  0.50759199  0.16673378  0.25147920  1
  Cu  Cu111  1  0.83563418  0.16866638  0.74787023  1
  Cu  Cu112  1  0.82904665  0.49462222  0.74967557  1
  Cu  Cu113  1  0.16076278  0.49412504  0.74928513  1
  Cu  Cu114  1  0.84268339  0.17276144  0.25420114  1
  Se  Se115  1  0.08739297  0.08952369  0.05051287  1
  Se  Se116  1  0.07902988  0.08369558  0.55447196  1
  Se  Se117  1  0.07492339  0.41373697  0.06333648  1
  Se  Se118  1  0.07625291  0.41131370  0.56504590  1
  Se  Se119  1  0.08201482  0.76325737  0.04914503  1
  Se  Se120  1  0.07942790  0.75114170  0.55119978  1
  Se  Se121  1  0.41112997  0.07101816  0.05934503  1
  Se  Se122  1  0.40725638  0.08092425  0.56324668  1
  Se  Se123  1  0.41582206  0.40452909  0.04912823  1
  Se  Se124  1  0.42252461  0.42052956  0.55307201  1
  Se  Se125  1  0.41624418  0.73315402  0.07100188  1
  Se  Se126  1  0.41531936  0.75739334  0.55239970  1
  Se  Se127  1  0.75092403  0.07698399  0.06172988  1
  Se  Se128  1  0.75249692  0.08016612  0.54599422  1
  Se  Se129  1  0.75195802  0.42257157  0.05044304  1
  Se  Se130  1  0.75635127  0.41777795  0.55374123  1
  Se  Se131  1  0.73965302  0.73826314  0.06099922  1
  Se  Se132  1  0.74226055  0.74142592  0.55530716  1
  Se  Se133  1  0.24450903  0.24323068  0.04409262  1
  Se  Se134  1  0.24932315  0.25118213  0.55333320  1
  Se  Se135  1  0.25323112  0.58826367  0.06365834  1
  Se  Se136  1  0.25571471  0.58946332  0.56465578  1
  Se  Se137  1  0.24900176  0.91488906  0.04790694  1
  Se  Se138  1  0.24290650  0.91357111  0.55532354  1
  Se  Se139  1  0.59478303  0.24801678  0.05494554  1
  Se  Se140  1  0.59045633  0.25776178  0.55896917  1
  Se  Se141  1  0.57096636  0.57036044  0.05640723  1
  Se  Se142  1  0.58528560  0.58646701  0.54532874  1
  Se  Se143  1  0.59324034  0.91087300  0.06737577  1
  Se  Se144  1  0.58004603  0.92054843  0.54572473  1
  Se  Se145  1  0.92017842  0.26085953  0.06469733  1
  Se  Se146  1  0.91250019  0.24632258  0.55649334  1
  Se  Se147  1  0.92698969  0.59402401  0.05222793  1
  Se  Se148  1  0.91700059  0.57964147  0.55039285  1
  Se  Se149  1  0.92562756  0.92812474  0.05885329  1
  Se  Se150  1  0.91671685  0.91515566  0.55902211  1
  Se  Se151  1  0.08469677  0.24809621  0.45194641  1
  Se  Se152  1  0.07634353  0.25228829  0.94813903  1
  Se  Se153  1  0.07797860  0.58463306  0.43685044  1
  Se  Se154  1  0.07556633  0.59175412  0.94052711  1
  Se  Se155  1  0.08119457  0.91192577  0.44926300  1
  Se  Se156  1  0.08857359  0.91520424  0.93960789  1
  Se  Se157  1  0.41231090  0.26118853  0.43770768  1
  Se  Se158  1  0.41030525  0.25537288  0.92733389  1
  Se  Se159  1  0.41585326  0.58346798  0.45245979  1
  Se  Se160  1  0.41794192  0.57672877  0.95317421  1
  Se  Se161  1  0.41093825  0.92283314  0.44962920  1
  Se  Se162  1  0.41652402  0.92345101  0.94007367  1
  Se  Se163  1  0.75658770  0.24771846  0.44973833  1
  Se  Se164  1  0.74678447  0.25776113  0.93855420  1
  Se  Se165  1  0.75779619  0.57941615  0.45354814  1
  Se  Se166  1  0.74232857  0.59378923  0.94692591  1
  Se  Se167  1  0.74122046  0.91932862  0.42927926  1
  Se  Se168  1  0.75038105  0.91686442  0.94769847  1
  Se  Se169  1  0.24207822  0.08813241  0.45399791  1
  Se  Se170  1  0.25046059  0.08851561  0.93789799  1
  Se  Se171  1  0.25669193  0.41314902  0.44012075  1
  Se  Se172  1  0.25128849  0.41171381  0.93657250  1
  Se  Se173  1  0.24135672  0.75018239  0.45277318  1
  Se  Se174  1  0.25608950  0.75112993  0.95024415  1
  Se  Se175  1  0.58775021  0.08743463  0.43543522  1
  Se  Se176  1  0.59109158  0.07374148  0.94608325  1
  Se  Se177  1  0.58521932  0.41876126  0.44927875  1
  Se  Se178  1  0.57680808  0.41210782  0.94115979  1
  Se  Se179  1  0.58266517  0.76480332  0.44951009  1
  Se  Se180  1  0.59053221  0.73661921  0.94951953  1
  Se  Se181  1  0.91397699  0.08292965  0.44949197  1
  Se  Se182  1  0.92229661  0.07536311  0.93972875  1
  Se  Se183  1  0.92116320  0.41862522  0.44984377  1
  Se  Se184  1  0.91050843  0.42329203  0.94654626  1
  Se  Se185  1  0.92083290  0.74203658  0.43320632  1
  Se  Se186  1  0.92402986  0.75200485  0.93140118  1
  Se  Se187  1  0.24331657  0.24351859  0.31037817  1
  Se  Se188  1  0.24415527  0.25035328  0.79900913  1
  Se  Se189  1  0.24060748  0.57331135  0.31013788  1
  Se  Se190  1  0.23769723  0.57403946  0.81431795  1
  Se  Se191  1  0.24492466  0.91292328  0.31247187  1
  Se  Se192  1  0.25411327  0.92133548  0.80003975  1
  Se  Se193  1  0.59098397  0.25465516  0.29898518  1
  Se  Se194  1  0.58013220  0.24162930  0.79299906  1
  Se  Se195  1  0.58125092  0.58128951  0.31207292  1
  Se  Se196  1  0.58014080  0.57787755  0.81033386  1
  Se  Se197  1  0.58640262  0.92511483  0.30014756  1
  Se  Se198  1  0.58542202  0.91062904  0.81275912  1
  Se  Se199  1  0.92260651  0.25494522  0.31117801  1
  Se  Se200  1  0.91903979  0.25167941  0.80260266  1
  Se  Se201  1  0.91793693  0.58492575  0.30153265  1
  Se  Se202  1  0.91299764  0.57974213  0.80121510  1
  Se  Se203  1  0.92097005  0.92074947  0.30176868  1
  Se  Se204  1  0.91727275  0.92187929  0.79237530  1
  Se  Se205  1  0.08008720  0.08189459  0.31087048  1
  Se  Se206  1  0.07786864  0.07999686  0.80160985  1
  Se  Se207  1  0.08083093  0.41143382  0.29972770  1
  Se  Se208  1  0.07666890  0.41316266  0.80438212  1
  Se  Se209  1  0.08159397  0.74991254  0.30060278  1
  Se  Se210  1  0.08716083  0.75206968  0.80157930  1
  Se  Se211  1  0.42284295  0.09087634  0.30966176  1
  Se  Se212  1  0.42270868  0.08562514  0.79139980  1
  Se  Se213  1  0.42478701  0.41912655  0.30446299  1
  Se  Se214  1  0.41395274  0.41955026  0.79756213  1
  Se  Se215  1  0.41945456  0.74923822  0.32068806  1
  Se  Se216  1  0.42686668  0.75771906  0.81114178  1
  Se  Se217  1  0.75638276  0.08772289  0.30353423  1
  Se  Se218  1  0.75651775  0.09306537  0.81416372  1
  Se  Se219  1  0.75136572  0.41803428  0.31252168  1
  Se  Se220  1  0.74231732  0.41469123  0.80325822  1
  Se  Se221  1  0.75042690  0.74421493  0.30190300  1
  Se  Se222  1  0.76305303  0.75971997  0.80551097  1
  Se  Se223  1  0.24107906  0.08976506  0.19033370  1
  Se  Se224  1  0.24547815  0.08238960  0.69375399  1
  Se  Se225  1  0.24201579  0.42367370  0.18584894  1
  Se  Se226  1  0.24984455  0.41685626  0.69728234  1
  Se  Se227  1  0.24160896  0.75823944  0.18906687  1
  Se  Se228  1  0.24528249  0.75226715  0.69039296  1
  Se  Se229  1  0.58868938  0.08023633  0.19951031  1
  Se  Se230  1  0.58246208  0.08975955  0.68335051  1
  Se  Se231  1  0.59415154  0.40965941  0.19592334  1
  Se  Se232  1  0.58792840  0.41906010  0.69250876  1
  Se  Se233  1  0.57431623  0.75743557  0.20428120  1
  Se  Se234  1  0.58070207  0.75728263  0.68954238  1
  Se  Se235  1  0.92166521  0.08565003  0.19945616  1
  Se  Se236  1  0.91515958  0.08081917  0.69623728  1
  Se  Se237  1  0.91543573  0.41813556  0.19934686  1
  Se  Se238  1  0.91735908  0.41373681  0.69772793  1
  Se  Se239  1  0.91042207  0.75494628  0.19295091  1
  Se  Se240  1  0.91508641  0.74280740  0.69861264  1
  Se  Se241  1  0.08246419  0.25149914  0.19610875  1
  Se  Se242  1  0.07795862  0.25059823  0.69581465  1
  Se  Se243  1  0.07946874  0.59049284  0.19814852  1
  Se  Se244  1  0.07991869  0.58399824  0.70056306  1
  Se  Se245  1  0.08221714  0.92438903  0.19556775  1
  Se  Se246  1  0.08017175  0.91610099  0.69325425  1
  Se  Se247  1  0.42606783  0.23999912  0.18683099  1
  Se  Se248  1  0.41943908  0.25006549  0.69788597  1
  Se  Se249  1  0.41939685  0.57045725  0.20027894  1
  Se  Se250  1  0.42554818  0.58765713  0.69004824  1
  Se  Se251  1  0.42384216  0.89987801  0.19806261  1
  Se  Se252  1  0.41494029  0.91944387  0.69818672  1
  Se  Se253  1  0.75577289  0.25287368  0.19968885  1
  Se  Se254  1  0.75026230  0.25073274  0.69620770  1
  Se  Se255  1  0.74897103  0.58205201  0.19550038  1
  Se  Se256  1  0.75444291  0.57502646  0.68488358  1
  Se  Se257  1  0.74971106  0.92156425  0.20499995  1
  Se  Se258  1  0.75610694  0.90718988  0.69005892  1
