# generated using pymatgen
data_In86Cu29Se144
_symmetry_space_group_name_H-M   'P 1'
_cell_length_a   17.57412307
_cell_length_b   17.57789512
_cell_length_c   23.43975337
_cell_angle_alpha   89.99658808
_cell_angle_beta   89.98928908
_cell_angle_gamma   90.01155648
_symmetry_Int_Tables_number   1
_chemical_formula_structural   In86Cu29Se144
_chemical_formula_sum   'In86 Cu29 Se144'
_cell_volume   7240.91672476
_cell_formula_units_Z   1
loop_
 _symmetry_equiv_pos_site_id
 _symmetry_equiv_pos_as_xyz
  1  'x, y, z'
loop_
 _atom_site_type_symbol
 _atom_site_label
 _atom_site_symmetry_multiplicity
 _atom_site_fract_x
 _atom_site_fract_y
 _atom_site_fract_z
 _atom_site_occupancy
  In  In0  1  -0.00916261  0.15942234  0.11422241  1
  In  In1  1  -0.00242785  0.17776342  0.64166442  1
  In  In2  1  -0.00127445  0.50811642  0.13572404  1
  In  In3  1  0.00702459  0.49757164  0.61920960  1
  In  In4  1  0.00181650  0.82869628  0.12995184  1
  In  In5  1  0.00914043  0.82292972  0.62839832  1
  In  In6  1  0.32256537  0.15925140  0.11090084  1
  In  In7  1  0.32495893  0.16718071  0.64710636  1
  In  In8  1  0.33719148  0.49588711  0.12510406  1
  In  In9  1  0.33165819  0.50278595  0.62471757  1
  In  In10  1  0.33629696  0.85126598  0.11574620  1
  In  In11  1  0.32343829  0.84763811  0.63701309  1
  In  In12  1  0.66853367  0.16014437  0.12315967  1
  In  In13  1  0.67063076  0.16784115  0.62198111  1
  In  In14  1  0.65325208  0.49574021  0.13481654  1
  In  In15  1  0.68133026  0.50198336  0.61205400  1
  In  In16  1  0.67785655  0.85017842  0.12604829  1
  In  In17  1  0.65481839  0.84236100  0.63554709  1
  In  In18  1  0.15869750  -0.00134683  0.37167455  1
  In  In19  1  0.16025297  0.00483216  0.87253854  1
  In  In20  1  0.17208471  0.33524752  0.38342997  1
  In  In21  1  0.14798089  0.30563691  0.84591936  1
  In  In22  1  0.15986704  0.67648597  0.38816423  1
  In  In23  1  0.17120950  0.67381320  0.86713050  1
  In  In24  1  0.50375078  0.01585247  0.35707432  1
  In  In25  1  0.51190318  0.00569672  0.86870500  1
  In  In26  1  0.53553788  0.32432197  0.38494941  1
  In  In27  1  0.48831416  0.32465651  0.87037195  1
  In  In28  1  0.49393808  0.66230858  0.38273154  1
  In  In29  1  0.49726742  0.67363962  0.85362601  1
  In  In30  1  0.84705930  0.00872386  0.36936577  1
  In  In31  1  0.83930329  0.00627958  0.86861928  1
  In  In32  1  0.82371438  0.34085923  0.39112141  1
  In  In33  1  0.83034144  0.31561853  0.87504951  1
  In  In34  1  0.83524559  0.64620274  0.37387702  1
  In  In35  1  0.83644583  0.66905294  0.86095515  1
  In  In36  1  0.00033929  0.15370695  0.37619758  1
  In  In37  1  -0.00344629  0.16512251  0.87159713  1
  In  In38  1  -0.01740716  0.50706334  0.39207536  1
  In  In39  1  0.00920964  0.50238743  0.86314814  1
  In  In40  1  0.01068239  0.84362526  0.36970012  1
  In  In41  1  0.01075457  0.84619457  0.86597466  1
  In  In42  1  0.34153728  0.16097313  0.37236398  1
  In  In43  1  0.33151585  0.16552992  0.87163552  1
  In  In44  1  0.33552780  0.49834021  0.39130350  1
  In  In45  1  0.32668065  0.49648308  0.86284833  1
  In  In46  1  0.32437404  0.84216275  0.37900268  1
  In  In47  1  0.32005950  0.82183616  0.86413572  1
  In  In48  1  0.67680592  0.18069305  0.35737412  1
  In  In49  1  0.67448543  0.15462619  0.88340499  1
  In  In50  1  0.68602702  0.48125572  0.40274674  1
  In  In51  1  0.65534181  0.50075968  0.86950365  1
  In  In52  1  0.66267205  0.84159269  0.37476775  1
  In  In53  1  0.66965178  0.83694154  0.85967849  1
  In  In54  1  0.16433948  -0.00011728  0.11812577  1
  In  In55  1  0.17339414  -0.00314809  0.63422486  1
  In  In56  1  0.17380496  0.33030252  0.12326128  1
  In  In57  1  0.15075194  0.34117895  0.64155915  1
  In  In58  1  0.14964357  0.66999690  0.12382301  1
  In  In59  1  0.16300330  0.66723531  0.62284190  1
  In  In60  1  0.48301869  0.01934065  0.13697034  1
  In  In61  1  0.49648129  0.00485044  0.63795728  1
  In  In62  1  0.51716088  0.32906214  0.13311322  1
  In  In63  1  0.49010832  0.33024921  0.62464453  1
  In  In64  1  0.49400212  0.65620744  0.12485710  1
  In  In65  1  0.50987192  0.66451434  0.63676709  1
  In  In66  1  0.82319318  0.00662693  0.14025276  1
  In  In67  1  0.82779782  0.01087527  0.62812886  1
  In  In68  1  0.83771484  0.31767547  0.12762120  1
  In  In69  1  0.86143936  0.35254495  0.59300223  1
  In  In70  1  0.83900380  0.68501708  0.13037137  1
  In  In71  1  0.84391651  0.65761897  0.63028591  1
  In  In72  1  0.16916931  0.49063582  0.00039332  1
  In  In73  1  0.33328212  0.67446687  0.25272298  1
  In  In74  1  0.16196146  0.17020101  0.51004573  1
  In  In75  1  0.67650315  0.33551896  0.74177275  1
  In  In76  1  0.67004694  0.66787717  0.25222435  1
  In  In77  1  0.83873414  0.84238690  0.00162978  1
  In  In78  1  0.48966607  0.48937751  -0.01113568  1
  In  In79  1  -0.00660766  0.33721344  0.25287478  1
  In  In80  1  0.49944313  0.16664874  0.50569902  1
  In  In81  1  0.83767685  0.49332705  0.00605990  1
  In  In82  1  0.49198400  0.83600550  0.50651245  1
  In  In83  1  0.50010348  0.84051162  -0.01075704  1
  In  In84  1  0.83717706  0.82611740  0.50247122  1
  In  In85  1  0.33211217  0.32995524  0.25144306  1
  Cu  Cu86  1  0.66615795  0.00385005  0.00222868  1
  Cu  Cu87  1  0.50736844  0.16742670  0.75158293  1
  Cu  Cu88  1  0.32690585  0.31964921  -0.00915402  1
  Cu  Cu89  1  0.82957109  0.83373636  0.74241654  1
  Cu  Cu90  1  0.16981312  0.83981218  0.25141371  1
  Cu  Cu91  1  0.83086212  0.17047807  0.25002922  1
  Cu  Cu92  1  0.16230450  0.15886931  0.24286280  1
  Cu  Cu93  1  0.50884192  0.48830234  0.26520351  1
  Cu  Cu94  1  0.83556595  0.17030972  0.74859578  1
  Cu  Cu95  1  0.66864978  0.31702736  0.00490459  1
  Cu  Cu96  1  0.32848680  0.00322239  -0.00678994  1
  Cu  Cu97  1  0.32590631  0.67417721  -0.00957544  1
  Cu  Cu98  1  0.83828066  0.49561521  0.73861686  1
  Cu  Cu99  1  0.50789652  0.84198147  0.24674301  1
  Cu  Cu100  1  0.00687688  0.67912593  -0.00274201  1
  Cu  Cu101  1  0.16568735  0.50443263  0.74229101  1
  Cu  Cu102  1  0.66683311  0.66677174  0.50988313  1
  Cu  Cu103  1  0.00359078  0.32788408  -0.00777667  1
  Cu  Cu104  1  0.32770451  0.66920039  0.50823346  1
  Cu  Cu105  1  0.00119796  0.00471807  -0.00576797  1
  Cu  Cu106  1  0.50339156  0.50702786  0.74453577  1
  Cu  Cu107  1  0.66717538  0.66141906  -0.00818570  1
  Cu  Cu108  1  0.16040025  0.51261447  0.25934037  1
  Cu  Cu109  1  0.00204696  0.66328501  0.50196608  1
  Cu  Cu110  1  0.15662242  0.83032958  0.74922530  1
  Cu  Cu111  1  0.00309530  -0.00482685  0.49969085  1
  Cu  Cu112  1  0.33177264  0.33548626  0.50552830  1
  Cu  Cu113  1  0.67132766  0.00824442  0.49891457  1
  Cu  Cu114  1  0.32842200  -0.00110465  0.50560696  1
  Se  Se115  1  0.08568465  0.08779927  0.04912958  1
  Se  Se116  1  0.07643709  0.07421143  0.56594333  1
  Se  Se117  1  0.06880020  0.41028970  0.06231890  1
  Se  Se118  1  0.08021341  0.39839303  0.55672600  1
  Se  Se119  1  0.08695118  0.76208509  0.05159212  1
  Se  Se120  1  0.08476429  0.75176274  0.54991710  1
  Se  Se121  1  0.41722671  0.07921253  0.04854728  1
  Se  Se122  1  0.40423954  0.08215850  0.56606603  1
  Se  Se123  1  0.40705369  0.39901498  0.05658383  1
  Se  Se124  1  0.41691449  0.41950680  0.55595598  1
  Se  Se125  1  0.41426631  0.74319624  0.05263185  1
  Se  Se126  1  0.40783284  0.74765567  0.56989401  1
  Se  Se127  1  0.75767803  0.07822635  0.05640174  1
  Se  Se128  1  0.75544778  0.09002877  0.55105644  1
  Se  Se129  1  0.73827629  0.40896255  0.06320048  1
  Se  Se130  1  0.74281910  0.40631783  0.54327356  1
  Se  Se131  1  0.74133523  0.74459518  0.05418171  1
  Se  Se132  1  0.74296234  0.75024854  0.56924031  1
  Se  Se133  1  0.23727679  0.24628671  0.04670790  1
  Se  Se134  1  0.25894121  0.25345389  0.56823533  1
  Se  Se135  1  0.25760620  0.58943882  0.05809793  1
  Se  Se136  1  0.24418340  0.58060812  0.55520772  1
  Se  Se137  1  0.24651228  0.91805885  0.04540009  1
  Se  Se138  1  0.24553872  0.91556997  0.55727341  1
  Se  Se139  1  0.57782766  0.24191750  0.05705464  1
  Se  Se140  1  0.59100953  0.26357679  0.55643853  1
  Se  Se141  1  0.58510519  0.58061683  0.05201137  1
  Se  Se142  1  0.57879840  0.58489771  0.55914387  1
  Se  Se143  1  0.58193441  0.92414288  0.05989339  1
  Se  Se144  1  0.58667381  0.93296281  0.55821026  1
  Se  Se145  1  0.91495640  0.25215521  0.04786728  1
  Se  Se146  1  0.91936610  0.22745305  0.55637767  1
  Se  Se147  1  0.92676227  0.59719023  0.05754744  1
  Se  Se148  1  0.91624556  0.58090008  0.55345108  1
  Se  Se149  1  0.92516075  0.93042987  0.06333830  1
  Se  Se150  1  0.92122167  0.91939499  0.56333799  1
  Se  Se151  1  0.07444310  0.25263102  0.44257128  1
  Se  Se152  1  0.08703472  0.24949976  0.93719119  1
  Se  Se153  1  0.08754419  0.57760944  0.45060353  1
  Se  Se154  1  0.08118225  0.58654331  0.94210474  1
  Se  Se155  1  0.08914815  0.91513384  0.44767486  1
  Se  Se156  1  0.08369639  0.91725211  0.94532850  1
  Se  Se157  1  0.41087908  0.25809046  0.44195529  1
  Se  Se158  1  0.42112307  0.24085733  0.94510327  1
  Se  Se159  1  0.41521919  0.58831784  0.45671726  1
  Se  Se160  1  0.40826213  0.59188154  0.93280243  1
  Se  Se161  1  0.41646852  0.93255546  0.44114572  1
  Se  Se162  1  0.40508698  0.92249656  0.92919215  1
  Se  Se163  1  0.73606059  0.24444809  0.44398479  1
  Se  Se164  1  0.75655647  0.23988347  0.95142239  1
  Se  Se165  1  0.75679525  0.58922356  0.45759116  1
  Se  Se166  1  0.75147496  0.58056600  0.93726932  1
  Se  Se167  1  0.75029273  0.92246493  0.44375980  1
  Se  Se168  1  0.74169808  0.92181257  0.93920932  1
  Se  Se169  1  0.25222977  0.08279486  0.44406114  1
  Se  Se170  1  0.24551357  0.08733638  0.94122189  1
  Se  Se171  1  0.24464493  0.41866576  0.45590453  1
  Se  Se172  1  0.25015835  0.40563349  0.93282819  1
  Se  Se173  1  0.25373144  0.75607812  0.45073033  1
  Se  Se174  1  0.23891589  0.75699417  0.94408669  1
  Se  Se175  1  0.58338817  0.07976570  0.43985929  1
  Se  Se176  1  0.57856099  0.08329998  0.94940439  1
  Se  Se177  1  0.55916052  0.44017012  0.44816943  1
  Se  Se178  1  0.59343955  0.39855773  0.94023062  1
  Se  Se179  1  0.59069422  0.74816096  0.44797811  1
  Se  Se180  1  0.58889219  0.74229764  0.93283910  1
  Se  Se181  1  0.91767109  0.08023133  0.45039187  1
  Se  Se182  1  0.91305361  0.08580650  0.94400763  1
  Se  Se183  1  0.92166686  0.40628707  0.45718518  1
  Se  Se184  1  0.92548827  0.41385369  0.93501620  1
  Se  Se185  1  0.92518847  0.74272495  0.43687549  1
  Se  Se186  1  0.91960540  0.74879867  0.93645760  1
  Se  Se187  1  0.23661153  0.23896797  0.30824834  1
  Se  Se188  1  0.27860474  0.27285342  0.80540441  1
  Se  Se189  1  0.25114495  0.58279743  0.31735994  1
  Se  Se190  1  0.24848738  0.58685623  0.79837920  1
  Se  Se191  1  0.25208866  0.92311806  0.30459309  1
  Se  Se192  1  0.23776041  0.91440411  0.80370752  1
  Se  Se193  1  0.55257313  0.22296239  0.30782066  1
  Se  Se194  1  0.59208719  0.24728376  0.80953431  1
  Se  Se195  1  0.58456339  0.58037020  0.31771018  1
  Se  Se196  1  0.59135191  0.58788756  0.79579629  1
  Se  Se197  1  0.59184848  0.92325257  0.30030979  1
  Se  Se198  1  0.58091690  0.91699140  0.79797420  1
  Se  Se199  1  0.90825059  0.24663573  0.31534560  1
  Se  Se200  1  0.91916700  0.25546487  0.80065076  1
  Se  Se201  1  0.91787291  0.56763643  0.30546064  1
  Se  Se202  1  0.91792220  0.57952914  0.79769188  1
  Se  Se203  1  0.91880308  0.91569345  0.30460289  1
  Se  Se204  1  0.91071623  0.91325679  0.80197709  1
  Se  Se205  1  0.07844352  0.08035216  0.30003659  1
  Se  Se206  1  0.07697599  0.08324076  0.80247923  1
  Se  Se207  1  0.08862009  0.42019552  0.31354819  1
  Se  Se208  1  0.08079577  0.41585749  0.79131405  1
  Se  Se209  1  0.09439900  0.75197158  0.30689066  1
  Se  Se210  1  0.07394499  0.74317517  0.80143133  1
  Se  Se211  1  0.39999831  0.07692192  0.29512302  1
  Se  Se212  1  0.42170659  0.08637458  0.80407988  1
  Se  Se213  1  0.41873807  0.41176424  0.32042216  1
  Se  Se214  1  0.42677130  0.42256035  0.80235304  1
  Se  Se215  1  0.42931659  0.76285978  0.31121602  1
  Se  Se216  1  0.40546207  0.74954059  0.79227692  1
  Se  Se217  1  0.75194329  0.07853876  0.30084977  1
  Se  Se218  1  0.75071881  0.08836023  0.80275159  1
  Se  Se219  1  0.74378919  0.41431233  0.31633340  1
  Se  Se220  1  0.76185352  0.42439635  0.80990825  1
  Se  Se221  1  0.75765109  0.75341611  0.31688613  1
  Se  Se222  1  0.74752960  0.74599493  0.79480702  1
  Se  Se223  1  0.24855611  0.08241956  0.18804977  1
  Se  Se224  1  0.25480199  0.07032437  0.70851505  1
  Se  Se225  1  0.23784282  0.42974656  0.19725450  1
  Se  Se226  1  0.25364161  0.41780650  0.69667525  1
  Se  Se227  1  0.24665466  0.75841148  0.18627815  1
  Se  Se228  1  0.24204038  0.74984866  0.69487562  1
  Se  Se229  1  0.60322462  0.06143197  0.18964928  1
  Se  Se230  1  0.59151065  0.08964917  0.69497651  1
  Se  Se231  1  0.59107169  0.40635565  0.20977786  1
  Se  Se232  1  0.58209869  0.42403058  0.68526378  1
  Se  Se233  1  0.57761979  0.75403554  0.18528773  1
  Se  Se234  1  0.57735286  0.75899183  0.70344486  1
  Se  Se235  1  0.91878885  0.09221225  0.19654687  1
  Se  Se236  1  0.91770435  0.07963312  0.70027701  1
  Se  Se237  1  0.89985432  0.42556235  0.19342246  1
  Se  Se238  1  0.91846849  0.41138474  0.68510456  1
  Se  Se239  1  0.92797789  0.74571133  0.20287028  1
  Se  Se240  1  0.91797007  0.74871715  0.69663320  1
  Se  Se241  1  0.08327778  0.24786499  0.18946206  1
  Se  Se242  1  0.11055177  0.22525903  0.70236299  1
  Se  Se243  1  0.07963192  0.59317548  0.20298646  1
  Se  Se244  1  0.07789881  0.58551435  0.69181978  1
  Se  Se245  1  0.08750904  0.91827189  0.19179090  1
  Se  Se246  1  0.07692325  0.91798537  0.69637089  1
  Se  Se247  1  0.41244629  0.24414232  0.18353134  1
  Se  Se248  1  0.42222600  0.25223345  0.70207167  1
  Se  Se249  1  0.42587577  0.56709871  0.20363841  1
  Se  Se250  1  0.41189923  0.58582458  0.69614818  1
  Se  Se251  1  0.41331259  0.91493172  0.19634622  1
  Se  Se252  1  0.41733464  0.91870789  0.70259044  1
  Se  Se253  1  0.74473555  0.24875460  0.19548648  1
  Se  Se254  1  0.76831655  0.25221978  0.68152703  1
  Se  Se255  1  0.75667264  0.57906401  0.18798680  1
  Se  Se256  1  0.74826586  0.57892088  0.69265244  1
  Se  Se257  1  0.77517459  0.89248561  0.19996867  1
  Se  Se258  1  0.74765290  0.92409421  0.69623964  1
