# generated using pymatgen
data_In86Cu29Se144
_symmetry_space_group_name_H-M   'P 1'
_cell_length_a   17.58736593
_cell_length_b   17.58652920
_cell_length_c   23.44701073
_cell_angle_alpha   90.01945967
_cell_angle_beta   89.98523475
_cell_angle_gamma   89.98863372
_symmetry_Int_Tables_number   1
_chemical_formula_structural   In86Cu29Se144
_chemical_formula_sum   'In86 Cu29 Se144'
_cell_volume   7252.17660760
_cell_formula_units_Z   1
loop_
 _symmetry_equiv_pos_site_id
 _symmetry_equiv_pos_as_xyz
  1  'x, y, z'
loop_
 _atom_site_type_symbol
 _atom_site_label
 _atom_site_symmetry_multiplicity
 _atom_site_fract_x
 _atom_site_fract_y
 _atom_site_fract_z
 _atom_site_occupancy
  In  In0  1  -0.00619023  0.16332021  0.12654370  1
  In  In1  1  -0.01223141  0.17694709  0.62037097  1
  In  In2  1  0.00951384  0.49269102  0.13542683  1
  In  In3  1  0.01128017  0.49726204  0.62050326  1
  In  In4  1  -0.00129000  0.83349733  0.12609735  1
  In  In5  1  -0.01159433  0.83031193  0.62428920  1
  In  In6  1  0.32865740  0.18220372  0.12452258  1
  In  In7  1  0.33760016  0.16340987  0.64198505  1
  In  In8  1  0.33313119  0.50567526  0.11867536  1
  In  In9  1  0.31240666  0.50056519  0.62367744  1
  In  In10  1  0.31723750  0.83020591  0.11579111  1
  In  In11  1  0.34520425  0.83037270  0.63511630  1
  In  In12  1  0.68270965  0.15485383  0.13912657  1
  In  In13  1  0.68078460  0.16378203  0.63356781  1
  In  In14  1  0.66774546  0.49844607  0.13110280  1
  In  In15  1  0.66900121  0.49982092  0.63403569  1
  In  In16  1  0.67956697  0.82399000  0.12350637  1
  In  In17  1  0.66978870  0.83443470  0.63872458  1
  In  In18  1  0.16463574  0.01623570  0.37097662  1
  In  In19  1  0.16903778  -0.00722321  0.88209005  1
  In  In20  1  0.17407894  0.34040798  0.36271753  1
  In  In21  1  0.17061038  0.32522748  0.88381085  1
  In  In22  1  0.14884440  0.64576334  0.35783526  1
  In  In23  1  0.16869703  0.67480189  0.89211120  1
  In  In24  1  0.51107443  -0.01079188  0.37605415  1
  In  In25  1  0.51006580  -0.00259574  0.86395189  1
  In  In26  1  0.50214695  0.34034565  0.36987857  1
  In  In27  1  0.50440058  0.34450988  0.87848029  1
  In  In28  1  0.50161153  0.67340817  0.36420708  1
  In  In29  1  0.49237570  0.65263681  0.87943754  1
  In  In30  1  0.84274287  0.01390548  0.36011437  1
  In  In31  1  0.82415705  0.00852779  0.88202239  1
  In  In32  1  0.83664647  0.32851830  0.35801025  1
  In  In33  1  0.81910821  0.32805202  0.87671113  1
  In  In34  1  0.84518399  0.66404802  0.35713855  1
  In  In35  1  0.84577378  0.67211053  0.87405933  1
  In  In36  1  -0.00732299  0.15853220  0.36048043  1
  In  In37  1  -0.00563289  0.17232878  0.88444894  1
  In  In38  1  0.01165246  0.50579736  0.36018991  1
  In  In39  1  -0.00042966  0.51474421  0.87794797  1
  In  In40  1  -0.00638776  0.82724602  0.36703800  1
  In  In41  1  0.00877504  0.82457197  0.88390367  1
  In  In42  1  0.31978131  0.17201141  0.37006864  1
  In  In43  1  0.32691379  0.16080234  0.87140198  1
  In  In44  1  0.31858421  0.49082498  0.36933656  1
  In  In45  1  0.34267504  0.50051071  0.88960263  1
  In  In46  1  0.34716074  0.82958065  0.37147336  1
  In  In47  1  0.32199257  0.82485324  0.87847936  1
  In  In48  1  0.69227998  0.18762709  0.35030213  1
  In  In49  1  0.67352766  0.16727445  0.87182472  1
  In  In50  1  0.68029483  0.50535812  0.35714357  1
  In  In51  1  0.65643443  0.49093456  0.87551839  1
  In  In52  1  0.67119183  0.83917763  0.36343699  1
  In  In53  1  0.67613579  0.84435716  0.87171890  1
  In  In54  1  0.14962451  -0.00948289  0.11537723  1
  In  In55  1  0.16991575  0.01151763  0.63152871  1
  In  In56  1  0.16582225  0.33785460  0.12251659  1
  In  In57  1  0.16252587  0.34273587  0.62942305  1
  In  In58  1  0.17207028  0.66681497  0.12404934  1
  In  In59  1  0.16338391  0.65365028  0.62136409  1
  In  In60  1  0.50534255  0.00920424  0.12272142  1
  In  In61  1  0.50820416  -0.00850457  0.64492533  1
  In  In62  1  0.48944217  0.33715972  0.12895766  1
  In  In63  1  0.50494227  0.32593952  0.63231430  1
  In  In64  1  0.51258820  0.65173424  0.12379219  1
  In  In65  1  0.50675580  0.67217172  0.62955031  1
  In  In66  1  0.84002975  0.00529354  0.12865490  1
  In  In67  1  0.82890676  0.00602149  0.62315021  1
  In  In68  1  0.85108610  0.32004977  0.15230700  1
  In  In69  1  0.83507073  0.32140156  0.62262125  1
  In  In70  1  0.82450089  0.66877833  0.13174485  1
  In  In71  1  0.83396902  0.66394006  0.63574190  1
  In  In72  1  0.50462533  0.83375446  0.51401274  1
  In  In73  1  0.49647140  0.49615108  0.49812985  1
  In  In74  1  0.00022255  -0.00389592  0.74654554  1
  In  In75  1  0.50200160  0.16824046  0.50025411  1
  In  In76  1  0.33887818  0.66283882  0.75778875  1
  In  In77  1  0.49918727  0.83001355  -0.00922150  1
  In  In78  1  0.33430717  -0.00071180  0.24718906  1
  In  In79  1  0.83285841  0.49182020  0.00844072  1
  In  In80  1  0.15471786  0.17923080  0.50019432  1
  In  In81  1  0.16502715  0.82803881  0.49799552  1
  In  In82  1  0.50567531  0.17218442  -0.00223541  1
  In  In83  1  0.83169162  0.82746491  0.48653435  1
  In  In84  1  0.84339612  0.49671066  0.49144662  1
  In  In85  1  -0.00705874  0.33710652  0.74820784  1
  Cu  Cu86  1  0.67333459  0.66155592  0.00196680  1
  Cu  Cu87  1  -0.00760100  0.00613318  0.48841702  1
  Cu  Cu88  1  0.32352325  0.33606618  0.49962306  1
  Cu  Cu89  1  0.82747871  0.50543761  0.75653791  1
  Cu  Cu90  1  0.49576850  0.49462291  0.75580781  1
  Cu  Cu91  1  0.67887034  0.33020799  0.49045332  1
  Cu  Cu92  1  0.33353739  0.00257962  0.51210371  1
  Cu  Cu93  1  0.50066079  0.17883177  0.75717863  1
  Cu  Cu94  1  0.50019427  0.82391645  0.23909074  1
  Cu  Cu95  1  0.16575537  0.50052485  0.75329700  1
  Cu  Cu96  1  0.49957849  0.16590389  0.24723151  1
  Cu  Cu97  1  0.32671478  0.00621003  -0.00483190  1
  Cu  Cu98  1  -0.00367284  0.33519695  0.00981121  1
  Cu  Cu99  1  0.16613232  0.82540570  0.75901617  1
  Cu  Cu100  1  0.67674079  -0.00316501  0.00403640  1
  Cu  Cu101  1  0.16297358  0.17015803  0.24275334  1
  Cu  Cu102  1  0.84100535  0.83036179  0.75492276  1
  Cu  Cu103  1  0.83300123  0.83601851  0.24516720  1
  Cu  Cu104  1  0.66950185  0.32664684  0.00615704  1
  Cu  Cu105  1  0.17661663  0.50039644  0.24140940  1
  Cu  Cu106  1  0.67050946  0.67014946  0.49789384  1
  Cu  Cu107  1  0.16344610  0.83438585  0.24468408  1
  Cu  Cu108  1  -0.00474290  0.00042847  0.00150910  1
  Cu  Cu109  1  0.67603825  0.01794675  0.50064929  1
  Cu  Cu110  1  0.32207664  0.65648316  0.49399641  1
  Cu  Cu111  1  0.32815462  0.34000145  0.00359557  1
  Cu  Cu112  1  0.49333445  0.50170391  0.24904024  1
  Cu  Cu113  1  0.00337604  0.66802357  0.00684114  1
  Cu  Cu114  1  0.16816809  0.16563444  0.75802559  1
  Se  Se115  1  0.07762395  0.08842602  0.05243949  1
  Se  Se116  1  0.07216383  0.07485835  0.55746327  1
  Se  Se117  1  0.08204205  0.42295288  0.05434216  1
  Se  Se118  1  0.07228844  0.39729777  0.55441437  1
  Se  Se119  1  0.08617633  0.75380213  0.05828438  1
  Se  Se120  1  0.07194852  0.74202619  0.55692821  1
  Se  Se121  1  0.40746989  0.08257667  0.05601859  1
  Se  Se122  1  0.41962723  0.07862028  0.56831898  1
  Se  Se123  1  0.41959280  0.41777961  0.05273031  1
  Se  Se124  1  0.40869635  0.40834207  0.56175663  1
  Se  Se125  1  0.42117793  0.74734563  0.06197856  1
  Se  Se126  1  0.40319083  0.73382972  0.55650491  1
  Se  Se127  1  0.75361125  0.08573080  0.05711133  1
  Se  Se128  1  0.76050676  0.09852116  0.55306615  1
  Se  Se129  1  0.75139922  0.39896117  0.07009458  1
  Se  Se130  1  0.74517862  0.41778694  0.55505200  1
  Se  Se131  1  0.75860394  0.74641084  0.04972940  1
  Se  Se132  1  0.74633172  0.74854649  0.56096598  1
  Se  Se133  1  0.24476071  0.25110348  0.05059884  1
  Se  Se134  1  0.25726485  0.24923834  0.56480105  1
  Se  Se135  1  0.23938314  0.57676345  0.05181875  1
  Se  Se136  1  0.23799508  0.57386910  0.54561580  1
  Se  Se137  1  0.24562405  0.92078492  0.04810828  1
  Se  Se138  1  0.25321657  0.91693284  0.56511623  1
  Se  Se139  1  0.59045262  0.24795337  0.06925271  1
  Se  Se140  1  0.59573408  0.25863818  0.55602672  1
  Se  Se141  1  0.59337048  0.57332275  0.05114277  1
  Se  Se142  1  0.59028029  0.58874364  0.55575605  1
  Se  Se143  1  0.58735697  0.91851448  0.05671329  1
  Se  Se144  1  0.59995201  0.93382127  0.56230626  1
  Se  Se145  1  0.90987512  0.25648240  0.06282993  1
  Se  Se146  1  0.92875306  0.26762323  0.54817565  1
  Se  Se147  1  0.92191419  0.58569599  0.06501303  1
  Se  Se148  1  0.91930537  0.58967390  0.55998659  1
  Se  Se149  1  0.91524648  0.91782641  0.05770377  1
  Se  Se150  1  0.91813739  0.92267226  0.55037955  1
  Se  Se151  1  0.07775928  0.25366128  0.42464230  1
  Se  Se152  1  0.07868723  0.25280866  0.95192967  1
  Se  Se153  1  0.08103435  0.58068297  0.44055218  1
  Se  Se154  1  0.08335633  0.58248825  0.95253361  1
  Se  Se155  1  0.07919885  0.92424926  0.43645405  1
  Se  Se156  1  0.08222789  0.91659051  0.95088322  1
  Se  Se157  1  0.40550117  0.25732334  0.44085706  1
  Se  Se158  1  0.40743538  0.25678774  0.94201702  1
  Se  Se159  1  0.41294366  0.58784234  0.43445694  1
  Se  Se160  1  0.41654052  0.58906769  0.95833509  1
  Se  Se161  1  0.41220086  0.92264921  0.45042330  1
  Se  Se162  1  0.41138163  0.92996723  0.93703223  1
  Se  Se163  1  0.76094831  0.24922752  0.43603785  1
  Se  Se164  1  0.74824803  0.24336346  0.95021185  1
  Se  Se165  1  0.74909742  0.59333409  0.43606556  1
  Se  Se166  1  0.75268074  0.57980916  0.93935225  1
  Se  Se167  1  0.74308702  0.92779778  0.43837778  1
  Se  Se168  1  0.75671663  0.91111810  0.95017931  1
  Se  Se169  1  0.25614075  0.08101131  0.44916127  1
  Se  Se170  1  0.24193397  0.09126856  0.94577938  1
  Se  Se171  1  0.24061856  0.41654386  0.44529004  1
  Se  Se172  1  0.24452343  0.42076813  0.94853589  1
  Se  Se173  1  0.25386345  0.74510757  0.43298677  1
  Se  Se174  1  0.25910657  0.75005993  0.95834401  1
  Se  Se175  1  0.59182331  0.08632269  0.43591544  1
  Se  Se176  1  0.59135002  0.07286171  0.94391170  1
  Se  Se177  1  0.59750662  0.41729937  0.43753959  1
  Se  Se178  1  0.58757235  0.41283580  0.95482129  1
  Se  Se179  1  0.58798634  0.75194893  0.44107209  1
  Se  Se180  1  0.59694485  0.74061670  0.93747330  1
  Se  Se181  1  0.91042848  0.09172982  0.43948216  1
  Se  Se182  1  0.91217730  0.08641695  0.94976945  1
  Se  Se183  1  0.92701211  0.41069189  0.42614132  1
  Se  Se184  1  0.92197797  0.40874578  0.93921042  1
  Se  Se185  1  0.92763121  0.73139590  0.43976072  1
  Se  Se186  1  0.91835312  0.74812288  0.95176223  1
  Se  Se187  1  0.25114712  0.25058222  0.29353774  1
  Se  Se188  1  0.24974032  0.25485919  0.80605001  1
  Se  Se189  1  0.25701010  0.58548827  0.29746608  1
  Se  Se190  1  0.24452143  0.57871433  0.81685084  1
  Se  Se191  1  0.24326740  0.91081773  0.31093851  1
  Se  Se192  1  0.24781149  0.91316476  0.80824722  1
  Se  Se193  1  0.57762594  0.25318682  0.30088268  1
  Se  Se194  1  0.58524446  0.25653068  0.81250410  1
  Se  Se195  1  0.58178046  0.58533176  0.29959554  1
  Se  Se196  1  0.57839354  0.58019639  0.80729592  1
  Se  Se197  1  0.57497409  0.90978483  0.29702970  1
  Se  Se198  1  0.59542780  0.91902363  0.79819713  1
  Se  Se199  1  0.90743580  0.23274023  0.28915953  1
  Se  Se200  1  0.90786540  0.24373056  0.80764627  1
  Se  Se201  1  0.90900133  0.56428780  0.29212380  1
  Se  Se202  1  0.92005430  0.58531778  0.80177642  1
  Se  Se203  1  0.91925238  0.91676482  0.29937848  1
  Se  Se204  1  0.91819191  0.91242975  0.81598062  1
  Se  Se205  1  0.08426492  0.08052647  0.29355472  1
  Se  Se206  1  0.08234738  0.08687063  0.81335155  1
  Se  Se207  1  0.08900252  0.41615831  0.29159261  1
  Se  Se208  1  0.08462932  0.41955553  0.81294604  1
  Se  Se209  1  0.08017207  0.74984984  0.29836396  1
  Se  Se210  1  0.08659784  0.74058831  0.81229378  1
  Se  Se211  1  0.42283582  0.08661452  0.31330444  1
  Se  Se212  1  0.42154296  0.08771221  0.80620212  1
  Se  Se213  1  0.41247065  0.41620260  0.30370389  1
  Se  Se214  1  0.40975485  0.41807567  0.81155479  1
  Se  Se215  1  0.41303851  0.74817568  0.29433728  1
  Se  Se216  1  0.42700727  0.75797579  0.81274694  1
  Se  Se217  1  0.72258270  0.05694341  0.30700284  1
  Se  Se218  1  0.74612202  0.07598588  0.80416689  1
  Se  Se219  1  0.73758037  0.40051935  0.29526942  1
  Se  Se220  1  0.74781050  0.41700354  0.80646774  1
  Se  Se221  1  0.75179431  0.74993376  0.29972976  1
  Se  Se222  1  0.75532242  0.74979705  0.80766467  1
  Se  Se223  1  0.24381210  0.08335927  0.18455156  1
  Se  Se224  1  0.25153030  0.07848699  0.70724963  1
  Se  Se225  1  0.25821573  0.41491356  0.18885864  1
  Se  Se226  1  0.24893307  0.41608357  0.70120269  1
  Se  Se227  1  0.25146703  0.75340883  0.19570811  1
  Se  Se228  1  0.24284081  0.74660494  0.69255788  1
  Se  Se229  1  0.58223185  0.07798962  0.19964467  1
  Se  Se230  1  0.58176861  0.09633214  0.69910513  1
  Se  Se231  1  0.57578023  0.41812795  0.19551335  1
  Se  Se232  1  0.58155099  0.41723146  0.69787374  1
  Se  Se233  1  0.58943667  0.74503139  0.18914241  1
  Se  Se234  1  0.57836883  0.75552091  0.70003643  1
  Se  Se235  1  0.90409123  0.09893828  0.20147649  1
  Se  Se236  1  0.91040460  0.09401432  0.69419760  1
  Se  Se237  1  0.90332168  0.44091137  0.20221869  1
  Se  Se238  1  0.90539779  0.42961716  0.68887652  1
  Se  Se239  1  0.91682209  0.74956918  0.19529635  1
  Se  Se240  1  0.92288907  0.74715217  0.70018100  1
  Se  Se241  1  0.08070825  0.25337767  0.18923014  1
  Se  Se242  1  0.08751118  0.23996235  0.69409594  1
  Se  Se243  1  0.08917361  0.58802389  0.19635469  1
  Se  Se244  1  0.08284714  0.57965522  0.69629722  1
  Se  Se245  1  0.07906790  0.92058527  0.19665089  1
  Se  Se246  1  0.09442979  0.90288432  0.68940055  1
  Se  Se247  1  0.41273514  0.24938378  0.19921302  1
  Se  Se248  1  0.41347916  0.25874392  0.70347473  1
  Se  Se249  1  0.41575619  0.58526357  0.19170081  1
  Se  Se250  1  0.42026969  0.57161889  0.68776167  1
  Se  Se251  1  0.42024789  0.91016405  0.18228658  1
  Se  Se252  1  0.40909336  0.92082204  0.70489120  1
  Se  Se253  1  0.73590526  0.26004884  0.20486698  1
  Se  Se254  1  0.74503418  0.26566538  0.69675072  1
  Se  Se255  1  0.73949181  0.59008012  0.19873455  1
  Se  Se256  1  0.74292503  0.58949517  0.70247712  1
  Se  Se257  1  0.74938092  0.91810929  0.19144749  1
  Se  Se258  1  0.76508074  0.91618724  0.69652444  1
