# generated using pymatgen
data_In86Cu29Se144
_symmetry_space_group_name_H-M   'P 1'
_cell_length_a   17.58358962
_cell_length_b   17.58600880
_cell_length_c   23.44448091
_cell_angle_alpha   90.01643217
_cell_angle_beta   90.00072467
_cell_angle_gamma   90.03015471
_symmetry_Int_Tables_number   1
_chemical_formula_structural   In86Cu29Se144
_chemical_formula_sum   'In86 Cu29 Se144'
_cell_volume   7249.62209729
_cell_formula_units_Z   1
loop_
 _symmetry_equiv_pos_site_id
 _symmetry_equiv_pos_as_xyz
  1  'x, y, z'
loop_
 _atom_site_type_symbol
 _atom_site_label
 _atom_site_symmetry_multiplicity
 _atom_site_fract_x
 _atom_site_fract_y
 _atom_site_fract_z
 _atom_site_occupancy
  In  In0  1  -0.01016138  0.17053410  0.12195634  1
  In  In1  1  -0.01201892  0.17922619  0.62870357  1
  In  In2  1  0.01406225  0.50877090  0.11036235  1
  In  In3  1  0.01546763  0.49585382  0.63952190  1
  In  In4  1  -0.01376122  0.82662020  0.12572919  1
  In  In5  1  -0.00076791  0.83290333  0.62699025  1
  In  In6  1  0.34168369  0.15233349  0.12540000  1
  In  In7  1  0.33379721  0.16667172  0.63489864  1
  In  In8  1  0.33443711  0.51601693  0.12236953  1
  In  In9  1  0.29182022  0.53367805  0.66650766  1
  In  In10  1  0.33811698  0.82789481  0.12751472  1
  In  In11  1  0.33438633  0.83656959  0.62051336  1
  In  In12  1  0.66106740  0.18350983  0.12377433  1
  In  In13  1  0.66394334  0.15315503  0.62551067  1
  In  In14  1  0.67502561  0.49643758  0.12693086  1
  In  In15  1  0.67862339  0.50853937  0.62962363  1
  In  In16  1  0.65050615  0.83316483  0.12530779  1
  In  In17  1  0.66650762  0.83239409  0.62416100  1
  In  In18  1  0.17062303  -0.01534119  0.37925191  1
  In  In19  1  0.17262657  0.00435565  0.86136893  1
  In  In20  1  0.17500029  0.34168482  0.38474284  1
  In  In21  1  0.16372786  0.34246727  0.86791003  1
  In  In22  1  0.16675384  0.66874198  0.37786210  1
  In  In23  1  0.16099774  0.64753451  0.85596087  1
  In  In24  1  0.48525954  -0.00194147  0.37014219  1
  In  In25  1  0.49521052  -0.00821784  0.87807983  1
  In  In26  1  0.51045759  0.32202760  0.36805537  1
  In  In27  1  0.48646916  0.33505657  0.88029285  1
  In  In28  1  0.50817601  0.67016520  0.37047104  1
  In  In29  1  0.50734559  0.67851141  0.87139105  1
  In  In30  1  0.83056776  -0.00344250  0.38769076  1
  In  In31  1  0.83199816  0.00108601  0.86307714  1
  In  In32  1  0.82488901  0.33816979  0.37629630  1
  In  In33  1  0.84486340  0.33736492  0.87825193  1
  In  In34  1  0.83906728  0.66383422  0.37373252  1
  In  In35  1  0.82561320  0.66008521  0.87142884  1
  In  In36  1  0.00193299  0.15166990  0.38198786  1
  In  In37  1  0.00427219  0.17339486  0.85996770  1
  In  In38  1  0.00064046  0.51304754  0.37917467  1
  In  In39  1  -0.00096215  0.49750254  0.87214669  1
  In  In40  1  0.00771780  0.81952359  0.38812074  1
  In  In41  1  0.00087993  0.83545023  0.86157317  1
  In  In42  1  0.34888984  0.16238263  0.37291358  1
  In  In43  1  0.33797447  0.16429077  0.87448919  1
  In  In44  1  0.31605626  0.50221533  0.37970393  1
  In  In45  1  0.32076178  0.49390287  0.86419655  1
  In  In46  1  0.33331321  0.83004299  0.37784055  1
  In  In47  1  0.34282544  0.83735326  0.86736000  1
  In  In48  1  0.66091795  0.17664303  0.37090051  1
  In  In49  1  0.67072631  0.15257579  0.87567228  1
  In  In50  1  0.66931981  0.49602001  0.36333298  1
  In  In51  1  0.66851049  0.52234104  0.88546315  1
  In  In52  1  0.67412467  0.82347474  0.38363200  1
  In  In53  1  0.65039175  0.82007354  0.87205104  1
  In  In54  1  0.17823295  0.00627797  0.12415529  1
  In  In55  1  0.17873628  -0.00960076  0.63075691  1
  In  In56  1  0.15598560  0.34671771  0.11771844  1
  In  In57  1  0.15118914  0.35391873  0.64510839  1
  In  In58  1  0.17557211  0.66252030  0.12749087  1
  In  In59  1  0.15988376  0.67318591  0.62601823  1
  In  In60  1  0.48819476  -0.00770710  0.10994070  1
  In  In61  1  0.51051613  -0.00743459  0.63096210  1
  In  In62  1  0.51601808  0.33477400  0.11758174  1
  In  In63  1  0.48943131  0.32768297  0.62887631  1
  In  In64  1  0.49120087  0.67361135  0.13053960  1
  In  In65  1  0.48843189  0.68173890  0.63094896  1
  In  In66  1  0.83216416  -0.00127398  0.12428496  1
  In  In67  1  0.83085650  0.00036824  0.62491288  1
  In  In68  1  0.82043495  0.33961313  0.11766102  1
  In  In69  1  0.85724736  0.33600852  0.62140135  1
  In  In70  1  0.84108344  0.65755511  0.13256441  1
  In  In71  1  0.82670854  0.67689879  0.63350001  1
  In  In72  1  0.66313835  -0.00072858  0.24271927  1
  In  In73  1  0.84027065  0.50418478  0.50355638  1
  In  In74  1  0.49361650  0.50108048  0.50318127  1
  In  In75  1  0.66825307  0.33531741  0.75471083  1
  In  In76  1  0.50212739  0.16246778  0.49307985  1
  In  In77  1  0.34159155  0.33872665  0.24875827  1
  In  In78  1  0.17436666  0.83025292  -0.00601472  1
  In  In79  1  0.49868927  0.50352037  -0.00056627  1
  In  In80  1  0.15940669  0.16833786  0.50639393  1
  In  In81  1  0.82639970  0.82895597  -0.00192144  1
  In  In82  1  -0.00310179  0.33484482  0.24707393  1
  In  In83  1  0.17295602  0.17378360  -0.01366130  1
  In  In84  1  0.82820805  0.17347339  0.00130286  1
  In  In85  1  0.01059907  -0.01888414  0.26073937  1
  Cu  Cu86  1  0.32711036  0.66252693  -0.00407795  1
  Cu  Cu87  1  0.17895791  0.16732582  0.24605287  1
  Cu  Cu88  1  0.17189124  0.82871385  0.25474914  1
  Cu  Cu89  1  0.66359960  0.67065484  0.50161495  1
  Cu  Cu90  1  0.83320238  0.81735082  0.25590501  1
  Cu  Cu91  1  0.16482981  0.16196611  0.74800088  1
  Cu  Cu92  1  0.83310519  0.83857382  0.74619830  1
  Cu  Cu93  1  0.82975924  0.16899543  0.74677895  1
  Cu  Cu94  1  0.66800182  -0.00807123  0.50522265  1
  Cu  Cu95  1  0.00222687  0.66732459  0.50468291  1
  Cu  Cu96  1  0.32725389  0.34208513  0.50869021  1
  Cu  Cu97  1  0.49773850  0.15822385  0.75494947  1
  Cu  Cu98  1  0.32564792  0.66998309  0.50796585  1
  Cu  Cu99  1  0.83672378  0.16216305  0.24974285  1
  Cu  Cu100  1  0.32666793  0.33088208  -0.00544005  1
  Cu  Cu101  1  0.83160417  0.49813186  0.24883817  1
  Cu  Cu102  1  0.00473081  0.66317018  -0.00582823  1
  Cu  Cu103  1  0.67159670  0.32834350  0.49517068  1
  Cu  Cu104  1  0.83593221  0.50859892  0.75179825  1
  Cu  Cu105  1  0.16263895  0.51032063  0.25007717  1
  Cu  Cu106  1  0.33336839  -0.00189540  0.50107241  1
  Cu  Cu107  1  0.00488583  0.00921533  -0.00860051  1
  Cu  Cu108  1  0.49965047  0.50250823  0.24387803  1
  Cu  Cu109  1  0.50069590  0.83489321  0.74852190  1
  Cu  Cu110  1  0.65585165  -0.00310075  -0.00382239  1
  Cu  Cu111  1  0.50324357  0.50094237  0.75935220  1
  Cu  Cu112  1  0.17179681  0.82944909  0.74573038  1
  Cu  Cu113  1  0.49624966  0.83271053  0.25085798  1
  Cu  Cu114  1  -0.00428744  -0.00341606  0.50767934  1
  Se  Se115  1  0.08081163  0.08463017  0.05645605  1
  Se  Se116  1  0.07692424  0.07542506  0.56845642  1
  Se  Se117  1  0.08277372  0.41758602  0.04128301  1
  Se  Se118  1  0.07676304  0.41211829  0.56145123  1
  Se  Se119  1  0.07798104  0.74822930  0.05672177  1
  Se  Se120  1  0.08398264  0.75671289  0.55364999  1
  Se  Se121  1  0.41761581  0.08960078  0.04553559  1
  Se  Se122  1  0.41404687  0.07994148  0.55983894  1
  Se  Se123  1  0.40560638  0.41089511  0.05872287  1
  Se  Se124  1  0.40593272  0.42058850  0.56873279  1
  Se  Se125  1  0.40900725  0.74261025  0.05326229  1
  Se  Se126  1  0.41797961  0.75362924  0.55051375  1
  Se  Se127  1  0.73927085  0.07371402  0.05730275  1
  Se  Se128  1  0.74855110  0.08311208  0.55260241  1
  Se  Se129  1  0.74363571  0.42048939  0.04777222  1
  Se  Se130  1  0.74490677  0.40952854  0.55906936  1
  Se  Se131  1  0.74701528  0.74530778  0.06747360  1
  Se  Se132  1  0.75122889  0.74897751  0.55494040  1
  Se  Se133  1  0.25281512  0.25389638  0.06291247  1
  Se  Se134  1  0.25298060  0.25329975  0.56514867  1
  Se  Se135  1  0.24342500  0.58051172  0.04965950  1
  Se  Se136  1  0.25106530  0.58352818  0.56562716  1
  Se  Se137  1  0.26009692  0.92184306  0.05496599  1
  Se  Se138  1  0.24654293  0.91503956  0.55019870  1
  Se  Se139  1  0.58578190  0.25029940  0.04506947  1
  Se  Se140  1  0.58701706  0.25532764  0.55732700  1
  Se  Se141  1  0.58291134  0.58870619  0.06517544  1
  Se  Se142  1  0.58701483  0.58921950  0.56250545  1
  Se  Se143  1  0.57821359  0.90755919  0.04781819  1
  Se  Se144  1  0.57884648  0.91159336  0.55402789  1
  Se  Se145  1  0.92565754  0.26629498  0.05259126  1
  Se  Se146  1  0.91462876  0.24586846  0.54742664  1
  Se  Se147  1  0.91696921  0.58963907  0.05210474  1
  Se  Se148  1  0.92413068  0.59034208  0.56925771  1
  Se  Se149  1  0.92519676  0.92730529  0.05159010  1
  Se  Se150  1  0.91141025  0.91172432  0.55800948  1
  Se  Se151  1  0.07493778  0.25809369  0.44155275  1
  Se  Se152  1  0.07046698  0.25908690  0.93810814  1
  Se  Se153  1  0.08611384  0.58523358  0.45020361  1
  Se  Se154  1  0.08763112  0.58278853  0.93914614  1
  Se  Se155  1  0.08055836  0.91871645  0.45049759  1
  Se  Se156  1  0.08175322  0.92351196  0.93553720  1
  Se  Se157  1  0.40872328  0.26641614  0.44475991  1
  Se  Se158  1  0.41362384  0.24548945  0.94952215  1
  Se  Se159  1  0.40626379  0.59333252  0.44261677  1
  Se  Se160  1  0.40839706  0.58515360  0.93330778  1
  Se  Se161  1  0.41673093  0.91677934  0.44605904  1
  Se  Se162  1  0.42341823  0.89905105  0.94620305  1
  Se  Se163  1  0.75197445  0.24362567  0.44260730  1
  Se  Se164  1  0.74029531  0.25862727  0.93758544  1
  Se  Se165  1  0.73990995  0.58297859  0.44277458  1
  Se  Se166  1  0.75432763  0.59623303  0.95437430  1
  Se  Se167  1  0.75284920  0.90773071  0.45338561  1
  Se  Se168  1  0.74419152  0.92389277  0.93671266  1
  Se  Se169  1  0.25639890  0.08413603  0.44248560  1
  Se  Se170  1  0.25773561  0.06744046  0.94207854  1
  Se  Se171  1  0.24345986  0.42720366  0.45823691  1
  Se  Se172  1  0.24747694  0.41706931  0.94213557  1
  Se  Se173  1  0.24690894  0.75249516  0.44799277  1
  Se  Se174  1  0.25137641  0.73719835  0.92850704  1
  Se  Se175  1  0.59339867  0.06929389  0.43673748  1
  Se  Se176  1  0.57748512  0.08365569  0.94333270  1
  Se  Se177  1  0.58861471  0.41229649  0.44088838  1
  Se  Se178  1  0.58847983  0.41396205  0.93950115  1
  Se  Se179  1  0.57698942  0.75012279  0.44826246  1
  Se  Se180  1  0.58647528  0.74212773  0.95096061  1
  Se  Se181  1  0.91545927  0.08124711  0.45303243  1
  Se  Se182  1  0.91832056  0.08580133  0.93557931  1
  Se  Se183  1  0.92418327  0.41108385  0.44154871  1
  Se  Se184  1  0.90663309  0.43377413  0.94541456  1
  Se  Se185  1  0.91137026  0.74331157  0.45039624  1
  Se  Se186  1  0.92692269  0.75038899  0.93837959  1
  Se  Se187  1  0.24838114  0.24959032  0.31111236  1
  Se  Se188  1  0.24230255  0.24064459  0.81134327  1
  Se  Se189  1  0.24920769  0.58754379  0.30528342  1
  Se  Se190  1  0.25843868  0.58141002  0.78744534  1
  Se  Se191  1  0.25436856  0.91585629  0.30525759  1
  Se  Se192  1  0.25436720  0.91427328  0.79898744  1
  Se  Se193  1  0.58726886  0.24820617  0.29378462  1
  Se  Se194  1  0.57654080  0.24420722  0.81292203  1
  Se  Se195  1  0.58396634  0.58243658  0.30117615  1
  Se  Se196  1  0.58843082  0.58688103  0.80635501  1
  Se  Se197  1  0.58270299  0.90911825  0.31034815  1
  Se  Se198  1  0.58260868  0.91681728  0.80528611  1
  Se  Se199  1  0.91638489  0.23974731  0.31155572  1
  Se  Se200  1  0.91036820  0.25533932  0.79998919  1
  Se  Se201  1  0.91696523  0.57841390  0.30328024  1
  Se  Se202  1  0.92066709  0.59055735  0.80493233  1
  Se  Se203  1  0.90824196  0.90280877  0.31670249  1
  Se  Se204  1  0.91992555  0.92322185  0.79626024  1
  Se  Se205  1  0.09874081  0.08797713  0.30824555  1
  Se  Se206  1  0.07693088  0.07691109  0.79679631  1
  Se  Se207  1  0.09032115  0.42132410  0.30892283  1
  Se  Se208  1  0.08067906  0.42064698  0.79905728  1
  Se  Se209  1  0.08275034  0.75126630  0.30760742  1
  Se  Se210  1  0.08514304  0.74930010  0.79802976  1
  Se  Se211  1  0.42925415  0.09397205  0.29880020  1
  Se  Se212  1  0.41333348  0.07446855  0.80645309  1
  Se  Se213  1  0.42531991  0.42889208  0.31513616  1
  Se  Se214  1  0.41696752  0.41324653  0.80349004  1
  Se  Se215  1  0.41554528  0.74900717  0.30677494  1
  Se  Se216  1  0.41797195  0.74680566  0.79892762  1
  Se  Se217  1  0.75720098  0.08093371  0.30840638  1
  Se  Se218  1  0.74587930  0.08337820  0.79646546  1
  Se  Se219  1  0.75004529  0.40773455  0.29721019  1
  Se  Se220  1  0.75342918  0.42988851  0.81325174  1
  Se  Se221  1  0.74459102  0.74007757  0.30853778  1
  Se  Se222  1  0.75499053  0.75902883  0.80771552  1
  Se  Se223  1  0.25949374  0.07746490  0.19939719  1
  Se  Se224  1  0.25341474  0.07905845  0.70034846  1
  Se  Se225  1  0.24232244  0.42515329  0.19191036  1
  Se  Se226  1  0.27309848  0.39366641  0.69680900  1
  Se  Se227  1  0.25312192  0.74810877  0.19654445  1
  Se  Se228  1  0.25627684  0.75083450  0.69018152  1
  Se  Se229  1  0.57613599  0.08375236  0.18008882  1
  Se  Se230  1  0.58506667  0.08117231  0.70089046  1
  Se  Se231  1  0.58314297  0.41766466  0.19378949  1
  Se  Se232  1  0.57854090  0.42374243  0.69107951  1
  Se  Se233  1  0.58197525  0.74920069  0.20001338  1
  Se  Se234  1  0.58639945  0.75041633  0.69659077  1
  Se  Se235  1  0.92116503  0.07716889  0.19758939  1
  Se  Se236  1  0.91340785  0.08508098  0.69398496  1
  Se  Se237  1  0.91355014  0.42495979  0.18432318  1
  Se  Se238  1  0.91531282  0.41979079  0.70047582  1
  Se  Se239  1  0.92341175  0.74266388  0.20219581  1
  Se  Se240  1  0.91947777  0.75117876  0.69959732  1
  Se  Se241  1  0.09256524  0.24211750  0.18939708  1
  Se  Se242  1  0.07885084  0.24794535  0.70015475  1
  Se  Se243  1  0.07946313  0.58650100  0.19147695  1
  Se  Se244  1  0.09143543  0.58800404  0.70198408  1
  Se  Se245  1  0.09510828  0.90424319  0.18602789  1
  Se  Se246  1  0.08544697  0.91450114  0.69567325  1
  Se  Se247  1  0.42562120  0.24998274  0.18644210  1
  Se  Se248  1  0.41848703  0.24692882  0.70390195  1
  Se  Se249  1  0.41033271  0.58726491  0.19986333  1
  Se  Se250  1  0.42657636  0.58113820  0.69763815  1
  Se  Se251  1  0.42068562  0.91709736  0.19222834  1
  Se  Se252  1  0.41577408  0.91662819  0.69373184  1
  Se  Se253  1  0.76118473  0.24510868  0.19126756  1
  Se  Se254  1  0.75234505  0.25153539  0.68541099  1
  Se  Se255  1  0.74713078  0.58412922  0.19911851  1
  Se  Se256  1  0.74712351  0.59136097  0.70393380  1
  Se  Se257  1  0.76153086  0.90223032  0.19306289  1
  Se  Se258  1  0.74577423  0.91874900  0.69355656  1
