# generated using pymatgen
data_In86Cu29Se144
_symmetry_space_group_name_H-M   'P 1'
_cell_length_a   17.57091078
_cell_length_b   17.57026208
_cell_length_c   23.42849269
_cell_angle_alpha   89.97353186
_cell_angle_beta   90.00831062
_cell_angle_gamma   90.01675740
_symmetry_Int_Tables_number   1
_chemical_formula_structural   In86Cu29Se144
_chemical_formula_sum   'In86 Cu29 Se144'
_cell_volume   7232.97213545
_cell_formula_units_Z   1
loop_
 _symmetry_equiv_pos_site_id
 _symmetry_equiv_pos_as_xyz
  1  'x, y, z'
loop_
 _atom_site_type_symbol
 _atom_site_label
 _atom_site_symmetry_multiplicity
 _atom_site_fract_x
 _atom_site_fract_y
 _atom_site_fract_z
 _atom_site_occupancy
  In  In0  1  0.01931430  0.17164684  0.13019777  1
  In  In1  1  0.00489195  0.17227623  0.62875072  1
  In  In2  1  0.00559830  0.48374464  0.13374341  1
  In  In3  1  -0.00562955  0.49446169  0.61657327  1
  In  In4  1  -0.00787283  0.84599444  0.12211236  1
  In  In5  1  0.01324897  0.84597285  0.61366589  1
  In  In6  1  0.33732123  0.16155140  0.13525967  1
  In  In7  1  0.32948595  0.16683548  0.62186966  1
  In  In8  1  0.31994775  0.50242018  0.14568279  1
  In  In9  1  0.32054533  0.50367497  0.62663688  1
  In  In10  1  0.32954700  0.83649106  0.14074523  1
  In  In11  1  0.31731695  0.84669924  0.62937349  1
  In  In12  1  0.64666766  0.17199118  0.12524217  1
  In  In13  1  0.67562764  0.17318028  0.61451890  1
  In  In14  1  0.67413268  0.50777440  0.13251406  1
  In  In15  1  0.66122852  0.48460834  0.62080304  1
  In  In16  1  0.67310214  0.83210735  0.13144926  1
  In  In17  1  0.67213008  0.82912229  0.62225047  1
  In  In18  1  0.17612108  -0.00241916  0.37701942  1
  In  In19  1  0.16932773  0.00835599  0.85979440  1
  In  In20  1  0.16641789  0.33254517  0.37527384  1
  In  In21  1  0.17168918  0.33359448  0.86358898  1
  In  In22  1  0.17499574  0.66205284  0.37858885  1
  In  In23  1  0.16462495  0.65073859  0.87846264  1
  In  In24  1  0.49846016  0.00395642  0.37298673  1
  In  In25  1  0.49626999  0.01281332  0.87904914  1
  In  In26  1  0.47484344  0.33210961  0.37104004  1
  In  In27  1  0.48901691  0.32027693  0.86612081  1
  In  In28  1  0.49408957  0.64762957  0.35514454  1
  In  In29  1  0.48841292  0.67375604  0.87792998  1
  In  In30  1  0.82857789  0.00224883  0.38224341  1
  In  In31  1  0.84069124  -0.00632445  0.87483192  1
  In  In32  1  0.84445038  0.32563703  0.38372958  1
  In  In33  1  0.83382124  0.33852371  0.86234850  1
  In  In34  1  0.82755590  0.67079198  0.37948623  1
  In  In35  1  0.84369923  0.67507496  0.87596966  1
  In  In36  1  -0.00243716  0.17319410  0.38064487  1
  In  In37  1  0.00521066  0.17077191  0.85668236  1
  In  In38  1  0.01976790  0.48103235  0.38562425  1
  In  In39  1  0.01252476  0.50325391  0.87684674  1
  In  In40  1  0.00353157  0.83224741  0.38466408  1
  In  In41  1  -0.00659215  0.83782942  0.87735753  1
  In  In42  1  0.32654316  0.17277381  0.37703099  1
  In  In43  1  0.32838146  0.17291908  0.86593739  1
  In  In44  1  0.31154689  0.48011572  0.35297136  1
  In  In45  1  0.32320631  0.48823096  0.86801809  1
  In  In46  1  0.31832555  0.83019720  0.36275940  1
  In  In47  1  0.33042422  0.82987572  0.87096862  1
  In  In48  1  0.67332726  0.15695225  0.38310360  1
  In  In49  1  0.65446487  0.16604550  0.87268731  1
  In  In50  1  0.65958928  0.51187576  0.37347445  1
  In  In51  1  0.67703619  0.49768458  0.87180564  1
  In  In52  1  0.66683472  0.83626618  0.37114779  1
  In  In53  1  0.67860548  0.84747887  0.87674392  1
  In  In54  1  0.17683991  0.00543558  0.13023760  1
  In  In55  1  0.16645269  0.00489706  0.62516029  1
  In  In56  1  0.16560271  0.33583150  0.13791900  1
  In  In57  1  0.16301052  0.32865052  0.62705163  1
  In  In58  1  0.18318577  0.66380080  0.13323029  1
  In  In59  1  0.17070524  0.67276077  0.61476898  1
  In  In60  1  0.48535089  0.01946374  0.13358989  1
  In  In61  1  0.47777952  0.00712268  0.62600373  1
  In  In62  1  0.49400293  0.31808067  0.11867790  1
  In  In63  1  0.50580963  0.32405534  0.62733936  1
  In  In64  1  0.49123320  0.66652601  0.13950864  1
  In  In65  1  0.48805937  0.65326549  0.62272875  1
  In  In66  1  0.84187028  -0.01676666  0.12541250  1
  In  In67  1  0.84774195  0.01332823  0.61375883  1
  In  In68  1  0.83556079  0.33931972  0.13024211  1
  In  In69  1  0.83500421  0.33249193  0.62139515  1
  In  In70  1  0.82703228  0.67513950  0.12944496  1
  In  In71  1  0.84060486  0.67170463  0.61241818  1
  In  In72  1  0.00093267  0.66557146  0.75218734  1
  In  In73  1  0.01049515  0.00477171  0.24905847  1
  In  In74  1  0.50210381  0.83699991  0.00456147  1
  In  In75  1  0.66380324  0.00050191  0.75404991  1
  In  In76  1  0.65887364  0.65788129  0.74801099  1
  In  In77  1  0.16822139  0.16148279  -0.00257711  1
  In  In78  1  0.49575573  0.49640420  0.49195627  1
  In  In79  1  0.00876291  0.66005486  0.26212798  1
  In  In80  1  0.50101323  0.83537852  0.49270420  1
  In  In81  1  0.16725371  0.83765282  0.00684467  1
  In  In82  1  0.83535321  0.15997972  -0.00560282  1
  In  In83  1  0.66116830  0.33702086  0.24935218  1
  In  In84  1  0.49912587  0.49706063  0.01087710  1
  In  In85  1  0.83695512  0.49972163  0.00975518  1
  Cu  Cu86  1  0.67101956  0.32949664  0.49992256  1
  Cu  Cu87  1  0.32492590  0.00680115  0.50149110  1
  Cu  Cu88  1  0.16433152  0.49615854  0.74865555  1
  Cu  Cu89  1  0.32491292  0.32944558  -0.00619095  1
  Cu  Cu90  1  0.83214917  0.16172462  0.25839956  1
  Cu  Cu91  1  0.83715148  0.49944151  0.25499182  1
  Cu  Cu92  1  0.83903224  0.83934495  0.74741879  1
  Cu  Cu93  1  0.48738025  0.49297887  0.74740234  1
  Cu  Cu94  1  0.66232961  -0.00329435  0.49599717  1
  Cu  Cu95  1  0.67102878  -0.00054703  0.00384331  1
  Cu  Cu96  1  0.83106712  0.49154323  0.73989131  1
  Cu  Cu97  1  0.67209224  0.66907257  0.49373995  1
  Cu  Cu98  1  0.49968870  0.16262772  0.25481943  1
  Cu  Cu99  1  0.65493662  0.32930893  -0.00541248  1
  Cu  Cu100  1  0.00490678  0.32981500  0.50422922  1
  Cu  Cu101  1  0.83272301  0.17244402  0.73978147  1
  Cu  Cu102  1  0.48727654  0.82669688  0.75026025  1
  Cu  Cu103  1  0.00253836  0.66804281  -0.00061507  1
  Cu  Cu104  1  0.83377559  0.83415073  0.25578419  1
  Cu  Cu105  1  0.00568486  0.33354334  0.00390377  1
  Cu  Cu106  1  0.33310925  0.67287133  0.49618407  1
  Cu  Cu107  1  0.16749906  0.83177558  0.74246183  1
  Cu  Cu108  1  0.00107086  0.00483484  0.49948731  1
  Cu  Cu109  1  0.49786278  0.16805747  0.74740469  1
  Cu  Cu110  1  0.50774879  0.84069756  0.25120208  1
  Cu  Cu111  1  0.33017836  0.65758886  0.00905696  1
  Cu  Cu112  1  0.32672152  0.33336586  0.49904581  1
  Cu  Cu113  1  -0.00066918  0.66317097  0.49477725  1
  Cu  Cu114  1  0.67521507  0.67783181  0.00654389  1
  Se  Se115  1  0.07663750  0.07129325  0.05838856  1
  Se  Se116  1  0.08200833  0.08652888  0.55666960  1
  Se  Se117  1  0.08881459  0.41254350  0.05970048  1
  Se  Se118  1  0.08891505  0.41639963  0.55475794  1
  Se  Se119  1  0.08036890  0.74214602  0.06647941  1
  Se  Se120  1  0.08216001  0.74939017  0.54770231  1
  Se  Se121  1  0.41374982  0.09266118  0.05591556  1
  Se  Se122  1  0.41561501  0.08886578  0.54792604  1
  Se  Se123  1  0.39887622  0.40892992  0.06056969  1
  Se  Se124  1  0.41091357  0.41206446  0.55999928  1
  Se  Se125  1  0.40941383  0.74489701  0.06262037  1
  Se  Se126  1  0.41076948  0.75100568  0.55903609  1
  Se  Se127  1  0.74690972  0.08307414  0.06525215  1
  Se  Se128  1  0.74846414  0.08003797  0.54856357  1
  Se  Se129  1  0.73480190  0.40569209  0.05804279  1
  Se  Se130  1  0.75201069  0.41695654  0.55117314  1
  Se  Se131  1  0.75920587  0.76223177  0.05569027  1
  Se  Se132  1  0.75103852  0.75443957  0.54857781  1
  Se  Se133  1  0.25006016  0.25333034  0.06145515  1
  Se  Se134  1  0.24558123  0.24976314  0.55400781  1
  Se  Se135  1  0.24989455  0.57192156  0.06169210  1
  Se  Se136  1  0.25256855  0.58452319  0.54902305  1
  Se  Se137  1  0.26592374  0.92466129  0.06011234  1
  Se  Se138  1  0.24247279  0.91733634  0.55108035  1
  Se  Se139  1  0.57405620  0.24229163  0.04439781  1
  Se  Se140  1  0.58070397  0.24913251  0.54993538  1
  Se  Se141  1  0.59152204  0.59734509  0.06234069  1
  Se  Se142  1  0.58924254  0.58934767  0.55344927  1
  Se  Se143  1  0.58728092  0.92703416  0.06668958  1
  Se  Se144  1  0.58331772  0.92356326  0.56277366  1
  Se  Se145  1  0.92028150  0.25343792  0.05946043  1
  Se  Se146  1  0.91853223  0.24629224  0.55579800  1
  Se  Se147  1  0.92758030  0.59063093  0.06772663  1
  Se  Se148  1  0.91500689  0.57960522  0.54730909  1
  Se  Se149  1  0.92160269  0.92226028  0.04587967  1
  Se  Se150  1  0.91563584  0.91526747  0.54806305  1
  Se  Se151  1  0.08819932  0.24966768  0.44787057  1
  Se  Se152  1  0.07737714  0.25356822  0.93836201  1
  Se  Se153  1  0.08996649  0.58206506  0.44740597  1
  Se  Se154  1  0.08555038  0.57793697  0.95475311  1
  Se  Se155  1  0.08579225  0.92252157  0.44653739  1
  Se  Se156  1  0.08793718  0.92412414  0.93736299  1
  Se  Se157  1  0.41405649  0.24992235  0.44982631  1
  Se  Se158  1  0.40989534  0.24718913  0.94184826  1
  Se  Se159  1  0.40633486  0.58838310  0.43560783  1
  Se  Se160  1  0.40882209  0.58139107  0.94451800  1
  Se  Se161  1  0.40257195  0.92294135  0.44019832  1
  Se  Se162  1  0.40966678  0.91956820  0.94228342  1
  Se  Se163  1  0.75531499  0.24410412  0.44874301  1
  Se  Se164  1  0.74706660  0.25874829  0.93757226  1
  Se  Se165  1  0.75100752  0.57667807  0.44571689  1
  Se  Se166  1  0.74834924  0.59220756  0.94499787  1
  Se  Se167  1  0.74661624  0.91110908  0.44653453  1
  Se  Se168  1  0.75797231  0.92108791  0.95054528  1
  Se  Se169  1  0.24303262  0.09164510  0.44749494  1
  Se  Se170  1  0.25862162  0.07369615  0.93780453  1
  Se  Se171  1  0.25049729  0.42088948  0.44292774  1
  Se  Se172  1  0.24165621  0.41361653  0.94187735  1
  Se  Se173  1  0.24903305  0.75774731  0.44476629  1
  Se  Se174  1  0.25389341  0.73975734  0.94652056  1
  Se  Se175  1  0.57726646  0.08223297  0.44743496  1
  Se  Se176  1  0.58866806  0.08133090  0.94869137  1
  Se  Se177  1  0.58909057  0.40438441  0.43620544  1
  Se  Se178  1  0.58143594  0.41640991  0.93635771  1
  Se  Se179  1  0.58116582  0.73629759  0.43330062  1
  Se  Se180  1  0.59380051  0.74722045  0.94032025  1
  Se  Se181  1  0.91486358  0.08629115  0.44691557  1
  Se  Se182  1  0.93440922  0.08220130  0.93547495  1
  Se  Se183  1  0.92021203  0.41511788  0.45185755  1
  Se  Se184  1  0.92076080  0.41066094  0.94332223  1
  Se  Se185  1  0.91367629  0.75085123  0.44772655  1
  Se  Se186  1  0.91845009  0.75315012  0.95016120  1
  Se  Se187  1  0.27314869  0.27737301  0.30682748  1
  Se  Se188  1  0.23191114  0.23486501  0.79599347  1
  Se  Se189  1  0.25156568  0.59334473  0.29975066  1
  Se  Se190  1  0.24622321  0.58176172  0.80277166  1
  Se  Se191  1  0.25413811  0.93069571  0.29825726  1
  Se  Se192  1  0.25013446  0.91144119  0.80114327  1
  Se  Se193  1  0.57987218  0.24513498  0.31464808  1
  Se  Se194  1  0.58534295  0.25055599  0.79871839  1
  Se  Se195  1  0.59837500  0.58655039  0.29204778  1
  Se  Se196  1  0.56705444  0.57158197  0.81172963  1
  Se  Se197  1  0.58731836  0.92528448  0.30571795  1
  Se  Se198  1  0.57081376  0.90503599  0.81047272  1
  Se  Se199  1  0.91589142  0.24849859  0.30556532  1
  Se  Se200  1  0.91573942  0.25603881  0.79536414  1
  Se  Se201  1  0.91639005  0.57252504  0.32050881  1
  Se  Se202  1  0.90458503  0.57155587  0.80714624  1
  Se  Se203  1  0.91777408  0.91578397  0.31102072  1
  Se  Se204  1  0.92330463  0.92018488  0.80090083  1
  Se  Se205  1  0.09190636  0.09507812  0.31238040  1
  Se  Se206  1  0.08635978  0.08641178  0.79125249  1
  Se  Se207  1  0.08196015  0.41001719  0.30324235  1
  Se  Se208  1  0.07704421  0.41723726  0.80255598  1
  Se  Se209  1  0.09405478  0.76182630  0.31188833  1
  Se  Se210  1  0.09218800  0.75584761  0.81180703  1
  Se  Se211  1  0.40990899  0.08655881  0.30856330  1
  Se  Se212  1  0.41781875  0.08423321  0.80349283  1
  Se  Se213  1  0.44495061  0.44960517  0.31121473  1
  Se  Se214  1  0.40656659  0.40642380  0.80036730  1
  Se  Se215  1  0.42357276  0.75890002  0.30532235  1
  Se  Se216  1  0.40631845  0.74008075  0.80196899  1
  Se  Se217  1  0.74779049  0.07770126  0.30703264  1
  Se  Se218  1  0.75999770  0.09328471  0.80869451  1
  Se  Se219  1  0.75555840  0.41667483  0.31399437  1
  Se  Se220  1  0.74268909  0.41538199  0.79539899  1
  Se  Se221  1  0.74928157  0.74815231  0.30480547  1
  Se  Se222  1  0.75508997  0.75540314  0.80257373  1
  Se  Se223  1  0.23442030  0.10090041  0.19970277  1
  Se  Se224  1  0.27619700  0.05943189  0.68722593  1
  Se  Se225  1  0.26935718  0.38956971  0.20754253  1
  Se  Se226  1  0.24832494  0.41342016  0.69538254  1
  Se  Se227  1  0.25363290  0.74676022  0.20543933  1
  Se  Se228  1  0.24931052  0.74392767  0.69260250  1
  Se  Se229  1  0.58636594  0.08337074  0.20091090  1
  Se  Se230  1  0.58045775  0.08808284  0.68770410  1
  Se  Se231  1  0.57335630  0.42055675  0.18372587  1
  Se  Se232  1  0.57924779  0.41671391  0.69641642  1
  Se  Se233  1  0.58456983  0.75206926  0.19705896  1
  Se  Se234  1  0.57105811  0.75384752  0.68845079  1
  Se  Se235  1  0.91214583  0.09073509  0.18963637  1
  Se  Se236  1  0.91740734  0.08393296  0.69436825  1
  Se  Se237  1  0.91685528  0.41182780  0.20403918  1
  Se  Se238  1  0.92150298  0.41255544  0.69142310  1
  Se  Se239  1  0.91993111  0.75526026  0.19854269  1
  Se  Se240  1  0.91736988  0.75684370  0.68788867  1
  Se  Se241  1  0.07296351  0.26162659  0.20471329  1
  Se  Se242  1  0.09731362  0.23824598  0.70093542  1
  Se  Se243  1  0.09359675  0.57220415  0.19721361  1
  Se  Se244  1  0.08644402  0.57920131  0.68732930  1
  Se  Se245  1  0.09371392  0.90518868  0.19129696  1
  Se  Se246  1  0.08268312  0.91758794  0.69425736  1
  Se  Se247  1  0.42172111  0.24993834  0.20005751  1
  Se  Se248  1  0.41305855  0.24949884  0.69313348  1
  Se  Se249  1  0.41488493  0.58020460  0.20566920  1
  Se  Se250  1  0.40795864  0.58237537  0.69730575  1
  Se  Se251  1  0.41901827  0.92222809  0.20074057  1
  Se  Se252  1  0.41167725  0.91681131  0.69792379  1
  Se  Se253  1  0.75370020  0.24088924  0.19267104  1
  Se  Se254  1  0.74499785  0.25439575  0.69084428  1
  Se  Se255  1  0.75817456  0.58587614  0.20172144  1
  Se  Se256  1  0.75567560  0.58108759  0.68403394  1
  Se  Se257  1  0.75414188  0.91865362  0.19992330  1
  Se  Se258  1  0.75584524  0.91829389  0.68878878  1
