# generated using pymatgen
data_In86Cu29Se144
_symmetry_space_group_name_H-M   'P 1'
_cell_length_a   17.57547063
_cell_length_b   17.57385082
_cell_length_c   23.43342549
_cell_angle_alpha   90.00942241
_cell_angle_beta   90.00756225
_cell_angle_gamma   90.00067598
_symmetry_Int_Tables_number   1
_chemical_formula_structural   In86Cu29Se144
_chemical_formula_sum   'In86 Cu29 Se144'
_cell_volume   7237.85148048
_cell_formula_units_Z   1
loop_
 _symmetry_equiv_pos_site_id
 _symmetry_equiv_pos_as_xyz
  1  'x, y, z'
loop_
 _atom_site_type_symbol
 _atom_site_label
 _atom_site_symmetry_multiplicity
 _atom_site_fract_x
 _atom_site_fract_y
 _atom_site_fract_z
 _atom_site_occupancy
  In  In0  1  0.00446608  0.14383257  0.12207496  1
  In  In1  1  -0.00053703  0.16791382  0.63003278  1
  In  In2  1  0.01336718  0.51206584  0.11711241  1
  In  In3  1  -0.01079508  0.49973452  0.63090321  1
  In  In4  1  -0.00493596  0.83604486  0.11826199  1
  In  In5  1  0.01815981  0.83823870  0.62552930  1
  In  In6  1  0.33387167  0.16539003  0.12367479  1
  In  In7  1  0.32154233  0.15742974  0.61651408  1
  In  In8  1  0.32846548  0.49041213  0.13267758  1
  In  In9  1  0.33591888  0.49948169  0.63008062  1
  In  In10  1  0.31751178  0.84688781  0.13151115  1
  In  In11  1  0.34404458  0.83617172  0.62126267  1
  In  In12  1  0.65351088  0.17919064  0.13340093  1
  In  In13  1  0.67440823  0.17590862  0.61164733  1
  In  In14  1  0.64485636  0.47282126  0.09871628  1
  In  In15  1  0.65989307  0.47104271  0.63023282  1
  In  In16  1  0.68343580  0.84033049  0.12352778  1
  In  In17  1  0.66272398  0.85338424  0.62375469  1
  In  In18  1  0.17282663  0.00968371  0.36447016  1
  In  In19  1  0.16807791  0.00233101  0.87968681  1
  In  In20  1  0.16385980  0.31855965  0.37208249  1
  In  In21  1  0.15428069  0.34331665  0.88316289  1
  In  In22  1  0.16729221  0.66561144  0.35167828  1
  In  In23  1  0.16971466  0.66554576  0.88488029  1
  In  In24  1  0.49572650  0.00050146  0.36986372  1
  In  In25  1  0.50141872  0.01931678  0.87682242  1
  In  In26  1  0.49829900  0.32948857  0.37140295  1
  In  In27  1  0.50380894  0.33334354  0.88352671  1
  In  In28  1  0.49901605  0.67760967  0.37123640  1
  In  In29  1  0.48612715  0.66302269  0.87997984  1
  In  In30  1  0.84303545  0.01588419  0.36707312  1
  In  In31  1  0.83281612  -0.01050240  0.88487290  1
  In  In32  1  0.82357321  0.32861659  0.36862184  1
  In  In33  1  0.83929746  0.33054696  0.87590168  1
  In  In34  1  0.83680230  0.65458933  0.36556577  1
  In  In35  1  0.83953269  0.66635924  0.88446766  1
  In  In36  1  0.00796876  0.16228823  0.37885432  1
  In  In37  1  0.00324376  0.17361278  0.87534005  1
  In  In38  1  -0.00974404  0.50155953  0.36097551  1
  In  In39  1  0.01138256  0.48522741  0.88196356  1
  In  In40  1  0.00766023  0.84142705  0.36411488  1
  In  In41  1  -0.00375059  0.84825263  0.89200155  1
  In  In42  1  0.33339139  0.16588118  0.37110722  1
  In  In43  1  0.34486729  0.16062485  0.87870497  1
  In  In44  1  0.32810598  0.49791039  0.35599871  1
  In  In45  1  0.32964074  0.50218623  0.88651364  1
  In  In46  1  0.34219570  0.84374208  0.36044228  1
  In  In47  1  0.31904738  0.83203177  0.88009595  1
  In  In48  1  0.66820664  0.16888468  0.37307517  1
  In  In49  1  0.65028100  0.17075258  0.88709753  1
  In  In50  1  0.67080415  0.48801446  0.36855964  1
  In  In51  1  0.67281770  0.48609506  0.88717482  1
  In  In52  1  0.64598810  0.83252624  0.37466007  1
  In  In53  1  0.67684470  0.85695623  0.89069876  1
  In  In54  1  0.16460466  0.00412779  0.11582941  1
  In  In55  1  0.15655960  0.01067550  0.63830442  1
  In  In56  1  0.18174342  0.34315299  0.11761854  1
  In  In57  1  0.17516958  0.31885517  0.63099552  1
  In  In58  1  0.16154492  0.66216212  0.13175198  1
  In  In59  1  0.16059062  0.66843597  0.62506869  1
  In  In60  1  0.49069301  0.01197771  0.13168135  1
  In  In61  1  0.49657332  0.00103852  0.61957621  1
  In  In62  1  0.49803383  0.32575459  0.12358990  1
  In  In63  1  0.52117291  0.32654143  0.63349873  1
  In  In64  1  0.49969281  0.65110181  0.12555147  1
  In  In65  1  0.48764730  0.66892008  0.62313690  1
  In  In66  1  0.84069932  -0.00780481  0.13241412  1
  In  In67  1  0.82499166  0.01803736  0.63034104  1
  In  In68  1  0.81404931  0.33150536  0.12092411  1
  In  In69  1  0.83513702  0.32356860  0.63258435  1
  In  In70  1  0.83922243  0.66829806  0.11986069  1
  In  In71  1  0.83528897  0.65778974  0.62530720  1
  In  In72  1  0.67030549  0.66546494  0.24388863  1
  In  In73  1  0.18219486  0.84842835  0.48288436  1
  In  In74  1  0.50077787  0.49372971  0.49960487  1
  In  In75  1  0.83139847  0.16199470  0.00321037  1
  In  In76  1  0.00808132  0.33638382  0.23975047  1
  In  In77  1  0.82816117  0.84243943  0.49896202  1
  In  In78  1  0.16761966  0.49536964  0.50291344  1
  In  In79  1  0.66500396  0.66385803  0.76175301  1
  In  In80  1  0.00253395  0.66361661  0.75690647  1
  In  In81  1  0.33249149  0.33262998  0.75604536  1
  In  In82  1  0.50075069  0.83073111  0.00625314  1
  In  In83  1  0.66987503  0.01160146  0.75921383  1
  In  In84  1  0.83366427  0.49361580  0.50308056  1
  In  In85  1  0.32970354  0.66641482  0.75022402  1
  Cu  Cu86  1  0.83354255  0.50457455  0.23660722  1
  Cu  Cu87  1  0.33573466  0.32880479  0.00262779  1
  Cu  Cu88  1  0.50152028  0.49162631  0.24271390  1
  Cu  Cu89  1  -0.00514594  0.01283034  0.50551893  1
  Cu  Cu90  1  0.83208999  0.16890552  0.24524082  1
  Cu  Cu91  1  0.50276184  0.83998998  0.74519712  1
  Cu  Cu92  1  0.66029901  0.66584922  0.50083943  1
  Cu  Cu93  1  0.32897078  0.65915708  0.01215364  1
  Cu  Cu94  1  0.84527612  0.83387680  0.76040061  1
  Cu  Cu95  1  0.17188438  0.16304760  0.24413878  1
  Cu  Cu96  1  -0.00344422  0.32533826  0.50342639  1
  Cu  Cu97  1  0.33824115  0.67205954  0.49302954  1
  Cu  Cu98  1  0.49671675  0.16782492  0.25245230  1
  Cu  Cu99  1  0.50006848  0.16772517  0.75025707  1
  Cu  Cu100  1  0.00274017  0.66673925  0.00223376  1
  Cu  Cu101  1  0.49798333  0.83497324  0.24573353  1
  Cu  Cu102  1  0.16425745  0.16453108  0.75457037  1
  Cu  Cu103  1  0.65636285  0.00282315  0.49464570  1
  Cu  Cu104  1  0.16469384  0.84554525  0.75782513  1
  Cu  Cu105  1  0.67025848  0.66621410  0.00153230  1
  Cu  Cu106  1  -0.00196939  0.33214343  0.00251605  1
  Cu  Cu107  1  0.83696749  0.17106465  0.75164188  1
  Cu  Cu108  1  0.33469741  0.00141063  0.49124208  1
  Cu  Cu109  1  0.83606023  0.83705867  0.24834451  1
  Cu  Cu110  1  0.33597865  0.00383440  0.00253556  1
  Cu  Cu111  1  0.15717147  0.83445044  0.23911319  1
  Cu  Cu112  1  0.33688344  0.32649985  0.49638235  1
  Cu  Cu113  1  0.82640634  0.48617295  0.75518981  1
  Cu  Cu114  1  0.01050555  0.67479332  0.48331230  1
  Se  Se115  1  0.07997575  0.07800446  0.04297603  1
  Se  Se116  1  0.08517200  0.08680842  0.55987847  1
  Se  Se117  1  0.08596791  0.41579231  0.05224966  1
  Se  Se118  1  0.07428994  0.40939710  0.56373841  1
  Se  Se119  1  0.08451553  0.74647497  0.05879498  1
  Se  Se120  1  0.08925236  0.75257900  0.54532381  1
  Se  Se121  1  0.42133355  0.08781069  0.05199378  1
  Se  Se122  1  0.41458211  0.08328940  0.55029855  1
  Se  Se123  1  0.41267047  0.41464122  0.05970038  1
  Se  Se124  1  0.41050496  0.40627633  0.56189358  1
  Se  Se125  1  0.40803023  0.74633965  0.06795737  1
  Se  Se126  1  0.42026494  0.75399773  0.54825401  1
  Se  Se127  1  0.74678404  0.08490680  0.07378972  1
  Se  Se128  1  0.74805904  0.07775332  0.54834447  1
  Se  Se129  1  0.76330712  0.42466701  0.04544905  1
  Se  Se130  1  0.74322529  0.39825831  0.55529743  1
  Se  Se131  1  0.75212626  0.75062635  0.05314697  1
  Se  Se132  1  0.74266751  0.74499598  0.56140180  1
  Se  Se133  1  0.24958542  0.24435781  0.05226743  1
  Se  Se134  1  0.24596084  0.25022953  0.54930408  1
  Se  Se135  1  0.24585926  0.57655354  0.06401515  1
  Se  Se136  1  0.26124362  0.59508639  0.55737752  1
  Se  Se137  1  0.25074525  0.91713724  0.04903797  1
  Se  Se138  1  0.25354753  0.92820159  0.56060421  1
  Se  Se139  1  0.58875168  0.25546158  0.05299031  1
  Se  Se140  1  0.57304468  0.24607436  0.55205250  1
  Se  Se141  1  0.57780660  0.58534276  0.04667410  1
  Se  Se142  1  0.59056039  0.58248265  0.56553114  1
  Se  Se143  1  0.58456258  0.92391057  0.06582733  1
  Se  Se144  1  0.57744495  0.91681811  0.54874618  1
  Se  Se145  1  0.92258493  0.25200440  0.06501376  1
  Se  Se146  1  0.91347041  0.24546302  0.55875229  1
  Se  Se147  1  0.91646188  0.58093900  0.05065981  1
  Se  Se148  1  0.93265758  0.59551172  0.54945267  1
  Se  Se149  1  0.90648300  0.91629734  0.05184455  1
  Se  Se150  1  0.92242802  0.92378244  0.56444265  1
  Se  Se151  1  0.08527423  0.24898332  0.44937234  1
  Se  Se152  1  0.08302766  0.24906244  0.95062364  1
  Se  Se153  1  0.08402395  0.58183624  0.43151975  1
  Se  Se154  1  0.08360099  0.58070338  0.94833807  1
  Se  Se155  1  0.07235478  0.93389337  0.44040400  1
  Se  Se156  1  0.11117550  0.89844346  0.94713918  1
  Se  Se157  1  0.41826907  0.24634621  0.44102811  1
  Se  Se158  1  0.42051054  0.24700719  0.94896199  1
  Se  Se159  1  0.41175552  0.58187071  0.43564315  1
  Se  Se160  1  0.41488699  0.58290166  0.95512628  1
  Se  Se161  1  0.41571365  0.91344025  0.44109526  1
  Se  Se162  1  0.41512721  0.92074269  0.94070864  1
  Se  Se163  1  0.75395853  0.24842000  0.44218190  1
  Se  Se164  1  0.74368287  0.25809446  0.94675092  1
  Se  Se165  1  0.74245680  0.58813814  0.44074656  1
  Se  Se166  1  0.75264141  0.58216152  0.94781745  1
  Se  Se167  1  0.74075224  0.92484041  0.43274138  1
  Se  Se168  1  0.75992992  0.92056175  0.96632905  1
  Se  Se169  1  0.24758123  0.08444912  0.44172169  1
  Se  Se170  1  0.25384607  0.08668309  0.94676911  1
  Se  Se171  1  0.25826960  0.41249472  0.43804564  1
  Se  Se172  1  0.24976200  0.41296007  0.95115458  1
  Se  Se173  1  0.25656372  0.74137964  0.42758776  1
  Se  Se174  1  0.25374011  0.74515656  0.95409406  1
  Se  Se175  1  0.57833993  0.08497395  0.43767602  1
  Se  Se176  1  0.60151094  0.06046431  0.94920555  1
  Se  Se177  1  0.59480654  0.40627579  0.44276144  1
  Se  Se178  1  0.57395481  0.42335890  0.95391798  1
  Se  Se179  1  0.57634974  0.74853786  0.44963690  1
  Se  Se180  1  0.59104543  0.74637565  0.93884001  1
  Se  Se181  1  0.91310478  0.09113088  0.44711186  1
  Se  Se182  1  0.92746504  0.07778480  0.94441361  1
  Se  Se183  1  0.92569935  0.40953906  0.43849046  1
  Se  Se184  1  0.91549974  0.41454610  0.94803382  1
  Se  Se185  1  0.91536178  0.75015252  0.43450780  1
  Se  Se186  1  0.91683508  0.75251906  0.95239020  1
  Se  Se187  1  0.25015688  0.24831615  0.30009306  1
  Se  Se188  1  0.24319186  0.24464872  0.81718042  1
  Se  Se189  1  0.25312436  0.58390586  0.28860857  1
  Se  Se190  1  0.24184561  0.57646781  0.80976935  1
  Se  Se191  1  0.24078958  0.91274193  0.29873216  1
  Se  Se192  1  0.25547541  0.92294112  0.80740146  1
  Se  Se193  1  0.58466271  0.25156382  0.30248692  1
  Se  Se194  1  0.57817399  0.24790266  0.80945188  1
  Se  Se195  1  0.57730649  0.57541590  0.30647918  1
  Se  Se196  1  0.57599618  0.57502622  0.81907762  1
  Se  Se197  1  0.58051077  0.91758813  0.29975218  1
  Se  Se198  1  0.58100399  0.91167005  0.81238048  1
  Se  Se199  1  0.92013343  0.24731443  0.30386057  1
  Se  Se200  1  0.92210512  0.25386065  0.80347978  1
  Se  Se201  1  0.91837249  0.58805554  0.28864922  1
  Se  Se202  1  0.90837963  0.57227542  0.81171252  1
  Se  Se203  1  0.91839982  0.92293463  0.30122874  1
  Se  Se204  1  0.92283279  0.92177815  0.81201004  1
  Se  Se205  1  0.08151254  0.08877657  0.29982750  1
  Se  Se206  1  0.08279146  0.08237330  0.80965196  1
  Se  Se207  1  0.09443128  0.42244765  0.30608301  1
  Se  Se208  1  0.08471244  0.41632622  0.80294505  1
  Se  Se209  1  0.07416791  0.75001549  0.29395708  1
  Se  Se210  1  0.08895347  0.75731074  0.81498348  1
  Se  Se211  1  0.41109399  0.08073533  0.30051384  1
  Se  Se212  1  0.41622086  0.08194048  0.79981249  1
  Se  Se213  1  0.41915360  0.41046112  0.29944687  1
  Se  Se214  1  0.41900590  0.42432146  0.81527954  1
  Se  Se215  1  0.41630546  0.74685324  0.29622060  1
  Se  Se216  1  0.42208989  0.76140711  0.80694296  1
  Se  Se217  1  0.74830395  0.08621010  0.30041321  1
  Se  Se218  1  0.76058695  0.09719149  0.82071286  1
  Se  Se219  1  0.75875150  0.42153138  0.29639060  1
  Se  Se220  1  0.74347397  0.40598734  0.80966816  1
  Se  Se221  1  0.75384126  0.75814530  0.31016931  1
  Se  Se222  1  0.75524740  0.76223487  0.81720932  1
  Se  Se223  1  0.25096167  0.07711273  0.18964171  1
  Se  Se224  1  0.25333630  0.08729084  0.70009967  1
  Se  Se225  1  0.24890713  0.40641099  0.20232004  1
  Se  Se226  1  0.24077317  0.42595655  0.69580472  1
  Se  Se227  1  0.24865503  0.74909413  0.19665859  1
  Se  Se228  1  0.23983181  0.76386727  0.69194162  1
  Se  Se229  1  0.58205262  0.08460149  0.20070034  1
  Se  Se230  1  0.58377095  0.08962589  0.68917241  1
  Se  Se231  1  0.58790424  0.41232867  0.18960029  1
  Se  Se232  1  0.57159142  0.42162963  0.70792974  1
  Se  Se233  1  0.57945976  0.75681211  0.18541129  1
  Se  Se234  1  0.58231548  0.75493456  0.68985922  1
  Se  Se235  1  0.91915015  0.08215316  0.19992751  1
  Se  Se236  1  0.91703248  0.08332521  0.70030563  1
  Se  Se237  1  0.91358798  0.42091764  0.17973565  1
  Se  Se238  1  0.91564114  0.41169245  0.69917642  1
  Se  Se239  1  0.91361064  0.75368246  0.19150390  1
  Se  Se240  1  0.91397726  0.75537097  0.69143724  1
  Se  Se241  1  0.09291243  0.24104171  0.18102847  1
  Se  Se242  1  0.08387401  0.24987899  0.70003705  1
  Se  Se243  1  0.07732061  0.58083613  0.20045413  1
  Se  Se244  1  0.09320051  0.57365582  0.69473493  1
  Se  Se245  1  0.07938690  0.92182598  0.18582287  1
  Se  Se246  1  0.07541122  0.92232175  0.70452410  1
  Se  Se247  1  0.41366869  0.24836761  0.19527777  1
  Se  Se248  1  0.41517258  0.24277547  0.68933604  1
  Se  Se249  1  0.41604731  0.57931679  0.19769646  1
  Se  Se250  1  0.43005183  0.57481413  0.69922567  1
  Se  Se251  1  0.41261422  0.92009078  0.19652434  1
  Se  Se252  1  0.41719783  0.92116918  0.69351828  1
  Se  Se253  1  0.74561312  0.25623716  0.20109514  1
  Se  Se254  1  0.74370263  0.24238679  0.69662518  1
  Se  Se255  1  0.74412220  0.57395632  0.17731279  1
  Se  Se256  1  0.75219524  0.57346489  0.69454237  1
  Se  Se257  1  0.74714791  0.92084718  0.20252182  1
  Se  Se258  1  0.75870330  0.91200070  0.70020909  1
