# generated using pymatgen
data_In86Cu29Se144
_symmetry_space_group_name_H-M   'P 1'
_cell_length_a   17.57369983
_cell_length_b   17.57670645
_cell_length_c   23.42762115
_cell_angle_alpha   90.00143657
_cell_angle_beta   90.00505281
_cell_angle_gamma   90.01198870
_symmetry_Int_Tables_number   1
_chemical_formula_structural   In86Cu29Se144
_chemical_formula_sum   'In86 Cu29 Se144'
_cell_volume   7236.50530628
_cell_formula_units_Z   1
loop_
 _symmetry_equiv_pos_site_id
 _symmetry_equiv_pos_as_xyz
  1  'x, y, z'
loop_
 _atom_site_type_symbol
 _atom_site_label
 _atom_site_symmetry_multiplicity
 _atom_site_fract_x
 _atom_site_fract_y
 _atom_site_fract_z
 _atom_site_occupancy
  In  In0  1  -0.01328934  0.14581753  0.09658615  1
  In  In1  1  -0.01095552  0.17444312  0.62380063  1
  In  In2  1  -0.00641956  0.51836900  0.12728526  1
  In  In3  1  -0.00675173  0.51611789  0.63194620  1
  In  In4  1  -0.01020187  0.82570308  0.11315918  1
  In  In5  1  -0.00559552  0.82514240  0.61945943  1
  In  In6  1  0.32488518  0.17232173  0.11381513  1
  In  In7  1  0.35623565  0.16350757  0.64778439  1
  In  In8  1  0.34352882  0.49544864  0.11577981  1
  In  In9  1  0.35385714  0.49090579  0.64491718  1
  In  In10  1  0.33900511  0.83918337  0.11633337  1
  In  In11  1  0.33165829  0.83384434  0.62758341  1
  In  In12  1  0.67558468  0.16039689  0.13344169  1
  In  In13  1  0.67071811  0.15676973  0.64155534  1
  In  In14  1  0.66023927  0.49548247  0.11654863  1
  In  In15  1  0.66207951  0.49904844  0.62464327  1
  In  In16  1  0.67243314  0.83655190  0.11587653  1
  In  In17  1  0.67681545  0.83747130  0.61545483  1
  In  In18  1  0.16281216  -0.00362033  0.37935790  1
  In  In19  1  0.17770332  -0.00973250  0.88353854  1
  In  In20  1  0.18124673  0.32937141  0.37788262  1
  In  In21  1  0.16997019  0.32688672  0.87692859  1
  In  In22  1  0.16642940  0.67807878  0.37506349  1
  In  In23  1  0.17204343  0.67342509  0.86721712  1
  In  In24  1  0.50679067  -0.01673892  0.38143136  1
  In  In25  1  0.49090297  -0.00979629  0.86268857  1
  In  In26  1  0.51104785  0.32553283  0.37759182  1
  In  In27  1  0.52831673  0.34606996  0.84526918  1
  In  In28  1  0.51392857  0.66093725  0.39921694  1
  In  In29  1  0.50158213  0.67554726  0.88523731  1
  In  In30  1  0.82830600  0.01074194  0.38117985  1
  In  In31  1  0.82765076  0.00515789  0.88474980  1
  In  In32  1  0.81643947  0.34389114  0.38102328  1
  In  In33  1  0.81207395  0.34664105  0.87515441  1
  In  In34  1  0.83068707  0.65881367  0.38324198  1
  In  In35  1  0.83656724  0.65630881  0.87621456  1
  In  In36  1  -0.00311476  0.15061595  0.37571742  1
  In  In37  1  -0.00070907  0.16226664  0.89081132  1
  In  In38  1  -0.02103297  0.49942154  0.37248138  1
  In  In39  1  -0.02432608  0.50840622  0.86970110  1
  In  In40  1  0.00229742  0.82883761  0.37657337  1
  In  In41  1  0.00882004  0.83087187  0.88143756  1
  In  In42  1  0.32165154  0.16629116  0.37798839  1
  In  In43  1  0.33924461  0.16071718  0.86138038  1
  In  In44  1  0.33624870  0.50543368  0.38423647  1
  In  In45  1  0.35531591  0.51383709  0.85419476  1
  In  In46  1  0.34315966  0.82800425  0.39481498  1
  In  In47  1  0.33375704  0.83247997  0.87083209  1
  In  In48  1  0.67434287  0.17557359  0.36853761  1
  In  In49  1  0.67306489  0.16938427  0.86549065  1
  In  In50  1  0.66925418  0.49673501  0.38434908  1
  In  In51  1  0.67453426  0.49343130  0.87716874  1
  In  In52  1  0.66335019  0.83734107  0.38457813  1
  In  In53  1  0.65797011  0.83364156  0.88504770  1
  In  In54  1  0.15107350  -0.01258109  0.09967090  1
  In  In55  1  0.18414474  -0.00613533  0.62573869  1
  In  In56  1  0.17228798  0.32471235  0.11315831  1
  In  In57  1  0.17350249  0.33983389  0.62632314  1
  In  In58  1  0.14833908  0.66714935  0.12617634  1
  In  In59  1  0.16266061  0.67967293  0.63264680  1
  In  In60  1  0.51399958  0.00164448  0.12709823  1
  In  In61  1  0.50637641  -0.00195626  0.63703622  1
  In  In62  1  0.50833861  0.34396975  0.11814157  1
  In  In63  1  0.50732717  0.34826310  0.64266777  1
  In  In64  1  0.51589083  0.67103668  0.10219440  1
  In  In65  1  0.49876199  0.65411786  0.62382479  1
  In  In66  1  0.82571188  -0.00947683  0.11585506  1
  In  In67  1  0.82892898  -0.00522686  0.62333961  1
  In  In68  1  0.82672891  0.32466341  0.12026130  1
  In  In69  1  0.82244790  0.32936206  0.62409702  1
  In  In70  1  0.83234064  0.68050439  0.11004169  1
  In  In71  1  0.83343086  0.67549324  0.61818995  1
  In  In72  1  0.16789534  0.49941833  0.00086152  1
  In  In73  1  0.66973728  0.66752249  0.25149463  1
  In  In74  1  0.00186452  0.33350400  0.75577072  1
  In  In75  1  0.16276963  0.16327816  0.50024947  1
  In  In76  1  0.00210091  -0.00614508  0.76313319  1
  In  In77  1  0.34101006  0.66778994  0.25247392  1
  In  In78  1  0.49415066  0.16686012  -0.01296782  1
  In  In79  1  0.50095364  0.16431736  0.51604706  1
  In  In80  1  -0.00473697  -0.00450327  0.23886670  1
  In  In81  1  0.16279028  0.50652362  0.51560225  1
  In  In82  1  0.34321361  0.33992295  0.23385295  1
  In  In83  1  0.66560972  0.66055481  0.74926604  1
  In  In84  1  -0.00263339  0.33184197  0.24620203  1
  In  In85  1  0.33638448  0.00281932  0.25674423  1
  Cu  Cu86  1  0.82564101  0.50777332  0.25368045  1
  Cu  Cu87  1  0.33660937  0.66167798  0.50937120  1
  Cu  Cu88  1  0.82624371  0.83248492  0.74485463  1
  Cu  Cu89  1  0.66326389  0.33583528  0.50233061  1
  Cu  Cu90  1  0.50319406  0.49941205  0.24557443  1
  Cu  Cu91  1  0.83357688  0.83394378  0.24276325  1
  Cu  Cu92  1  0.50195809  0.82810262  0.75277516  1
  Cu  Cu93  1  0.34220586  0.33074767  0.51850674  1
  Cu  Cu94  1  0.34350085  0.33774426  -0.01622579  1
  Cu  Cu95  1  0.33601363  -0.00266956  -0.01122443  1
  Cu  Cu96  1  0.16736706  0.82778503  0.25254353  1
  Cu  Cu97  1  0.83809598  0.16343010  0.75845498  1
  Cu  Cu98  1  0.16812357  0.16474967  0.23428339  1
  Cu  Cu99  1  0.66609794  0.00926609  0.50395206  1
  Cu  Cu100  1  0.00018437  0.66517544  -0.00323832  1
  Cu  Cu101  1  0.33019017  0.67219872  -0.00935634  1
  Cu  Cu102  1  -0.00340274  -0.00627975  0.50153234  1
  Cu  Cu103  1  0.50818873  0.82997277  0.25761640  1
  Cu  Cu104  1  0.66080563  -0.00256322  0.00040508  1
  Cu  Cu105  1  0.16737568  0.83729749  0.75425637  1
  Cu  Cu106  1  0.51082157  0.16506819  0.25141258  1
  Cu  Cu107  1  0.66674654  0.32449456  -0.00616440  1
  Cu  Cu108  1  0.83004447  0.17222811  0.25133467  1
  Cu  Cu109  1  -0.00943363  0.34194225  -0.00779684  1
  Cu  Cu110  1  -0.01572499  0.33309704  0.49960225  1
  Cu  Cu111  1  0.16507545  0.50622528  0.74905959  1
  Cu  Cu112  1  0.16981506  0.16231647  0.75114173  1
  Cu  Cu113  1  -0.00159753  0.66339204  0.50088271  1
  Cu  Cu114  1  0.15352243  0.50318215  0.24912068  1
  Se  Se115  1  0.11649053  0.11419891  0.05307937  1
  Se  Se116  1  0.07434942  0.07457626  0.56520238  1
  Se  Se117  1  0.07012178  0.41391263  0.06049680  1
  Se  Se118  1  0.06691584  0.40737053  0.56254736  1
  Se  Se119  1  0.08483639  0.74935469  0.04846962  1
  Se  Se120  1  0.08404060  0.74574207  0.55260303  1
  Se  Se121  1  0.41268636  0.07460096  0.05628017  1
  Se  Se122  1  0.40526527  0.07275422  0.56596389  1
  Se  Se123  1  0.42194745  0.41450763  0.04484172  1
  Se  Se124  1  0.42638580  0.41870147  0.56442064  1
  Se  Se125  1  0.41533849  0.75153060  0.04801075  1
  Se  Se126  1  0.41767452  0.74778133  0.56155222  1
  Se  Se127  1  0.74278116  0.08269251  0.05411043  1
  Se  Se128  1  0.74816462  0.08942706  0.56175907  1
  Se  Se129  1  0.74557932  0.40889559  0.05187598  1
  Se  Se130  1  0.74878825  0.41868087  0.55461247  1
  Se  Se131  1  0.72534304  0.73501624  0.04621869  1
  Se  Se132  1  0.74979116  0.74968476  0.54612439  1
  Se  Se133  1  0.25905003  0.25780466  0.03832167  1
  Se  Se134  1  0.25732493  0.24274362  0.56693479  1
  Se  Se135  1  0.25573512  0.59629590  0.06039862  1
  Se  Se136  1  0.26082935  0.58407079  0.57524866  1
  Se  Se137  1  0.25379904  0.91259173  0.04422154  1
  Se  Se138  1  0.24078517  0.90101588  0.55419671  1
  Se  Se139  1  0.58749067  0.24401867  0.05577333  1
  Se  Se140  1  0.59074575  0.25790343  0.57105349  1
  Se  Se141  1  0.56542526  0.55752355  0.04592855  1
  Se  Se142  1  0.58836171  0.58453937  0.55351479  1
  Se  Se143  1  0.57592364  0.91438058  0.05259669  1
  Se  Se144  1  0.58349474  0.92690570  0.55895605  1
  Se  Se145  1  0.91210322  0.25331654  0.04694948  1
  Se  Se146  1  0.90505822  0.24651157  0.55234550  1
  Se  Se147  1  0.91404325  0.58442220  0.04967356  1
  Se  Se148  1  0.91410612  0.58069615  0.55294218  1
  Se  Se149  1  0.94137280  0.94287220  0.05873416  1
  Se  Se150  1  0.91173735  0.91290152  0.55490399  1
  Se  Se151  1  0.07345711  0.25885838  0.44013697  1
  Se  Se152  1  0.08186347  0.25866813  0.94888366  1
  Se  Se153  1  0.07872152  0.58182764  0.43861607  1
  Se  Se154  1  0.08016565  0.58410831  0.93593133  1
  Se  Se155  1  0.08171478  0.91428807  0.44682882  1
  Se  Se156  1  0.07503562  0.92994489  0.94647823  1
  Se  Se157  1  0.40904917  0.25213116  0.44724308  1
  Se  Se158  1  0.42275083  0.26250726  0.92161679  1
  Se  Se159  1  0.41901505  0.57602211  0.45706887  1
  Se  Se160  1  0.41158804  0.58263430  0.94292976  1
  Se  Se161  1  0.41484425  0.92661099  0.45364957  1
  Se  Se162  1  0.42150466  0.91196297  0.94093355  1
  Se  Se163  1  0.74467982  0.25009950  0.44842884  1
  Se  Se164  1  0.75226262  0.24255862  0.94151784  1
  Se  Se165  1  0.72832041  0.59986171  0.44767407  1
  Se  Se166  1  0.75177640  0.57883790  0.94517740  1
  Se  Se167  1  0.74838698  0.92524831  0.44867357  1
  Se  Se168  1  0.74887709  0.91424320  0.95068976  1
  Se  Se169  1  0.25936828  0.06939971  0.44923841  1
  Se  Se170  1  0.25974557  0.09023854  0.93939321  1
  Se  Se171  1  0.25640060  0.40944211  0.45668950  1
  Se  Se172  1  0.25983846  0.42574852  0.93229055  1
  Se  Se173  1  0.25234076  0.73928454  0.45171787  1
  Se  Se174  1  0.24470204  0.75542868  0.94169069  1
  Se  Se175  1  0.58694132  0.08809613  0.44148554  1
  Se  Se176  1  0.58668033  0.07450210  0.93313646  1
  Se  Se177  1  0.57702778  0.41520392  0.44848762  1
  Se  Se178  1  0.58309673  0.40478208  0.93777220  1
  Se  Se179  1  0.57288467  0.76981642  0.45532843  1
  Se  Se180  1  0.59548789  0.73915659  0.95691042  1
  Se  Se181  1  0.91678270  0.08448499  0.45278182  1
  Se  Se182  1  0.91562153  0.07933203  0.95442171  1
  Se  Se183  1  0.90554751  0.42277034  0.44827315  1
  Se  Se184  1  0.90471018  0.42334451  0.94204524  1
  Se  Se185  1  0.91804373  0.74720301  0.44458641  1
  Se  Se186  1  0.91660191  0.74738091  0.94293392  1
  Se  Se187  1  0.24928617  0.24618604  0.29501233  1
  Se  Se188  1  0.24900916  0.25137753  0.80311497  1
  Se  Se189  1  0.24392549  0.57409949  0.30852924  1
  Se  Se190  1  0.25228807  0.58953500  0.79849176  1
  Se  Se191  1  0.24881063  0.90399632  0.31406004  1
  Se  Se192  1  0.25271235  0.92171687  0.80354883  1
  Se  Se193  1  0.58898785  0.25730082  0.29991780  1
  Se  Se194  1  0.58025275  0.22834088  0.79146204  1
  Se  Se195  1  0.57422743  0.58181450  0.31102141  1
  Se  Se196  1  0.57649177  0.57893619  0.81529083  1
  Se  Se197  1  0.59135237  0.91736456  0.30559325  1
  Se  Se198  1  0.58936038  0.90995377  0.80476459  1
  Se  Se199  1  0.91249818  0.24634542  0.31442973  1
  Se  Se200  1  0.91429769  0.24592937  0.81876299  1
  Se  Se201  1  0.91117342  0.59161749  0.30320090  1
  Se  Se202  1  0.91272743  0.59183906  0.79422678  1
  Se  Se203  1  0.91018174  0.91388987  0.30777293  1
  Se  Se204  1  0.90387729  0.90474413  0.81348184  1
  Se  Se205  1  0.09248180  0.08546639  0.30000143  1
  Se  Se206  1  0.09074969  0.09132862  0.81596473  1
  Se  Se207  1  0.08962395  0.41537924  0.31295966  1
  Se  Se208  1  0.08864843  0.42849384  0.81465486  1
  Se  Se209  1  0.07897531  0.74724172  0.30219694  1
  Se  Se210  1  0.07965577  0.75339712  0.80312971  1
  Se  Se211  1  0.42730699  0.09482081  0.31609426  1
  Se  Se212  1  0.42398497  0.08262182  0.79301463  1
  Se  Se213  1  0.42066362  0.42303599  0.30924351  1
  Se  Se214  1  0.40796295  0.40039713  0.79523287  1
  Se  Se215  1  0.42974456  0.75049978  0.31895427  1
  Se  Se216  1  0.42058644  0.74543498  0.80773737  1
  Se  Se217  1  0.75143771  0.08246169  0.30326706  1
  Se  Se218  1  0.75325388  0.07313834  0.80354977  1
  Se  Se219  1  0.74280769  0.42267896  0.30512226  1
  Se  Se220  1  0.73340689  0.40959521  0.79517067  1
  Se  Se221  1  0.75615792  0.76039677  0.31070328  1
  Se  Se222  1  0.74969752  0.75470333  0.81099912  1
  Se  Se223  1  0.24984936  0.07675074  0.18263258  1
  Se  Se224  1  0.25382259  0.07939110  0.69898841  1
  Se  Se225  1  0.23651703  0.42905327  0.18479153  1
  Se  Se226  1  0.24646636  0.41759586  0.70060787  1
  Se  Se227  1  0.25045645  0.75418201  0.18891788  1
  Se  Se228  1  0.25202080  0.75277205  0.70183317  1
  Se  Se229  1  0.59147396  0.07664079  0.20149561  1
  Se  Se230  1  0.56349335  0.10108332  0.70500197  1
  Se  Se231  1  0.58728601  0.41505695  0.19474180  1
  Se  Se232  1  0.60920135  0.41369708  0.70731758  1
  Se  Se233  1  0.57741860  0.75246866  0.18870330  1
  Se  Se234  1  0.58387129  0.75630237  0.68736343  1
  Se  Se235  1  0.90730196  0.09465447  0.18646217  1
  Se  Se236  1  0.91689360  0.08441274  0.69733781  1
  Se  Se237  1  0.90588277  0.42626510  0.19144883  1
  Se  Se238  1  0.91260167  0.41641045  0.69246426  1
  Se  Se239  1  0.91323672  0.74931304  0.18861730  1
  Se  Se240  1  0.91367715  0.75122757  0.69406803  1
  Se  Se241  1  0.08079423  0.24271085  0.18012566  1
  Se  Se242  1  0.09095510  0.24214510  0.69196623  1
  Se  Se243  1  0.07214613  0.59267196  0.20300269  1
  Se  Se244  1  0.08155543  0.59094705  0.69889119  1
  Se  Se245  1  0.09341722  0.90629735  0.18604361  1
  Se  Se246  1  0.08455005  0.91307852  0.69133542  1
  Se  Se247  1  0.43060040  0.23629508  0.18374800  1
  Se  Se248  1  0.40147780  0.28085184  0.70304027  1
  Se  Se249  1  0.42729326  0.58260015  0.18506164  1
  Se  Se250  1  0.42646993  0.58796513  0.70622342  1
  Se  Se251  1  0.42523298  0.90903833  0.19634588  1
  Se  Se252  1  0.41766905  0.91204353  0.69901685  1
  Se  Se253  1  0.74740484  0.25711782  0.19914086  1
  Se  Se254  1  0.75733081  0.24609218  0.70219826  1
  Se  Se255  1  0.75360089  0.58256982  0.18380228  1
  Se  Se256  1  0.76131186  0.57975140  0.68807996  1
  Se  Se257  1  0.74764196  0.91556772  0.19134026  1
  Se  Se258  1  0.74402330  0.91881502  0.69483502  1
