# generated using pymatgen
data_In86Cu29Se144
_symmetry_space_group_name_H-M   'P 1'
_cell_length_a   17.57184243
_cell_length_b   17.57595959
_cell_length_c   23.43455218
_cell_angle_alpha   89.98078717
_cell_angle_beta   90.01129077
_cell_angle_gamma   89.98643274
_symmetry_Int_Tables_number   1
_chemical_formula_structural   In86Cu29Se144
_chemical_formula_sum   'In86 Cu29 Se144'
_cell_volume   7237.57303654
_cell_formula_units_Z   1
loop_
 _symmetry_equiv_pos_site_id
 _symmetry_equiv_pos_as_xyz
  1  'x, y, z'
loop_
 _atom_site_type_symbol
 _atom_site_label
 _atom_site_symmetry_multiplicity
 _atom_site_fract_x
 _atom_site_fract_y
 _atom_site_fract_z
 _atom_site_occupancy
  In  In0  1  0.01563264  0.17784527  0.11588702  1
  In  In1  1  -0.00349336  0.14988891  0.62794048  1
  In  In2  1  0.01040459  0.48067624  0.12176415  1
  In  In3  1  0.01165745  0.50429957  0.63435153  1
  In  In4  1  -0.00015039  0.82919870  0.11789593  1
  In  In5  1  0.00310275  0.83704547  0.62843569  1
  In  In6  1  0.32493906  0.17905305  0.12673874  1
  In  In7  1  0.32121222  0.15735786  0.61601573  1
  In  In8  1  0.33572384  0.49396775  0.11848630  1
  In  In9  1  0.34117551  0.49121080  0.62447137  1
  In  In10  1  0.32787068  0.82298352  0.11472927  1
  In  In11  1  0.34522219  0.84552907  0.61997168  1
  In  In12  1  0.65920086  0.16653204  0.13599397  1
  In  In13  1  0.66836218  0.17702865  0.62600758  1
  In  In14  1  0.65479454  0.49757221  0.12490273  1
  In  In15  1  0.65873704  0.50680419  0.63117868  1
  In  In16  1  0.66009063  0.83424529  0.12043628  1
  In  In17  1  0.65598702  0.83045442  0.61754230  1
  In  In18  1  0.16423825  0.00098850  0.38020246  1
  In  In19  1  0.16455632  -0.00046939  0.87298578  1
  In  In20  1  0.16924527  0.31986355  0.35795384  1
  In  In21  1  0.17690803  0.32383840  0.90330171  1
  In  In22  1  0.17968037  0.66200632  0.37382028  1
  In  In23  1  0.16865227  0.68064337  0.88623821  1
  In  In24  1  0.50976847  -0.00797892  0.38488579  1
  In  In25  1  0.48410028  0.00766694  0.86495526  1
  In  In26  1  0.49792708  0.33133358  0.37520536  1
  In  In27  1  0.50433310  0.33502100  0.87938331  1
  In  In28  1  0.48806822  0.67444540  0.37993086  1
  In  In29  1  0.50265431  0.66099707  0.88172953  1
  In  In30  1  0.81919747  0.00211259  0.38167078  1
  In  In31  1  0.82893095  -0.01590388  0.86921006  1
  In  In32  1  0.83425484  0.32613005  0.36651587  1
  In  In33  1  0.82720429  0.34276883  0.87447265  1
  In  In34  1  0.83858135  0.67788195  0.37880294  1
  In  In35  1  0.84646182  0.67451977  0.86572987  1
  In  In36  1  0.00508744  0.17407743  0.37205051  1
  In  In37  1  0.01413600  0.16989145  0.87179416  1
  In  In38  1  0.01910953  0.49518875  0.37147941  1
  In  In39  1  0.00085470  0.50692383  0.87512027  1
  In  In40  1  -0.00527897  0.83887214  0.38559404  1
  In  In41  1  0.00177833  0.83185095  0.87272041  1
  In  In42  1  0.32703916  0.17561672  0.37933875  1
  In  In43  1  0.33284417  0.15894576  0.87639985  1
  In  In44  1  0.33881690  0.50444974  0.36621602  1
  In  In45  1  0.33451822  0.49944802  0.90485627  1
  In  In46  1  0.33858478  0.82788096  0.37693435  1
  In  In47  1  0.32497270  0.84063200  0.88425276  1
  In  In48  1  0.65754565  0.15517989  0.37044524  1
  In  In49  1  0.64859509  0.17865574  0.86314090  1
  In  In50  1  0.66180208  0.48381909  0.37186394  1
  In  In51  1  0.65565102  0.49743830  0.87027661  1
  In  In52  1  0.65476150  0.84551452  0.39195561  1
  In  In53  1  0.67725765  0.82901329  0.87616416  1
  In  In54  1  0.17002449  -0.00031611  0.11745368  1
  In  In55  1  0.16936603  -0.00088831  0.62727182  1
  In  In56  1  0.17059071  0.32993353  0.11837102  1
  In  In57  1  0.18019990  0.33257799  0.62333196  1
  In  In58  1  0.18254531  0.67084629  0.11078591  1
  In  In59  1  0.15206202  0.67281416  0.63549049  1
  In  In60  1  0.51036098  0.00054352  0.12670493  1
  In  In61  1  0.49625455  -0.00632003  0.61925318  1
  In  In62  1  0.48804547  0.34451077  0.13379689  1
  In  In63  1  0.50660379  0.34045824  0.61593234  1
  In  In64  1  0.47711360  0.64678393  0.10119830  1
  In  In65  1  0.50968091  0.67516302  0.62050209  1
  In  In66  1  0.82985728  -0.01305703  0.12525414  1
  In  In67  1  0.84871706  0.00796031  0.62947196  1
  In  In68  1  0.83526178  0.32625611  0.13310401  1
  In  In69  1  0.82417196  0.31330415  0.62919376  1
  In  In70  1  0.82474562  0.67340945  0.12023098  1
  In  In71  1  0.82630664  0.67490486  0.63410752  1
  In  In72  1  0.66112902  0.66519470  0.24457949  1
  In  In73  1  -0.00373234  0.33509830  0.75440732  1
  In  In74  1  -0.00378022  0.00806552  0.24974241  1
  In  In75  1  0.83722948  0.50523914  -0.00426508  1
  In  In76  1  0.34391981  0.32998119  0.75652664  1
  In  In77  1  0.83609479  0.16085598  -0.00218599  1
  In  In78  1  0.83216993  0.16021151  0.50461038  1
  In  In79  1  0.82967943  0.50218146  0.50030830  1
  In  In80  1  0.17863646  0.50308131  0.49702146  1
  In  In81  1  0.48983975  0.16947198  -0.00108107  1
  In  In82  1  0.33636975  0.00441437  0.24673473  1
  In  In83  1  0.00483391  0.66316428  0.24869644  1
  In  In84  1  0.33104137  0.67088414  0.76073839  1
  In  In85  1  0.66856136  0.00402217  0.74108878  1
  Cu  Cu86  1  0.16958202  0.82885251  0.24547665  1
  Cu  Cu87  1  0.32890369  -0.00385677  -0.00333693  1
  Cu  Cu88  1  0.32999043  0.67098085  0.50069381  1
  Cu  Cu89  1  0.00044018  -0.01025835  -0.00397373  1
  Cu  Cu90  1  0.66102132  0.66193861  0.50469205  1
  Cu  Cu91  1  0.16784782  0.16271247  0.74895699  1
  Cu  Cu92  1  0.66983495  0.67488062  -0.00338428  1
  Cu  Cu93  1  0.00793874  0.33228526  0.49289455  1
  Cu  Cu94  1  0.82404458  0.49907656  0.75232261  1
  Cu  Cu95  1  0.66341646  -0.00165196  -0.00328395  1
  Cu  Cu96  1  0.00886154  -0.00178387  0.50589374  1
  Cu  Cu97  1  0.33854209  0.32975903  0.49761116  1
  Cu  Cu98  1  0.50237295  0.83543057  0.74494872  1
  Cu  Cu99  1  -0.00116355  0.67282730  -0.00344169  1
  Cu  Cu100  1  0.50249480  0.16465110  0.25441798  1
  Cu  Cu101  1  0.33138576  -0.00190906  0.49816039  1
  Cu  Cu102  1  0.83304165  0.16556388  0.25038464  1
  Cu  Cu103  1  0.66227976  0.33615162  0.00128577  1
  Cu  Cu104  1  0.81957880  0.83786325  0.25050031  1
  Cu  Cu105  1  0.50036972  0.50513499  0.75262115  1
  Cu  Cu106  1  0.16561998  0.50147876  0.76291536  1
  Cu  Cu107  1  0.16771698  0.83912305  0.75501334  1
  Cu  Cu108  1  0.17530288  0.49338797  0.24278150  1
  Cu  Cu109  1  0.49993240  0.82635196  0.25388060  1
  Cu  Cu110  1  0.83887607  0.49134817  0.25047629  1
  Cu  Cu111  1  0.66168076  0.33148973  0.49820683  1
  Cu  Cu112  1  -0.00215859  0.67669327  0.50804649  1
  Cu  Cu113  1  0.84039107  0.82942555  0.74878651  1
  Cu  Cu114  1  0.49599805  0.49750655  0.24563281  1
  Se  Se115  1  0.07798929  0.07560287  0.05180359  1
  Se  Se116  1  0.08888740  0.08661482  0.55676871  1
  Se  Se117  1  0.09394361  0.41816592  0.04595026  1
  Se  Se118  1  0.08097609  0.41516590  0.55690244  1
  Se  Se119  1  0.08674947  0.75217099  0.05061566  1
  Se  Se120  1  0.08819060  0.75512081  0.55777347  1
  Se  Se121  1  0.40613800  0.07461040  0.06222673  1
  Se  Se122  1  0.41471140  0.08129080  0.55145706  1
  Se  Se123  1  0.42683943  0.41623101  0.05157865  1
  Se  Se124  1  0.41770975  0.42011152  0.54768000  1
  Se  Se125  1  0.43641544  0.77062713  0.05202636  1
  Se  Se126  1  0.41751166  0.75024288  0.55450188  1
  Se  Se127  1  0.73868265  0.07998116  0.05953799  1
  Se  Se128  1  0.74198889  0.07174752  0.56335801  1
  Se  Se129  1  0.75015659  0.41223408  0.05870956  1
  Se  Se130  1  0.74474583  0.40759191  0.56038080  1
  Se  Se131  1  0.75086727  0.75846127  0.05073130  1
  Se  Se132  1  0.74740182  0.74352686  0.55623721  1
  Se  Se133  1  0.24667558  0.24178774  0.04804146  1
  Se  Se134  1  0.24734899  0.25102179  0.54766454  1
  Se  Se135  1  0.25092252  0.57336620  0.04721576  1
  Se  Se136  1  0.25456142  0.59383229  0.56793550  1
  Se  Se137  1  0.24559612  0.91183152  0.04981816  1
  Se  Se138  1  0.24861468  0.91648140  0.55486236  1
  Se  Se139  1  0.58499863  0.25323708  0.06124916  1
  Se  Se140  1  0.58195837  0.24499056  0.55135009  1
  Se  Se141  1  0.59331172  0.58492034  0.04982343  1
  Se  Se142  1  0.57750215  0.57583131  0.55413188  1
  Se  Se143  1  0.57832028  0.91815661  0.05033422  1
  Se  Se144  1  0.58000388  0.91566493  0.54961684  1
  Se  Se145  1  0.91890646  0.26096603  0.05243562  1
  Se  Se146  1  0.92808574  0.25658194  0.55753420  1
  Se  Se147  1  0.92661005  0.59061046  0.06232716  1
  Se  Se148  1  0.92368614  0.58578792  0.56322030  1
  Se  Se149  1  0.91407215  0.91407692  0.05297982  1
  Se  Se150  1  0.92026030  0.92010042  0.55839946  1
  Se  Se151  1  0.09215739  0.25225277  0.43996456  1
  Se  Se152  1  0.07869560  0.23983809  0.95370399  1
  Se  Se153  1  0.07606345  0.59491884  0.44586342  1
  Se  Se154  1  0.08079776  0.58823732  0.94491694  1
  Se  Se155  1  0.08841550  0.91379410  0.44958114  1
  Se  Se156  1  0.08752223  0.91095862  0.94239696  1
  Se  Se157  1  0.42290493  0.24421897  0.44679376  1
  Se  Se158  1  0.40008613  0.26383681  0.94318561  1
  Se  Se159  1  0.40757647  0.58394081  0.44512281  1
  Se  Se160  1  0.42181368  0.59158221  0.95788369  1
  Se  Se161  1  0.41551733  0.91247621  0.44679437  1
  Se  Se162  1  0.42133784  0.92461078  0.94275430  1
  Se  Se163  1  0.74775817  0.25317989  0.44142340  1
  Se  Se164  1  0.73829384  0.25277572  0.94125634  1
  Se  Se165  1  0.73918679  0.58930307  0.43687930  1
  Se  Se166  1  0.74713735  0.59202719  0.93448511  1
  Se  Se167  1  0.76461898  0.90363426  0.45025923  1
  Se  Se168  1  0.75201279  0.91615337  0.94804871  1
  Se  Se169  1  0.24962791  0.08412490  0.44533141  1
  Se  Se170  1  0.24656161  0.08197710  0.94470343  1
  Se  Se171  1  0.25655442  0.40782623  0.43463642  1
  Se  Se172  1  0.22694700  0.43623674  0.96462171  1
  Se  Se173  1  0.24681413  0.75124236  0.44529498  1
  Se  Se174  1  0.26579478  0.74333635  0.95347537  1
  Se  Se175  1  0.59724687  0.07493520  0.44915679  1
  Se  Se176  1  0.58518096  0.08231040  0.93811987  1
  Se  Se177  1  0.57845836  0.41705589  0.44697921  1
  Se  Se178  1  0.58161856  0.42167039  0.94844401  1
  Se  Se179  1  0.57806760  0.74557821  0.44971157  1
  Se  Se180  1  0.58447572  0.75553404  0.94316521  1
  Se  Se181  1  0.92887904  0.07713677  0.44154026  1
  Se  Se182  1  0.92203470  0.07126069  0.93498905  1
  Se  Se183  1  0.92332290  0.41317999  0.43840065  1
  Se  Se184  1  0.92694105  0.40758334  0.94287137  1
  Se  Se185  1  0.91169404  0.75576127  0.45411004  1
  Se  Se186  1  0.91374353  0.75417737  0.94390843  1
  Se  Se187  1  0.26761925  0.25014368  0.29593320  1
  Se  Se188  1  0.23753112  0.25047536  0.81176826  1
  Se  Se189  1  0.24997453  0.58289270  0.29782292  1
  Se  Se190  1  0.25149173  0.57404463  0.82271476  1
  Se  Se191  1  0.24474800  0.91255670  0.30690398  1
  Se  Se192  1  0.25542935  0.91992249  0.80624952  1
  Se  Se193  1  0.58557773  0.25128055  0.30607160  1
  Se  Se194  1  0.56215551  0.25692177  0.79789317  1
  Se  Se195  1  0.57375322  0.57803301  0.30931988  1
  Se  Se196  1  0.58289514  0.59190880  0.80350945  1
  Se  Se197  1  0.58193114  0.90958521  0.30817071  1
  Se  Se198  1  0.58258774  0.91569769  0.80797191  1
  Se  Se199  1  0.92204091  0.24810109  0.29915677  1
  Se  Se200  1  0.90647315  0.24359816  0.81201282  1
  Se  Se201  1  0.91168701  0.57545706  0.31206908  1
  Se  Se202  1  0.91700009  0.57716122  0.80068766  1
  Se  Se203  1  0.90886010  0.91215832  0.30778425  1
  Se  Se204  1  0.92177589  0.91523482  0.80065331  1
  Se  Se205  1  0.09591333  0.09139456  0.30402875  1
  Se  Se206  1  0.08199033  0.08025227  0.80043401  1
  Se  Se207  1  0.08744190  0.41428078  0.29652134  1
  Se  Se208  1  0.09439563  0.40965068  0.81941524  1
  Se  Se209  1  0.08602877  0.75864553  0.31101258  1
  Se  Se210  1  0.09000930  0.74830312  0.80659381  1
  Se  Se211  1  0.42454642  0.08311215  0.31553735  1
  Se  Se212  1  0.42246633  0.10694977  0.79954360  1
  Se  Se213  1  0.41719785  0.41259159  0.30233384  1
  Se  Se214  1  0.41584427  0.43525308  0.81700147  1
  Se  Se215  1  0.40996052  0.74457835  0.30145895  1
  Se  Se216  1  0.42563088  0.76228698  0.81334798  1
  Se  Se217  1  0.75152184  0.08028306  0.30333746  1
  Se  Se218  1  0.75001366  0.08947805  0.81165876  1
  Se  Se219  1  0.75017073  0.41238142  0.30178935  1
  Se  Se220  1  0.74103225  0.41406057  0.80301666  1
  Se  Se221  1  0.74548291  0.75363396  0.31044095  1
  Se  Se222  1  0.75154582  0.74960856  0.80060643  1
  Se  Se223  1  0.23717030  0.08972099  0.19290853  1
  Se  Se224  1  0.25391585  0.08185740  0.69699014  1
  Se  Se225  1  0.25660552  0.40989067  0.18903915  1
  Se  Se226  1  0.24549609  0.42545141  0.69945253  1
  Se  Se227  1  0.25165307  0.74679711  0.19139614  1
  Se  Se228  1  0.24950708  0.76016065  0.69352765  1
  Se  Se229  1  0.58426337  0.07627298  0.20412653  1
  Se  Se230  1  0.57187904  0.09109140  0.68747523  1
  Se  Se231  1  0.58687091  0.41379823  0.19996056  1
  Se  Se232  1  0.57607880  0.41812901  0.69587189  1
  Se  Se233  1  0.56782728  0.74700634  0.18406231  1
  Se  Se234  1  0.58718060  0.75025981  0.69651890  1
  Se  Se235  1  0.90988014  0.09286332  0.18232921  1
  Se  Se236  1  0.91097280  0.09336969  0.70501941  1
  Se  Se237  1  0.92281423  0.41299902  0.19509348  1
  Se  Se238  1  0.90519640  0.42147177  0.68858927  1
  Se  Se239  1  0.90661458  0.75691713  0.19495310  1
  Se  Se240  1  0.92585005  0.74547245  0.69666505  1
  Se  Se241  1  0.08238623  0.25767771  0.19113741  1
  Se  Se242  1  0.08998153  0.24965975  0.69021261  1
  Se  Se243  1  0.09366497  0.57851093  0.18516300  1
  Se  Se244  1  0.08371783  0.58481106  0.70931974  1
  Se  Se245  1  0.08556904  0.91110321  0.19118567  1
  Se  Se246  1  0.08469616  0.92027676  0.69811460  1
  Se  Se247  1  0.42001644  0.24305969  0.19671188  1
  Se  Se248  1  0.41241727  0.25190882  0.67805747  1
  Se  Se249  1  0.41651318  0.58109052  0.18897185  1
  Se  Se250  1  0.41806933  0.58429357  0.69297109  1
  Se  Se251  1  0.42168530  0.90773346  0.19024993  1
  Se  Se252  1  0.41695562  0.92158644  0.69793297  1
  Se  Se253  1  0.74626807  0.25027304  0.20024746  1
  Se  Se254  1  0.74352570  0.24773725  0.70463358  1
  Se  Se255  1  0.76043936  0.57315044  0.19067899  1
  Se  Se256  1  0.74480405  0.58586021  0.69857207  1
  Se  Se257  1  0.73768645  0.91735654  0.19439712  1
  Se  Se258  1  0.75855125  0.90722605  0.68683455  1
