# generated using pymatgen
data_In86Cu29Se144
_symmetry_space_group_name_H-M   'P 1'
_cell_length_a   17.58126299
_cell_length_b   17.58043025
_cell_length_c   23.42925261
_cell_angle_alpha   89.98794149
_cell_angle_beta   89.98917885
_cell_angle_gamma   89.99939210
_symmetry_Int_Tables_number   1
_chemical_formula_structural   In86Cu29Se144
_chemical_formula_sum   'In86 Cu29 Se144'
_cell_volume   7241.65760964
_cell_formula_units_Z   1
loop_
 _symmetry_equiv_pos_site_id
 _symmetry_equiv_pos_as_xyz
  1  'x, y, z'
loop_
 _atom_site_type_symbol
 _atom_site_label
 _atom_site_symmetry_multiplicity
 _atom_site_fract_x
 _atom_site_fract_y
 _atom_site_fract_z
 _atom_site_occupancy
  In  In0  1  0.00563225  0.17576607  0.11672202  1
  In  In1  1  0.01420632  0.17294223  0.62540512  1
  In  In2  1  -0.00374344  0.50716405  0.13169474  1
  In  In3  1  -0.01144864  0.50824097  0.63906752  1
  In  In4  1  0.00126036  0.81194715  0.12421157  1
  In  In5  1  0.00791368  0.81923585  0.62832319  1
  In  In6  1  0.32483697  0.17087752  0.13282199  1
  In  In7  1  0.32817375  0.16653804  0.62834057  1
  In  In8  1  0.31754054  0.50743495  0.13841445  1
  In  In9  1  0.33668332  0.50097131  0.63030935  1
  In  In10  1  0.32640052  0.84592628  0.12935734  1
  In  In11  1  0.33269111  0.83512168  0.62154734  1
  In  In12  1  0.66346520  0.16092538  0.11850120  1
  In  In13  1  0.66944140  0.16475071  0.63288884  1
  In  In14  1  0.67199208  0.49433295  0.11354357  1
  In  In15  1  0.67801319  0.50055929  0.63831410  1
  In  In16  1  0.67457466  0.83925545  0.12355397  1
  In  In17  1  0.64886821  0.84374011  0.65180624  1
  In  In18  1  0.19226000  -0.01585059  0.39527154  1
  In  In19  1  0.17008859  -0.00647858  0.88313329  1
  In  In20  1  0.15726496  0.32526195  0.37099955  1
  In  In21  1  0.16097050  0.32620448  0.87371115  1
  In  In22  1  0.17648336  0.67602733  0.36535588  1
  In  In23  1  0.16562131  0.66827170  0.86993193  1
  In  In24  1  0.48702984  -0.01212228  0.37057549  1
  In  In25  1  0.49638367  -0.00845894  0.85986670  1
  In  In26  1  0.49433524  0.34668013  0.37763226  1
  In  In27  1  0.50163785  0.33491898  0.86609601  1
  In  In28  1  0.49350521  0.68189630  0.38246420  1
  In  In29  1  0.50205122  0.67379377  0.85990685  1
  In  In30  1  0.82317238  0.00766416  0.37049857  1
  In  In31  1  0.83184533  0.01024237  0.87561383  1
  In  In32  1  0.85008727  0.33914204  0.37303851  1
  In  In33  1  0.82806569  0.33044187  0.87644965  1
  In  In34  1  0.83004215  0.65151064  0.37910111  1
  In  In35  1  0.81344952  0.64055006  0.84406821  1
  In  In36  1  0.00763510  0.18256980  0.37144818  1
  In  In37  1  -0.01099831  0.17197001  0.88713390  1
  In  In38  1  -0.00333722  0.49235637  0.36788220  1
  In  In39  1  -0.02367191  0.47923704  0.85120769  1
  In  In40  1  0.01443030  0.83463481  0.37549198  1
  In  In41  1  0.01094295  0.82919697  0.87494149  1
  In  In42  1  0.32232572  0.15402650  0.37045230  1
  In  In43  1  0.32890335  0.15721987  0.87252231  1
  In  In44  1  0.31230859  0.49055733  0.35616373  1
  In  In45  1  0.33584199  0.50156885  0.86665094  1
  In  In46  1  0.33563557  0.83478926  0.37672310  1
  In  In47  1  0.32515616  0.82576470  0.86145000  1
  In  In48  1  0.67428788  0.16131645  0.37489055  1
  In  In49  1  0.67502104  0.17597953  0.86849721  1
  In  In50  1  0.67340176  0.51565908  0.38280272  1
  In  In51  1  0.68225953  0.49762688  0.87450135  1
  In  In52  1  0.65123249  0.83321274  0.38025884  1
  In  In53  1  0.66374944  0.82559121  0.85459120  1
  In  In54  1  0.17284859  0.00755294  0.12132102  1
  In  In55  1  0.18183153  0.00996458  0.61105592  1
  In  In56  1  0.16970160  0.32618810  0.13256884  1
  In  In57  1  0.16864074  0.33083022  0.63300974  1
  In  In58  1  0.15734181  0.67316581  0.12734749  1
  In  In59  1  0.16365604  0.67446224  0.62570248  1
  In  In60  1  0.49888227  0.00019205  0.13209540  1
  In  In61  1  0.49743979  -0.01120069  0.62835935  1
  In  In62  1  0.49492171  0.32651727  0.12142606  1
  In  In63  1  0.49987818  0.32966902  0.63330911  1
  In  In64  1  0.49257995  0.65769509  0.12114422  1
  In  In65  1  0.48720623  0.68950566  0.64538088  1
  In  In66  1  0.81770988  -0.00229325  0.12289240  1
  In  In67  1  0.82657691  -0.01063049  0.63223330  1
  In  In68  1  0.84318317  0.35098592  0.10951848  1
  In  In69  1  0.82651772  0.35017545  0.64479878  1
  In  In70  1  0.84279780  0.66341463  0.11994264  1
  In  In71  1  0.83990358  0.66332666  0.64355144  1
  In  In72  1  0.50200598  0.16811994  -0.00116218  1
  In  In73  1  0.66317077  0.33059532  0.24154298  1
  In  In74  1  0.50052134  0.51606790  0.50352031  1
  In  In75  1  0.50318942  0.50170898  -0.00973258  1
  In  In76  1  0.83747203  0.82751429  -0.00602932  1
  In  In77  1  0.83591697  0.82656922  0.51420579  1
  In  In78  1  0.00305255  0.00290756  0.25127575  1
  In  In79  1  0.84291959  0.17157741  0.49925924  1
  In  In80  1  0.00164133  0.00177205  0.75035015  1
  In  In81  1  0.16141297  0.50286341  0.00052008  1
  In  In82  1  0.16142318  0.50090341  0.49465668  1
  In  In83  1  0.50300388  0.83164404  -0.01796123  1
  In  In84  1  0.65991012  0.67090314  0.25225501  1
  In  In85  1  0.49893290  0.15875462  0.50689100  1
  Cu  Cu86  1  0.00145247  -0.00231541  0.00121444  1
  Cu  Cu87  1  0.00097533  0.65640538  -0.00399240  1
  Cu  Cu88  1  0.83396697  0.16980345  0.75595959  1
  Cu  Cu89  1  0.66600228  0.00199275  -0.00572337  1
  Cu  Cu90  1  -0.00233879  0.66150017  0.50526657  1
  Cu  Cu91  1  0.16749166  0.16079073  0.25162155  1
  Cu  Cu92  1  0.48839678  0.50339286  0.24962085  1
  Cu  Cu93  1  0.49930710  0.16716702  0.24821756  1
  Cu  Cu94  1  0.66927462  0.66713916  0.51293988  1
  Cu  Cu95  1  -0.00082163  0.34234696  0.50003685  1
  Cu  Cu96  1  0.83211190  0.49788987  0.24899256  1
  Cu  Cu97  1  0.32921039  0.68107409  -0.00553542  1
  Cu  Cu98  1  0.33201614  0.33549792  0.00670373  1
  Cu  Cu99  1  0.17313978  0.50614650  0.74890535  1
  Cu  Cu100  1  0.32377455  0.00134463  0.00006208  1
  Cu  Cu101  1  0.49530548  0.83617000  0.25435702  1
  Cu  Cu102  1  0.66318535  -0.00895997  0.50697010  1
  Cu  Cu103  1  0.49489916  0.16485924  0.74784233  1
  Cu  Cu104  1  0.00917243  0.00332745  0.49963106  1
  Cu  Cu105  1  0.67884359  0.34254377  0.50995894  1
  Cu  Cu106  1  0.33302396  0.32515153  0.50456006  1
  Cu  Cu107  1  0.16860874  0.83340783  0.25270735  1
  Cu  Cu108  1  0.17295222  0.83765414  0.74774652  1
  Cu  Cu109  1  0.50087562  0.49378244  0.74976596  1
  Cu  Cu110  1  0.83133361  0.83186791  0.24518396  1
  Cu  Cu111  1  0.83111799  0.16692881  0.24773182  1
  Cu  Cu112  1  -0.00170721  0.33453478  -0.00550165  1
  Cu  Cu113  1  0.33504581  0.67017497  0.49756198  1
  Cu  Cu114  1  0.16759251  0.16564806  0.75267790  1
  Se  Se115  1  0.08442149  0.08338669  0.05318058  1
  Se  Se116  1  0.08669924  0.09246668  0.55097738  1
  Se  Se117  1  0.07776438  0.40854590  0.06121489  1
  Se  Se118  1  0.07804830  0.41884914  0.56449857  1
  Se  Se119  1  0.08295570  0.74436092  0.04704855  1
  Se  Se120  1  0.08451265  0.74844114  0.54960346  1
  Se  Se121  1  0.41035692  0.07807705  0.05878352  1
  Se  Se122  1  0.40470248  0.06922402  0.55972733  1
  Se  Se123  1  0.41022748  0.42363538  0.06044592  1
  Se  Se124  1  0.41555792  0.41034787  0.55714418  1
  Se  Se125  1  0.41462681  0.75460274  0.05485878  1
  Se  Se126  1  0.41932652  0.74544542  0.55632140  1
  Se  Se127  1  0.74908934  0.08308666  0.04843183  1
  Se  Se128  1  0.74874112  0.07814417  0.55662334  1
  Se  Se129  1  0.75189359  0.42162308  0.04165223  1
  Se  Se130  1  0.75956410  0.42456396  0.56277225  1
  Se  Se131  1  0.74299912  0.74203043  0.05653845  1
  Se  Se132  1  0.74307099  0.74730830  0.57645740  1
  Se  Se133  1  0.24954646  0.24923185  0.05730663  1
  Se  Se134  1  0.24585346  0.24986392  0.55899087  1
  Se  Se135  1  0.25720512  0.59369211  0.05549002  1
  Se  Se136  1  0.25688035  0.58569570  0.55594609  1
  Se  Se137  1  0.24420465  0.91347263  0.05243296  1
  Se  Se138  1  0.24231583  0.90449908  0.55060117  1
  Se  Se139  1  0.59472168  0.26397271  0.05196831  1
  Se  Se140  1  0.59374425  0.25704037  0.55877161  1
  Se  Se141  1  0.59101388  0.59468045  0.05176727  1
  Se  Se142  1  0.58636118  0.59088203  0.57412809  1
  Se  Se143  1  0.58410352  0.92208443  0.05369183  1
  Se  Se144  1  0.58637796  0.90669898  0.56244341  1
  Se  Se145  1  0.91490301  0.24949685  0.04886271  1
  Se  Se146  1  0.92033204  0.26402752  0.56437225  1
  Se  Se147  1  0.91804405  0.57540639  0.05176441  1
  Se  Se148  1  0.91383846  0.58763392  0.56358607  1
  Se  Se149  1  0.92164102  0.91669940  0.06297717  1
  Se  Se150  1  0.92924640  0.92741493  0.56254179  1
  Se  Se151  1  0.08171512  0.25387577  0.45070173  1
  Se  Se152  1  0.08664919  0.24838911  0.94976310  1
  Se  Se153  1  0.07564061  0.59344776  0.43509666  1
  Se  Se154  1  0.07344252  0.57649722  0.92998013  1
  Se  Se155  1  0.08714715  0.91098710  0.45147748  1
  Se  Se156  1  0.08285184  0.91230885  0.94963949  1
  Se  Se157  1  0.41578085  0.25134579  0.44219138  1
  Se  Se158  1  0.41001139  0.25915285  0.94131861  1
  Se  Se159  1  0.40125388  0.58050615  0.43428373  1
  Se  Se160  1  0.40970791  0.59886657  0.93729010  1
  Se  Se161  1  0.42575506  0.90604348  0.44730770  1
  Se  Se162  1  0.40334696  0.92517339  0.93641487  1
  Se  Se163  1  0.74707643  0.26230297  0.44095962  1
  Se  Se164  1  0.75742525  0.23741355  0.94562705  1
  Se  Se165  1  0.75281653  0.58462291  0.45959407  1
  Se  Se166  1  0.76003673  0.58983055  0.93831241  1
  Se  Se167  1  0.75047333  0.91757530  0.44606239  1
  Se  Se168  1  0.73984078  0.91414750  0.93567060  1
  Se  Se169  1  0.25178885  0.09218683  0.45393094  1
  Se  Se170  1  0.24451586  0.09004612  0.94866424  1
  Se  Se171  1  0.25630606  0.40686828  0.44215649  1
  Se  Se172  1  0.25713045  0.41560000  0.94185931  1
  Se  Se173  1  0.24846344  0.75002017  0.44376724  1
  Se  Se174  1  0.24383312  0.75727338  0.93920448  1
  Se  Se175  1  0.59043930  0.07357332  0.44264912  1
  Se  Se176  1  0.58171252  0.07560121  0.93324022  1
  Se  Se177  1  0.59304288  0.41613670  0.44783083  1
  Se  Se178  1  0.59244641  0.40474961  0.93918958  1
  Se  Se179  1  0.58643536  0.74497681  0.45450801  1
  Se  Se180  1  0.59914511  0.73750076  0.93460130  1
  Se  Se181  1  0.92667849  0.07680713  0.43673744  1
  Se  Se182  1  0.91259692  0.07871478  0.95244000  1
  Se  Se183  1  0.91538145  0.42536465  0.44772362  1
  Se  Se184  1  0.91634077  0.41819689  0.94120902  1
  Se  Se185  1  0.92012709  0.74555320  0.44178238  1
  Se  Se186  1  0.92198245  0.73655118  0.93429123  1
  Se  Se187  1  0.24933442  0.24791290  0.30474158  1
  Se  Se188  1  0.25147726  0.24914242  0.80670072  1
  Se  Se189  1  0.24197779  0.58545966  0.29364509  1
  Se  Se190  1  0.25555753  0.59064746  0.80223081  1
  Se  Se191  1  0.25028149  0.91708504  0.30716611  1
  Se  Se192  1  0.24769860  0.92651215  0.80308741  1
  Se  Se193  1  0.57689471  0.24676656  0.31210038  1
  Se  Se194  1  0.58124781  0.24669946  0.80054447  1
  Se  Se195  1  0.57094209  0.57771526  0.31272303  1
  Se  Se196  1  0.58222396  0.57007593  0.80965827  1
  Se  Se197  1  0.58520891  0.91697198  0.30420823  1
  Se  Se198  1  0.58034341  0.91326319  0.79262585  1
  Se  Se199  1  0.91538583  0.24920608  0.30027153  1
  Se  Se200  1  0.91999402  0.24932900  0.80898509  1
  Se  Se201  1  0.91237142  0.58308811  0.30356351  1
  Se  Se202  1  0.94334027  0.60474067  0.80069116  1
  Se  Se203  1  0.90922436  0.91023873  0.30996830  1
  Se  Se204  1  0.91429704  0.91465057  0.81280339  1
  Se  Se205  1  0.09406659  0.08050456  0.31783713  1
  Se  Se206  1  0.08530268  0.08985493  0.81609544  1
  Se  Se207  1  0.08446491  0.41471446  0.30388681  1
  Se  Se208  1  0.09477548  0.41895058  0.80287088  1
  Se  Se209  1  0.07889099  0.75022402  0.29988965  1
  Se  Se210  1  0.08739068  0.75368450  0.79834975  1
  Se  Se211  1  0.41809403  0.08391984  0.30406278  1
  Se  Se212  1  0.41056054  0.08120642  0.79963626  1
  Se  Se213  1  0.41307075  0.41067739  0.30014667  1
  Se  Se214  1  0.41170655  0.41151166  0.79985253  1
  Se  Se215  1  0.41388196  0.74865068  0.30462039  1
  Se  Se216  1  0.42474064  0.76301058  0.79573242  1
  Se  Se217  1  0.74432857  0.08370145  0.29651562  1
  Se  Se218  1  0.74835854  0.08154024  0.80146276  1
  Se  Se219  1  0.74675902  0.42205432  0.30906605  1
  Se  Se220  1  0.75918154  0.41671508  0.80215001  1
  Se  Se221  1  0.75408547  0.75646207  0.31367994  1
  Se  Se222  1  0.76209506  0.75830150  0.79031023  1
  Se  Se223  1  0.25165602  0.07665853  0.19959401  1
  Se  Se224  1  0.24583054  0.08086320  0.69618213  1
  Se  Se225  1  0.25542422  0.40517875  0.19932971  1
  Se  Se226  1  0.25352979  0.41751472  0.69692504  1
  Se  Se227  1  0.24846325  0.75279788  0.19289762  1
  Se  Se228  1  0.25207504  0.75016231  0.69355381  1
  Se  Se229  1  0.58512239  0.08733621  0.19445095  1
  Se  Se230  1  0.57719385  0.08264350  0.69218552  1
  Se  Se231  1  0.57268899  0.42986943  0.18754990  1
  Se  Se232  1  0.58648184  0.41249663  0.69738989  1
  Se  Se233  1  0.57229153  0.75974587  0.18746338  1
  Se  Se234  1  0.60636416  0.72237561  0.70473606  1
  Se  Se235  1  0.91106441  0.08560212  0.18681441  1
  Se  Se236  1  0.91107695  0.09410125  0.68880973  1
  Se  Se237  1  0.91325091  0.41412992  0.19442455  1
  Se  Se238  1  0.93430872  0.40509686  0.70637675  1
  Se  Se239  1  0.91305531  0.74345670  0.19707950  1
  Se  Se240  1  0.90671066  0.77310581  0.69828014  1
  Se  Se241  1  0.08168808  0.24137242  0.19790448  1
  Se  Se242  1  0.08279168  0.25150298  0.70328934  1
  Se  Se243  1  0.09545969  0.57442389  0.19361430  1
  Se  Se244  1  0.08766425  0.58827818  0.69586290  1
  Se  Se245  1  0.08605659  0.90911180  0.18840166  1
  Se  Se246  1  0.09332938  0.91898116  0.68656475  1
  Se  Se247  1  0.41730882  0.25213823  0.19586157  1
  Se  Se248  1  0.41034308  0.24981939  0.69707463  1
  Se  Se249  1  0.41067155  0.59269331  0.19787695  1
  Se  Se250  1  0.41699069  0.58132269  0.70049139  1
  Se  Se251  1  0.41343906  0.92106200  0.19963133  1
  Se  Se252  1  0.41960937  0.90281084  0.69655187  1
  Se  Se253  1  0.75828498  0.24792660  0.18223736  1
  Se  Se254  1  0.74757677  0.25014033  0.70120417  1
  Se  Se255  1  0.74877565  0.57865203  0.19139368  1
  Se  Se256  1  0.77089401  0.56588630  0.70985545  1
  Se  Se257  1  0.74518975  0.91847491  0.19983761  1
  Se  Se258  1  0.74390096  0.92817855  0.70814403  1
