# generated using pymatgen
data_In86Cu29Se144
_symmetry_space_group_name_H-M   'P 1'
_cell_length_a   17.57241699
_cell_length_b   17.57126147
_cell_length_c   23.43373053
_cell_angle_alpha   89.96804643
_cell_angle_beta   90.01002663
_cell_angle_gamma   90.01620667
_symmetry_Int_Tables_number   1
_chemical_formula_structural   In86Cu29Se144
_chemical_formula_sum   'In86 Cu29 Se144'
_cell_volume   7235.62052213
_cell_formula_units_Z   1
loop_
 _symmetry_equiv_pos_site_id
 _symmetry_equiv_pos_as_xyz
  1  'x, y, z'
loop_
 _atom_site_type_symbol
 _atom_site_label
 _atom_site_symmetry_multiplicity
 _atom_site_fract_x
 _atom_site_fract_y
 _atom_site_fract_z
 _atom_site_occupancy
  In  In0  1  0.01233362  0.16884985  0.13139163  1
  In  In1  1  -0.00903448  0.16108603  0.62035099  1
  In  In2  1  0.00129953  0.50434799  0.12439270  1
  In  In3  1  -0.00283545  0.51082667  0.62964660  1
  In  In4  1  -0.01077286  0.81351431  0.11472056  1
  In  In5  1  0.00489867  0.82590298  0.63239872  1
  In  In6  1  0.33181054  0.16737106  0.13352343  1
  In  In7  1  0.33287489  0.16605287  0.62071101  1
  In  In8  1  0.33088231  0.50060991  0.12431449  1
  In  In9  1  0.35469857  0.48499627  0.65694798  1
  In  In10  1  0.32970622  0.83493383  0.12064331  1
  In  In11  1  0.34083730  0.82880931  0.63240887  1
  In  In12  1  0.65656117  0.16481164  0.12932367  1
  In  In13  1  0.67883705  0.19151744  0.60336375  1
  In  In14  1  0.69256011  0.50057829  0.11548968  1
  In  In15  1  0.68553779  0.47555431  0.65480900  1
  In  In16  1  0.68770654  0.81404729  0.14440840  1
  In  In17  1  0.66169631  0.82230630  0.62712866  1
  In  In18  1  0.17611376  -0.00258772  0.37280514  1
  In  In19  1  0.15897007  -0.00861073  0.86962074  1
  In  In20  1  0.15962115  0.32986240  0.37072296  1
  In  In21  1  0.18971817  0.34566471  0.88103609  1
  In  In22  1  0.16768415  0.66754108  0.36596807  1
  In  In23  1  0.16258955  0.66850964  0.88357455  1
  In  In24  1  0.50550032  0.00633309  0.37178104  1
  In  In25  1  0.49753379  0.01272132  0.87181172  1
  In  In26  1  0.48882065  0.33870778  0.37665671  1
  In  In27  1  0.49780530  0.34297952  0.86087335  1
  In  In28  1  0.50014650  0.66775566  0.36734767  1
  In  In29  1  0.49241694  0.65388049  0.86366025  1
  In  In30  1  0.83666377  0.01181519  0.37233766  1
  In  In31  1  0.83009687  -0.01968599  0.87615923  1
  In  In32  1  0.83656913  0.32819295  0.38176152  1
  In  In33  1  0.82737362  0.35149383  0.87027215  1
  In  In34  1  0.82430939  0.65983687  0.36443673  1
  In  In35  1  0.83926330  0.66078826  0.87201177  1
  In  In36  1  -0.01027397  0.18038846  0.38232594  1
  In  In37  1  0.01488893  0.16373938  0.87048208  1
  In  In38  1  -0.00684975  0.49108583  0.36929625  1
  In  In39  1  -0.01989412  0.51362617  0.88121337  1
  In  In40  1  0.00610552  0.83194794  0.36687875  1
  In  In41  1  -0.00001777  0.82829993  0.87735769  1
  In  In42  1  0.33121994  0.16566278  0.37806855  1
  In  In43  1  0.34294238  0.17244704  0.86453726  1
  In  In44  1  0.33714574  0.50031770  0.36453981  1
  In  In45  1  0.32444787  0.49665129  0.87831694  1
  In  In46  1  0.32518376  0.82997127  0.36553760  1
  In  In47  1  0.31404004  0.82136645  0.87349836  1
  In  In48  1  0.67623937  0.16610716  0.38598101  1
  In  In49  1  0.65552298  0.17240312  0.86753812  1
  In  In50  1  0.66345523  0.51019745  0.37589114  1
  In  In51  1  0.67506035  0.50778504  0.86268769  1
  In  In52  1  0.66402746  0.82762161  0.35998561  1
  In  In53  1  0.68498654  0.82334976  0.88351028  1
  In  In54  1  0.17864617  0.00216777  0.12504959  1
  In  In55  1  0.15903734  0.00310311  0.62934377  1
  In  In56  1  0.16720667  0.33792316  0.12970537  1
  In  In57  1  0.18129909  0.33239255  0.62617791  1
  In  In58  1  0.17177616  0.65787951  0.11586803  1
  In  In59  1  0.17127514  0.66134987  0.63404462  1
  In  In60  1  0.49834625  -0.00066124  0.13232239  1
  In  In61  1  0.48974173  0.00564390  0.62540217  1
  In  In62  1  0.50178257  0.32391722  0.12649868  1
  In  In63  1  0.50828906  0.32258632  0.63095013  1
  In  In64  1  0.49619010  0.67101479  0.12592209  1
  In  In65  1  0.52331167  0.63408198  0.65791656  1
  In  In66  1  0.83829735  -0.02388154  0.13174722  1
  In  In67  1  0.82885288  0.01328722  0.62674485  1
  In  In68  1  0.83365329  0.35695560  0.12255626  1
  In  In69  1  0.82966083  0.33312300  0.62098819  1
  In  In70  1  0.83897699  0.66771521  0.12541459  1
  In  In71  1  0.83895528  0.65146214  0.63364432  1
  In  In72  1  0.16773517  0.83535333  0.49329917  1
  In  In73  1  0.49682596  0.83324713  0.50281824  1
  In  In74  1  0.50095347  0.17438942  -0.00264043  1
  In  In75  1  0.83458586  0.16635521  -0.00290736  1
  In  In76  1  0.66597203  0.33692644  0.24980876  1
  In  In77  1  0.00226417  0.33183763  0.75359606  1
  In  In78  1  0.83682651  0.84101579  0.49238708  1
  In  In79  1  0.17068947  0.16940958  0.00183393  1
  In  In80  1  0.50218105  0.49753224  -0.01015092  1
  In  In81  1  0.16809300  0.50063420  0.50515208  1
  In  In82  1  0.50969487  0.49412518  0.51104032  1
  In  In83  1  0.00154662  -0.00288307  0.25180379  1
  In  In84  1  0.66286539  -0.00057996  0.74613490  1
  In  In85  1  0.49952419  0.83347250  0.00318230  1
  Cu  Cu86  1  0.67661867  0.66465977  0.49819129  1
  Cu  Cu87  1  0.67179025  0.66564093  -0.00093366  1
  Cu  Cu88  1  0.33185303  0.00383220  0.49979202  1
  Cu  Cu89  1  0.33190047  0.32889549  0.49991138  1
  Cu  Cu90  1  0.50008989  0.83881338  0.75499331  1
  Cu  Cu91  1  0.16904191  0.50404819  0.24420188  1
  Cu  Cu92  1  -0.00441055  0.66529690  0.00032811  1
  Cu  Cu93  1  0.00005249  0.33322313  0.49722440  1
  Cu  Cu94  1  0.49865038  0.16857355  0.74240144  1
  Cu  Cu95  1  0.48929141  0.83245518  0.24597285  1
  Cu  Cu96  1  0.34315651  0.65791007  0.50742703  1
  Cu  Cu97  1  0.50153735  0.50530416  0.24594966  1
  Cu  Cu98  1  0.00014614  -0.01281912  -0.00332278  1
  Cu  Cu99  1  0.16437654  0.82595627  0.23997331  1
  Cu  Cu100  1  -0.00145451  0.34013304  0.00212536  1
  Cu  Cu101  1  -0.00534146  0.01286183  0.50389300  1
  Cu  Cu102  1  0.32990575  -0.00122651  -0.00254740  1
  Cu  Cu103  1  0.67101730  -0.00676313  0.00833875  1
  Cu  Cu104  1  0.83181428  0.17183701  0.25700095  1
  Cu  Cu105  1  0.66507061  0.00887875  0.49716537  1
  Cu  Cu106  1  0.49396636  0.16537862  0.25546193  1
  Cu  Cu107  1  0.16047108  0.50415562  0.75836736  1
  Cu  Cu108  1  0.17302498  0.16159615  0.74868979  1
  Cu  Cu109  1  0.16524671  0.83488087  0.75708825  1
  Cu  Cu110  1  0.83353576  0.16544557  0.74341402  1
  Cu  Cu111  1  0.84187278  0.82629366  0.75431712  1
  Cu  Cu112  1  0.84150509  0.50668437  0.24750508  1
  Cu  Cu113  1  0.17056278  0.17195966  0.25332580  1
  Cu  Cu114  1  -0.00513428  0.66036005  0.50215040  1
  Se  Se115  1  0.07532162  0.07394444  0.05565336  1
  Se  Se116  1  0.08734772  0.08723672  0.55517989  1
  Se  Se117  1  0.08398393  0.41557370  0.05856796  1
  Se  Se118  1  0.07601891  0.40950664  0.56406182  1
  Se  Se119  1  0.08681606  0.74539515  0.04979680  1
  Se  Se120  1  0.08263299  0.74037365  0.55584415  1
  Se  Se121  1  0.41123550  0.07972334  0.05661871  1
  Se  Se122  1  0.41881559  0.08626319  0.54986991  1
  Se  Se123  1  0.41938478  0.40933958  0.05776342  1
  Se  Se124  1  0.40387005  0.41315980  0.56296101  1
  Se  Se125  1  0.40446516  0.73792572  0.05156298  1
  Se  Se126  1  0.42320640  0.73693765  0.56692883  1
  Se  Se127  1  0.75022627  0.07910951  0.06486965  1
  Se  Se128  1  0.75490067  0.08615918  0.54919735  1
  Se  Se129  1  0.75081654  0.40981734  0.04198832  1
  Se  Se130  1  0.73968658  0.42119459  0.56265947  1
  Se  Se131  1  0.74963253  0.74932481  0.05686553  1
  Se  Se132  1  0.75452550  0.74887325  0.55707797  1
  Se  Se133  1  0.26231932  0.25768263  0.05918413  1
  Se  Se134  1  0.24605535  0.24643349  0.55094645  1
  Se  Se135  1  0.23927060  0.55863668  0.04828531  1
  Se  Se136  1  0.26357142  0.57892526  0.56805912  1
  Se  Se137  1  0.24657529  0.91727789  0.05040912  1
  Se  Se138  1  0.25720759  0.91733822  0.55925317  1
  Se  Se139  1  0.59970208  0.26071007  0.05309410  1
  Se  Se140  1  0.57270683  0.25678649  0.54646194  1
  Se  Se141  1  0.58834410  0.58665901  0.05776190  1
  Se  Se142  1  0.59315866  0.59489367  0.56256986  1
  Se  Se143  1  0.59044107  0.91457927  0.06791527  1
  Se  Se144  1  0.59212078  0.92538559  0.55982715  1
  Se  Se145  1  0.92501863  0.25240301  0.06154633  1
  Se  Se146  1  0.91596444  0.25202606  0.55391340  1
  Se  Se147  1  0.91287137  0.58031144  0.05411587  1
  Se  Se148  1  0.91163502  0.57754817  0.55367222  1
  Se  Se149  1  0.91324556  0.91022261  0.05086990  1
  Se  Se150  1  0.92382537  0.92192833  0.56227231  1
  Se  Se151  1  0.08740291  0.25065617  0.44776258  1
  Se  Se152  1  0.07975215  0.26154679  0.94158463  1
  Se  Se153  1  0.08145253  0.58800456  0.44022080  1
  Se  Se154  1  0.07725606  0.58010560  0.94779867  1
  Se  Se155  1  0.06941251  0.92925069  0.44157170  1
  Se  Se156  1  0.08903306  0.90965732  0.94512957  1
  Se  Se157  1  0.41658296  0.24905531  0.44587108  1
  Se  Se158  1  0.41147198  0.26385463  0.93867609  1
  Se  Se159  1  0.41945099  0.58168631  0.44202209  1
  Se  Se160  1  0.40661025  0.59431968  0.94393672  1
  Se  Se161  1  0.40558148  0.91714284  0.43892870  1
  Se  Se162  1  0.41459186  0.92337165  0.93776738  1
  Se  Se163  1  0.74885628  0.25726647  0.45169200  1
  Se  Se164  1  0.74472601  0.25242544  0.93543920  1
  Se  Se165  1  0.75709522  0.58114731  0.44406563  1
  Se  Se166  1  0.74932264  0.58176783  0.94109642  1
  Se  Se167  1  0.73710356  0.92401014  0.43509689  1
  Se  Se168  1  0.75510781  0.91102740  0.95565463  1
  Se  Se169  1  0.24437712  0.08287358  0.44663170  1
  Se  Se170  1  0.25694108  0.08332666  0.93521696  1
  Se  Se171  1  0.25724228  0.41555152  0.43991967  1
  Se  Se172  1  0.24348462  0.43347574  0.95986981  1
  Se  Se173  1  0.26189083  0.73526487  0.44476930  1
  Se  Se174  1  0.24182934  0.75427454  0.95317755  1
  Se  Se175  1  0.57667430  0.08838603  0.44631700  1
  Se  Se176  1  0.59608387  0.07466819  0.94604296  1
  Se  Se177  1  0.59184596  0.40965343  0.44091397  1
  Se  Se178  1  0.59391387  0.40994284  0.93180873  1
  Se  Se179  1  0.59117118  0.74503713  0.44165375  1
  Se  Se180  1  0.58326934  0.73864037  0.93971824  1
  Se  Se181  1  0.90924757  0.09064860  0.44819219  1
  Se  Se182  1  0.92669693  0.07506240  0.93771675  1
  Se  Se183  1  0.91726379  0.41972979  0.44735465  1
  Se  Se184  1  0.91035482  0.41612752  0.94812003  1
  Se  Se185  1  0.92471848  0.74361464  0.43760043  1
  Se  Se186  1  0.91238968  0.74790610  0.94474306  1
  Se  Se187  1  0.25491847  0.25386228  0.30733589  1
  Se  Se188  1  0.24472735  0.25106312  0.80594775  1
  Se  Se189  1  0.25338930  0.58611840  0.29998747  1
  Se  Se190  1  0.24475800  0.58648050  0.81213934  1
  Se  Se191  1  0.24208331  0.91249245  0.29717508  1
  Se  Se192  1  0.25459737  0.92042213  0.80342170  1
  Se  Se193  1  0.57915902  0.24667248  0.31218189  1
  Se  Se194  1  0.58096485  0.25393553  0.79527664  1
  Se  Se195  1  0.58621260  0.58569180  0.30064019  1
  Se  Se196  1  0.57622671  0.57562996  0.79701989  1
  Se  Se197  1  0.57302938  0.91360983  0.30174980  1
  Se  Se198  1  0.58574155  0.91058696  0.81769562  1
  Se  Se199  1  0.91740849  0.25752900  0.30437051  1
  Se  Se200  1  0.90844345  0.24064751  0.81208472  1
  Se  Se201  1  0.92526197  0.58816490  0.30261129  1
  Se  Se202  1  0.90996392  0.57517871  0.79800466  1
  Se  Se203  1  0.90382961  0.90834379  0.30624332  1
  Se  Se204  1  0.92113619  0.91537050  0.80521503  1
  Se  Se205  1  0.08524075  0.09267870  0.31289952  1
  Se  Se206  1  0.08460990  0.07901697  0.79785127  1
  Se  Se207  1  0.08819493  0.42166684  0.30223113  1
  Se  Se208  1  0.08469161  0.42079763  0.81934233  1
  Se  Se209  1  0.08184551  0.74710413  0.29741521  1
  Se  Se210  1  0.08321664  0.74723602  0.80780872  1
  Se  Se211  1  0.40997666  0.07997556  0.30696124  1
  Se  Se212  1  0.41771131  0.08270977  0.79544488  1
  Se  Se213  1  0.42142432  0.41705104  0.29751774  1
  Se  Se214  1  0.40209759  0.42056676  0.80276811  1
  Se  Se215  1  0.41049564  0.74561375  0.30130252  1
  Se  Se216  1  0.41583018  0.75709712  0.80845091  1
  Se  Se217  1  0.74536332  0.08865619  0.30602137  1
  Se  Se218  1  0.75636991  0.08543903  0.80922028  1
  Se  Se219  1  0.75861383  0.42581886  0.30841698  1
  Se  Se220  1  0.74266898  0.41184008  0.79351920  1
  Se  Se221  1  0.75214101  0.74942525  0.29649307  1
  Se  Se222  1  0.75220241  0.74692902  0.80496906  1
  Se  Se223  1  0.24921391  0.08314825  0.20092528  1
  Se  Se224  1  0.25442024  0.08015624  0.69191652  1
  Se  Se225  1  0.25508980  0.41629940  0.19748870  1
  Se  Se226  1  0.24086768  0.41649825  0.70500952  1
  Se  Se227  1  0.25028312  0.74545846  0.18665633  1
  Se  Se228  1  0.24618728  0.75585726  0.69766040  1
  Se  Se229  1  0.57911154  0.08474156  0.20069498  1
  Se  Se230  1  0.58696941  0.09530271  0.68220210  1
  Se  Se231  1  0.58401608  0.42818829  0.18391594  1
  Se  Se232  1  0.54632941  0.44649366  0.68422992  1
  Se  Se233  1  0.57749968  0.74716881  0.19862965  1
  Se  Se234  1  0.58501811  0.75415240  0.70486188  1
  Se  Se235  1  0.90919569  0.09027142  0.19265319  1
  Se  Se236  1  0.92082504  0.07958669  0.69791909  1
  Se  Se237  1  0.92224041  0.41819981  0.19690534  1
  Se  Se238  1  0.91214807  0.41914898  0.69385156  1
  Se  Se239  1  0.90963602  0.75838597  0.19591646  1
  Se  Se240  1  0.92060415  0.74209972  0.69737079  1
  Se  Se241  1  0.08582824  0.25445985  0.20099630  1
  Se  Se242  1  0.08894067  0.24247118  0.68991797  1
  Se  Se243  1  0.08536305  0.58808058  0.19172558  1
  Se  Se244  1  0.08069028  0.58569368  0.70114223  1
  Se  Se245  1  0.08405698  0.91144018  0.18330300  1
  Se  Se246  1  0.08308320  0.91485425  0.69795543  1
  Se  Se247  1  0.41751591  0.25136535  0.19899798  1
  Se  Se248  1  0.40884076  0.25144307  0.69341266  1
  Se  Se249  1  0.41443965  0.58427542  0.19204964  1
  Se  Se250  1  0.38894511  0.61468529  0.69875278  1
  Se  Se251  1  0.40688812  0.91733622  0.19353611  1
  Se  Se252  1  0.41987601  0.91959128  0.69800628  1
  Se  Se253  1  0.75883858  0.24937696  0.18816678  1
  Se  Se254  1  0.74940337  0.24747657  0.69140318  1
  Se  Se255  1  0.75251319  0.58351771  0.19415535  1
  Se  Se256  1  0.72960413  0.60280194  0.69676610  1
  Se  Se257  1  0.73281271  0.93341399  0.19935621  1
  Se  Se258  1  0.76012732  0.90560486  0.69159030  1
