# generated using pymatgen
data_In86Cu29Se144
_symmetry_space_group_name_H-M   'P 1'
_cell_length_a   17.57066953
_cell_length_b   17.56890057
_cell_length_c   23.43649519
_cell_angle_alpha   89.98763479
_cell_angle_beta   90.00233035
_cell_angle_gamma   89.97888825
_symmetry_Int_Tables_number   1
_chemical_formula_structural   In86Cu29Se144
_chemical_formula_sum   'In86 Cu29 Se144'
_cell_volume   7234.78320061
_cell_formula_units_Z   1
loop_
 _symmetry_equiv_pos_site_id
 _symmetry_equiv_pos_as_xyz
  1  'x, y, z'
loop_
 _atom_site_type_symbol
 _atom_site_label
 _atom_site_symmetry_multiplicity
 _atom_site_fract_x
 _atom_site_fract_y
 _atom_site_fract_z
 _atom_site_occupancy
  In  In0  1  0.02108995  0.14847029  0.15277592  1
  In  In1  1  -0.01332686  0.15464064  0.61233980  1
  In  In2  1  -0.00455169  0.48865317  0.11817620  1
  In  In3  1  0.01422197  0.50895026  0.63429653  1
  In  In4  1  0.00677173  0.84247830  0.12442112  1
  In  In5  1  -0.01252068  0.84730346  0.63035070  1
  In  In6  1  0.33386896  0.16177158  0.13139581  1
  In  In7  1  0.31916200  0.16412401  0.61552306  1
  In  In8  1  0.33595614  0.49755985  0.11324658  1
  In  In9  1  0.32649873  0.49505926  0.62856842  1
  In  In10  1  0.33677964  0.83787744  0.13936223  1
  In  In11  1  0.35142135  0.83625025  0.62251239  1
  In  In12  1  0.66108611  0.17085427  0.12881161  1
  In  In13  1  0.66459466  0.16582373  0.62720179  1
  In  In14  1  0.67641893  0.50205795  0.11993182  1
  In  In15  1  0.66527687  0.50278678  0.63788410  1
  In  In16  1  0.64743535  0.84040491  0.13858156  1
  In  In17  1  0.67300168  0.82982289  0.62949289  1
  In  In18  1  0.18740379  0.02613013  0.35299354  1
  In  In19  1  0.17100263  0.00679889  0.86608297  1
  In  In20  1  0.13700274  0.29459869  0.32819801  1
  In  In21  1  0.16698196  0.32645499  0.88517146  1
  In  In22  1  0.17108001  0.65941791  0.36973375  1
  In  In23  1  0.16160175  0.66253053  0.87862033  1
  In  In24  1  0.51535155  0.01306121  0.36321720  1
  In  In25  1  0.49836052  0.00519495  0.87269209  1
  In  In26  1  0.48291582  0.32171739  0.36726208  1
  In  In27  1  0.49953490  0.32536867  0.88090254  1
  In  In28  1  0.51372665  0.68537378  0.34507894  1
  In  In29  1  0.50137765  0.65516748  0.88193003  1
  In  In30  1  0.83148089  0.00222236  0.37136836  1
  In  In31  1  0.83369909  -0.00061871  0.86547586  1
  In  In32  1  0.82284962  0.29634522  0.36417547  1
  In  In33  1  0.83277790  0.34610965  0.87662639  1
  In  In34  1  0.83497388  0.68384649  0.37906587  1
  In  In35  1  0.82666327  0.65963810  0.87077983  1
  In  In36  1  -0.00388509  0.16226723  0.36744939  1
  In  In37  1  0.01099907  0.16711871  0.87581754  1
  In  In38  1  0.01467039  0.49710140  0.37526133  1
  In  In39  1  -0.00849518  0.49401421  0.88226574  1
  In  In40  1  -0.02154996  0.84673323  0.38539067  1
  In  In41  1  0.00542369  0.83160737  0.86795303  1
  In  In42  1  0.33259290  0.17141724  0.37329586  1
  In  In43  1  0.33270572  0.15260379  0.88917054  1
  In  In44  1  0.32882646  0.49433776  0.36198005  1
  In  In45  1  0.33485054  0.50895722  0.89564701  1
  In  In46  1  0.35674183  0.84478684  0.35050364  1
  In  In47  1  0.32170007  0.84361659  0.87809164  1
  In  In48  1  0.68480241  0.13060040  0.40390197  1
  In  In49  1  0.65531084  0.15854456  0.86481072  1
  In  In50  1  0.65176858  0.49969758  0.37256265  1
  In  In51  1  0.66601071  0.50113805  0.87520102  1
  In  In52  1  0.68154252  0.85260753  0.35860222  1
  In  In53  1  0.66993742  0.83943115  0.86616589  1
  In  In54  1  0.16975182  0.00586900  0.13608127  1
  In  In55  1  0.15687897  0.00743976  0.62817831  1
  In  In56  1  0.16953116  0.32735929  0.12792526  1
  In  In57  1  0.17008974  0.33187290  0.62319369  1
  In  In58  1  0.18819033  0.65930769  0.12043696  1
  In  In59  1  0.15775927  0.65324549  0.63103202  1
  In  In60  1  0.48193293  0.02058037  0.14510841  1
  In  In61  1  0.49447097  0.00865957  0.62928197  1
  In  In62  1  0.49151470  0.31624313  0.11487155  1
  In  In63  1  0.50771110  0.33693328  0.62680993  1
  In  In64  1  0.50751054  0.66357759  0.12536593  1
  In  In65  1  0.50834097  0.68099174  0.62670012  1
  In  In66  1  0.83359396  0.00747796  0.14000505  1
  In  In67  1  0.83235249  0.00334851  0.62142659  1
  In  In68  1  0.83425453  0.33851720  0.12646184  1
  In  In69  1  0.83417352  0.31691045  0.62200616  1
  In  In70  1  0.83170381  0.65348058  0.12412050  1
  In  In71  1  0.82473668  0.67858377  0.63261709  1
  In  In72  1  0.83886643  0.17938534  0.00318141  1
  In  In73  1  0.16480619  0.83854332  0.49352095  1
  In  In74  1  0.16979371  0.83547473  0.00896416  1
  In  In75  1  0.33669941  0.67455606  0.76143191  1
  In  In76  1  -0.00105848  0.67156491  0.25120775  1
  In  In77  1  0.66464800  0.32990317  0.25023266  1
  In  In78  1  -0.00351696  0.33079064  0.75168924  1
  In  In79  1  0.16930335  0.49377163  0.50020869  1
  In  In80  1  0.51510783  0.84449540  0.49050374  1
  In  In81  1  0.83865409  0.49038385  0.49968806  1
  In  In82  1  0.82925685  0.82787522  -0.00318212  1
  In  In83  1  0.33268549  0.33490588  0.75618364  1
  In  In84  1  0.49226808  0.49626180  0.49745824  1
  In  In85  1  0.49507483  0.83585390  0.00237375  1
  Cu  Cu86  1  0.66927932  0.66853911  0.50034994  1
  Cu  Cu87  1  0.33498539  0.32689210  0.00548173  1
  Cu  Cu88  1  0.50611380  0.84081090  0.74866144  1
  Cu  Cu89  1  0.17296573  0.50268700  0.23689588  1
  Cu  Cu90  1  0.17134898  0.83467898  0.74910901  1
  Cu  Cu91  1  0.00756406  0.32530640  0.00750349  1
  Cu  Cu92  1  0.49947897  0.49936415  0.24088566  1
  Cu  Cu93  1  0.50010757  0.50668459  0.75538349  1
  Cu  Cu94  1  0.66464033  0.33739753  -0.00178579  1
  Cu  Cu95  1  0.32409923  0.32315275  0.48904966  1
  Cu  Cu96  1  0.66996303  0.66494231  0.00251524  1
  Cu  Cu97  1  0.00465194  0.32383753  0.48545679  1
  Cu  Cu98  1  -0.00800361  0.67592342  0.50880022  1
  Cu  Cu99  1  0.16365072  0.16279241  0.74777531  1
  Cu  Cu100  1  0.82940252  0.50390143  0.24975175  1
  Cu  Cu101  1  0.50642320  0.16753078  0.25257595  1
  Cu  Cu102  1  0.00293277  0.00354436  0.00569338  1
  Cu  Cu103  1  0.84209427  0.83465728  0.74667048  1
  Cu  Cu104  1  0.49534354  0.16911810  0.75266341  1
  Cu  Cu105  1  0.32877334  0.00587070  0.49660998  1
  Cu  Cu106  1  0.15875779  0.83757981  0.25119204  1
  Cu  Cu107  1  0.82502010  0.83427200  0.25136184  1
  Cu  Cu108  1  0.82769127  0.16348468  0.74318861  1
  Cu  Cu109  1  0.83328121  0.50348056  0.75365824  1
  Cu  Cu110  1  0.33668452  0.66578531  0.48502869  1
  Cu  Cu111  1  0.66230895  0.32175617  0.50327958  1
  Cu  Cu112  1  0.65897294  0.01048181  0.00030390  1
  Cu  Cu113  1  0.00394787  0.00532503  0.49663604  1
  Cu  Cu114  1  0.00159339  0.65399214  -0.00067772  1
  Se  Se115  1  0.08233961  0.08265101  0.06471322  1
  Se  Se116  1  0.08951387  0.08668993  0.54949508  1
  Se  Se117  1  0.09106949  0.41306252  0.05600744  1
  Se  Se118  1  0.06818687  0.40764355  0.55632830  1
  Se  Se119  1  0.07476063  0.73784341  0.06109249  1
  Se  Se120  1  0.08289935  0.75022414  0.56375661  1
  Se  Se121  1  0.42029763  0.08523541  0.06024827  1
  Se  Se122  1  0.41273723  0.08301998  0.55462491  1
  Se  Se123  1  0.42506054  0.41392322  0.04835984  1
  Se  Se124  1  0.39875830  0.40380278  0.55546773  1
  Se  Se125  1  0.40767075  0.74744544  0.06369814  1
  Se  Se126  1  0.41934926  0.74409544  0.54648901  1
  Se  Se127  1  0.75014060  0.08034157  0.05919721  1
  Se  Se128  1  0.75937277  0.09984657  0.55836047  1
  Se  Se129  1  0.75439215  0.41326786  0.05182827  1
  Se  Se130  1  0.73702861  0.41177922  0.56123375  1
  Se  Se131  1  0.73993073  0.75055142  0.06545397  1
  Se  Se132  1  0.75113553  0.75187728  0.55388285  1
  Se  Se133  1  0.25230626  0.24399671  0.05906933  1
  Se  Se134  1  0.23727839  0.24956356  0.54760041  1
  Se  Se135  1  0.24657711  0.57434142  0.04414624  1
  Se  Se136  1  0.26055823  0.59352054  0.55464069  1
  Se  Se137  1  0.26071785  0.92574096  0.06563607  1
  Se  Se138  1  0.25762382  0.92097914  0.55949261  1
  Se  Se139  1  0.58980783  0.24521398  0.05007460  1
  Se  Se140  1  0.57502740  0.24552598  0.55743270  1
  Se  Se141  1  0.58598516  0.58084543  0.05357512  1
  Se  Se142  1  0.58787378  0.58682882  0.55810476  1
  Se  Se143  1  0.58358431  0.92808086  0.06100532  1
  Se  Se144  1  0.59103549  0.92531566  0.56461227  1
  Se  Se145  1  0.93314132  0.24634230  0.07274344  1
  Se  Se146  1  0.91801291  0.25118432  0.54539137  1
  Se  Se147  1  0.91249579  0.57698088  0.05236650  1
  Se  Se148  1  0.91988871  0.58467360  0.56488499  1
  Se  Se149  1  0.91374301  0.92491106  0.05833191  1
  Se  Se150  1  0.91959288  0.92263340  0.55097000  1
  Se  Se151  1  0.09053992  0.24872299  0.42912249  1
  Se  Se152  1  0.08625636  0.23991656  0.95261356  1
  Se  Se153  1  0.07652937  0.59734004  0.44886239  1
  Se  Se154  1  0.08600024  0.57275028  0.94612451  1
  Se  Se155  1  0.08592978  0.93378555  0.43070126  1
  Se  Se156  1  0.07731069  0.91828906  0.94456032  1
  Se  Se157  1  0.42104151  0.24301490  0.44805205  1
  Se  Se158  1  0.41642667  0.24438135  0.94917378  1
  Se  Se159  1  0.41755953  0.58480109  0.42784991  1
  Se  Se160  1  0.42113112  0.59186020  0.95903124  1
  Se  Se161  1  0.40878420  0.92318443  0.43803054  1
  Se  Se162  1  0.40559922  0.92981311  0.94566099  1
  Se  Se163  1  0.75407380  0.24481586  0.45327501  1
  Se  Se164  1  0.74184242  0.25232916  0.93663495  1
  Se  Se165  1  0.74498811  0.58225317  0.44077128  1
  Se  Se166  1  0.75152400  0.58219724  0.94613259  1
  Se  Se167  1  0.74633241  0.92023770  0.44044427  1
  Se  Se168  1  0.74171709  0.92953564  0.94293567  1
  Se  Se169  1  0.24661887  0.08870196  0.44224551  1
  Se  Se170  1  0.23252541  0.07895203  0.94815599  1
  Se  Se171  1  0.24627279  0.40816975  0.43133053  1
  Se  Se172  1  0.25246099  0.41001214  0.95063445  1
  Se  Se173  1  0.25749609  0.75310932  0.43122774  1
  Se  Se174  1  0.25583082  0.74341464  0.94540699  1
  Se  Se175  1  0.57145677  0.06951812  0.45445134  1
  Se  Se176  1  0.57731848  0.09001568  0.94399029  1
  Se  Se177  1  0.58411551  0.40138329  0.44117340  1
  Se  Se178  1  0.58152687  0.41818600  0.94290053  1
  Se  Se179  1  0.59197406  0.74091190  0.43324151  1
  Se  Se180  1  0.59571607  0.75218137  0.94277518  1
  Se  Se181  1  0.91723899  0.08381324  0.44115541  1
  Se  Se182  1  0.91981792  0.07709594  0.94223397  1
  Se  Se183  1  0.91964398  0.40572937  0.42988970  1
  Se  Se184  1  0.91957270  0.40537793  0.95409818  1
  Se  Se185  1  0.90772318  0.75843178  0.45712112  1
  Se  Se186  1  0.92653185  0.74182059  0.94067303  1
  Se  Se187  1  0.27806527  0.27492631  0.30476344  1
  Se  Se188  1  0.24355898  0.23864139  0.81062374  1
  Se  Se189  1  0.25022098  0.58538569  0.29537019  1
  Se  Se190  1  0.25148949  0.57398463  0.81281056  1
  Se  Se191  1  0.25417257  0.91975402  0.29414138  1
  Se  Se192  1  0.25424264  0.92052876  0.79914287  1
  Se  Se193  1  0.58860652  0.23871534  0.31773773  1
  Se  Se194  1  0.57829185  0.25593194  0.80255638  1
  Se  Se195  1  0.58798690  0.57782074  0.29289956  1
  Se  Se196  1  0.58626459  0.59026974  0.80595971  1
  Se  Se197  1  0.55277647  0.88754065  0.31268954  1
  Se  Se198  1  0.58545646  0.92672587  0.80366502  1
  Se  Se199  1  0.93671936  0.26909602  0.30122957  1
  Se  Se200  1  0.90477050  0.24010968  0.81108611  1
  Se  Se201  1  0.91103490  0.58047448  0.31426086  1
  Se  Se202  1  0.92097714  0.58027986  0.80818851  1
  Se  Se203  1  0.91376691  0.91561144  0.30158915  1
  Se  Se204  1  0.92305617  0.91785024  0.80253365  1
  Se  Se205  1  0.07612257  0.08077482  0.29546305  1
  Se  Se206  1  0.07641734  0.08142702  0.80006650  1
  Se  Se207  1  0.08712163  0.42935493  0.29546849  1
  Se  Se208  1  0.08755902  0.41429392  0.81382687  1
  Se  Se209  1  0.08119188  0.76143622  0.31733108  1
  Se  Se210  1  0.09327793  0.74830771  0.80382813  1
  Se  Se211  1  0.41551696  0.08595232  0.30327182  1
  Se  Se212  1  0.41028667  0.08921932  0.80708214  1
  Se  Se213  1  0.42033386  0.41576485  0.29649879  1
  Se  Se214  1  0.41820967  0.42943897  0.81566527  1
  Se  Se215  1  0.38582745  0.71871892  0.29974734  1
  Se  Se216  1  0.43020649  0.76540910  0.81748130  1
  Se  Se217  1  0.74250441  0.08849016  0.30910649  1
  Se  Se218  1  0.74665206  0.08025520  0.79992917  1
  Se  Se219  1  0.75646906  0.42002519  0.31368346  1
  Se  Se220  1  0.74897344  0.41830314  0.80391543  1
  Se  Se221  1  0.74816194  0.74264046  0.30186081  1
  Se  Se222  1  0.75753806  0.75538418  0.80387962  1
  Se  Se223  1  0.25052063  0.08755204  0.20497437  1
  Se  Se224  1  0.25059656  0.08375504  0.69345615  1
  Se  Se225  1  0.25736957  0.41771735  0.18770428  1
  Se  Se226  1  0.23416036  0.42407225  0.69920298  1
  Se  Se227  1  0.23870660  0.75426135  0.19556422  1
  Se  Se228  1  0.25103119  0.75373157  0.68667465  1
  Se  Se229  1  0.59321085  0.08316596  0.20233846  1
  Se  Se230  1  0.58008083  0.08713222  0.69885545  1
  Se  Se231  1  0.58009432  0.41399763  0.18238911  1
  Se  Se232  1  0.57893343  0.41831986  0.70182869  1
  Se  Se233  1  0.58394594  0.73945609  0.20158123  1
  Se  Se234  1  0.58867748  0.75089839  0.70157246  1
  Se  Se235  1  0.91304613  0.08572794  0.20985426  1
  Se  Se236  1  0.91787238  0.08328302  0.69375185  1
  Se  Se237  1  0.91321417  0.42341088  0.19652811  1
  Se  Se238  1  0.90895303  0.42273053  0.68837651  1
  Se  Se239  1  0.90775094  0.75875392  0.18735597  1
  Se  Se240  1  0.92538985  0.74583554  0.69694803  1
  Se  Se241  1  0.08530578  0.26158434  0.20610388  1
  Se  Se242  1  0.08271384  0.24258326  0.68714877  1
  Se  Se243  1  0.08310659  0.58516187  0.18499310  1
  Se  Se244  1  0.08969708  0.58028220  0.71053822  1
  Se  Se245  1  0.07643577  0.92210850  0.19918339  1
  Se  Se246  1  0.08482494  0.91612389  0.69616345  1
  Se  Se247  1  0.42282566  0.24795648  0.19734955  1
  Se  Se248  1  0.41503911  0.24757287  0.68891823  1
  Se  Se249  1  0.41523976  0.57990035  0.18656216  1
  Se  Se250  1  0.42068647  0.58291767  0.69043213  1
  Se  Se251  1  0.43674452  0.90335433  0.20216935  1
  Se  Se252  1  0.41637554  0.91973135  0.69855003  1
  Se  Se253  1  0.76224659  0.24138228  0.19477834  1
  Se  Se254  1  0.74610660  0.25418263  0.69650756  1
  Se  Se255  1  0.74520930  0.58501023  0.19778193  1
  Se  Se256  1  0.74926187  0.58888845  0.70102426  1
  Se  Se257  1  0.74292002  0.92019283  0.19920075  1
  Se  Se258  1  0.75680765  0.91694118  0.69386558  1
