# generated using pymatgen
data_In86Cu29Se144
_symmetry_space_group_name_H-M   'P 1'
_cell_length_a   17.58439665
_cell_length_b   17.58861534
_cell_length_c   23.44108253
_cell_angle_alpha   89.99342116
_cell_angle_beta   89.99951257
_cell_angle_gamma   90.01493628
_symmetry_Int_Tables_number   1
_chemical_formula_structural   In86Cu29Se144
_chemical_formula_sum   'In86 Cu29 Se144'
_cell_volume   7249.97933849
_cell_formula_units_Z   1
loop_
 _symmetry_equiv_pos_site_id
 _symmetry_equiv_pos_as_xyz
  1  'x, y, z'
loop_
 _atom_site_type_symbol
 _atom_site_label
 _atom_site_symmetry_multiplicity
 _atom_site_fract_x
 _atom_site_fract_y
 _atom_site_fract_z
 _atom_site_occupancy
  In  In0  1  -0.00119185  0.16465821  0.11774006  1
  In  In1  1  0.00096713  0.16442495  0.62441835  1
  In  In2  1  0.02125702  0.52828541  0.09632620  1
  In  In3  1  0.00272415  0.51798589  0.62735145  1
  In  In4  1  0.01591947  0.80880899  0.12976053  1
  In  In5  1  0.01290826  0.82372737  0.62981664  1
  In  In6  1  0.33410714  0.16645120  0.12472502  1
  In  In7  1  0.33497165  0.16065351  0.61551675  1
  In  In8  1  0.33214914  0.50053641  0.12833232  1
  In  In9  1  0.34740322  0.49499087  0.62827569  1
  In  In10  1  0.32360050  0.82716998  0.12345590  1
  In  In11  1  0.31732887  0.83957520  0.62679666  1
  In  In12  1  0.66726174  0.16134133  0.11403565  1
  In  In13  1  0.67421776  0.17625846  0.62162927  1
  In  In14  1  0.66760286  0.49698552  0.11639838  1
  In  In15  1  0.65246108  0.49175484  0.62043252  1
  In  In16  1  0.65393448  0.84960385  0.11986352  1
  In  In17  1  0.67502111  0.82568867  0.62799048  1
  In  In18  1  0.17635250  -0.00766173  0.37785820  1
  In  In19  1  0.15502815  0.01035031  0.89011773  1
  In  In20  1  0.16626514  0.31950305  0.37462402  1
  In  In21  1  0.17035333  0.32749499  0.88431073  1
  In  In22  1  0.17268743  0.67786087  0.36318517  1
  In  In23  1  0.16292519  0.66527203  0.87982759  1
  In  In24  1  0.49389547  0.01289437  0.37169796  1
  In  In25  1  0.48482992  0.01351846  0.89727275  1
  In  In26  1  0.49762649  0.33820084  0.37538209  1
  In  In27  1  0.50639133  0.32561144  0.88046564  1
  In  In28  1  0.48496879  0.67135273  0.37649174  1
  In  In29  1  0.48536697  0.67228879  0.88602182  1
  In  In30  1  0.83546630  0.00620527  0.37797342  1
  In  In31  1  0.85080668  -0.00568339  0.87625031  1
  In  In32  1  0.83375896  0.33539259  0.38168458  1
  In  In33  1  0.82750161  0.34079170  0.87250361  1
  In  In34  1  0.83910463  0.65058593  0.37160636  1
  In  In35  1  0.83453532  0.65806893  0.87720185  1
  In  In36  1  -0.00359236  0.17239944  0.38251857  1
  In  In37  1  0.01205939  0.14912097  0.88093415  1
  In  In38  1  -0.00946622  0.49978457  0.37576186  1
  In  In39  1  -0.00643081  0.51239413  0.88449214  1
  In  In40  1  0.02035759  0.83570222  0.37069297  1
  In  In41  1  0.00573652  0.83903102  0.87337556  1
  In  In42  1  0.33316772  0.16586206  0.36882472  1
  In  In43  1  0.32393867  0.16672897  0.88753124  1
  In  In44  1  0.33963940  0.50675502  0.36960718  1
  In  In45  1  0.31979180  0.50989635  0.88568549  1
  In  In46  1  0.31511220  0.82666244  0.35678977  1
  In  In47  1  0.33890800  0.83042580  0.88708277  1
  In  In48  1  0.66501106  0.16884703  0.38000448  1
  In  In49  1  0.65540142  0.17457418  0.87969980  1
  In  In50  1  0.67416479  0.49630521  0.38317146  1
  In  In51  1  0.67349193  0.49020203  0.87801743  1
  In  In52  1  0.65318229  0.83122131  0.37440942  1
  In  In53  1  0.65936595  0.82898462  0.88062420  1
  In  In54  1  0.18268910  0.00344893  0.11443710  1
  In  In55  1  0.16378959  -0.00320662  0.61963224  1
  In  In56  1  0.17196420  0.34323627  0.12044706  1
  In  In57  1  0.17969072  0.32783498  0.62390800  1
  In  In58  1  0.16970589  0.67119167  0.12325733  1
  In  In59  1  0.15977919  0.67269888  0.63241124  1
  In  In60  1  0.46443866  -0.02347316  0.08826092  1
  In  In61  1  0.48585933  0.00210793  0.62234441  1
  In  In62  1  0.48976109  0.32266578  0.11923469  1
  In  In63  1  0.50677561  0.34031001  0.62041950  1
  In  In64  1  0.49027586  0.65291265  0.12016114  1
  In  In65  1  0.49913680  0.65194962  0.62854118  1
  In  In66  1  0.83118793  0.00984620  0.12223964  1
  In  In67  1  0.83728039  0.01878195  0.62475632  1
  In  In68  1  0.83515367  0.33246215  0.11927907  1
  In  In69  1  0.82481843  0.32492648  0.62356722  1
  In  In70  1  0.84810852  0.66423015  0.12215990  1
  In  In71  1  0.84224597  0.66968720  0.62283779  1
  In  In72  1  0.66218617  0.00770441  0.24656953  1
  In  In73  1  0.16746736  0.49767144  0.50241729  1
  In  In74  1  0.32583471  0.00193336  0.75955763  1
  In  In75  1  0.83836866  0.83226867  0.50491672  1
  In  In76  1  0.33444218  0.33292061  0.75998918  1
  In  In77  1  0.00066366  0.33948948  0.25008419  1
  In  In78  1  0.01125092  -0.00071295  0.23979902  1
  In  In79  1  0.49519613  0.83189908  0.49654766  1
  In  In80  1  0.00155702  0.33441815  0.75047879  1
  In  In81  1  0.66575546  0.00270995  0.75748066  1
  In  In82  1  0.66337835  0.66726414  0.25611401  1
  In  In83  1  0.66963976  0.66477859  0.75604358  1
  In  In84  1  0.83271870  0.83477424  0.00353572  1
  In  In85  1  0.66378796  0.33186616  0.24002604  1
  Cu  Cu86  1  -0.00607005  0.32571617  -0.00621362  1
  Cu  Cu87  1  0.16694792  0.82841859  0.75393652  1
  Cu  Cu88  1  0.84682661  0.83726463  0.74909657  1
  Cu  Cu89  1  0.16885817  0.50459251  0.24164077  1
  Cu  Cu90  1  0.84078253  0.49891042  0.24473366  1
  Cu  Cu91  1  0.49651466  0.83146603  0.76224557  1
  Cu  Cu92  1  0.32822182  0.66286618  0.00450002  1
  Cu  Cu93  1  0.50009563  0.50044293  0.75086798  1
  Cu  Cu94  1  0.34017350  0.32652453  0.49742310  1
  Cu  Cu95  1  0.00122017  -0.00511307  0.00427389  1
  Cu  Cu96  1  -0.00616875  0.33195493  0.50296420  1
  Cu  Cu97  1  0.16847185  0.16482390  0.24882659  1
  Cu  Cu98  1  0.33035631  0.66606889  0.49607370  1
  Cu  Cu99  1  0.33279630  0.33647171  0.00494824  1
  Cu  Cu100  1  0.84236825  0.83288814  0.24755114  1
  Cu  Cu101  1  0.48839405  0.50041801  0.25134851  1
  Cu  Cu102  1  0.66033548  0.66753885  -0.00004079  1
  Cu  Cu103  1  0.00368724  0.00549674  0.49778762  1
  Cu  Cu104  1  0.50407216  0.17380438  0.75021590  1
  Cu  Cu105  1  0.67147729  0.33754625  -0.00209497  1
  Cu  Cu106  1  0.00604383  0.67081936  0.50144236  1
  Cu  Cu107  1  0.33202547  0.00460968  0.49447922  1
  Cu  Cu108  1  0.16520649  0.50654277  0.75863597  1
  Cu  Cu109  1  0.48808367  0.83422382  0.23825856  1
  Cu  Cu110  1  0.66524718  0.33071962  0.50156556  1
  Cu  Cu111  1  0.83395259  0.50257715  0.75347174  1
  Cu  Cu112  1  0.66216624  0.00206000  0.50108522  1
  Cu  Cu113  1  0.49232091  0.16310081  0.24166569  1
  Cu  Cu114  1  0.83794950  0.16818716  0.74881061  1
  Se  Se115  1  0.08569057  0.08248072  0.05339845  1
  Se  Se116  1  0.08660870  0.08787080  0.55323789  1
  Se  Se117  1  0.07684731  0.40702748  0.04984435  1
  Se  Se118  1  0.07550920  0.40958349  0.56474944  1
  Se  Se119  1  0.08031109  0.73765024  0.04867007  1
  Se  Se120  1  0.09243544  0.75208725  0.55291213  1
  Se  Se121  1  0.43106981  0.10976921  0.05230414  1
  Se  Se122  1  0.42144595  0.08411297  0.54519407  1
  Se  Se123  1  0.41651276  0.42064981  0.05699830  1
  Se  Se124  1  0.41688022  0.41572420  0.55146826  1
  Se  Se125  1  0.41433736  0.74593534  0.05631925  1
  Se  Se126  1  0.40753853  0.74609825  0.56195886  1
  Se  Se127  1  0.75370844  0.08049908  0.04764851  1
  Se  Se128  1  0.74802561  0.08471076  0.55270162  1
  Se  Se129  1  0.75662940  0.41932311  0.05077161  1
  Se  Se130  1  0.74694221  0.41441144  0.55696072  1
  Se  Se131  1  0.73974597  0.74469461  0.06425214  1
  Se  Se132  1  0.74082621  0.73736721  0.55318915  1
  Se  Se133  1  0.24857174  0.25021240  0.05598119  1
  Se  Se134  1  0.25194711  0.24740451  0.54963890  1
  Se  Se135  1  0.24674262  0.57685916  0.05730625  1
  Se  Se136  1  0.25662069  0.58738235  0.56306600  1
  Se  Se137  1  0.25610743  0.91370539  0.04779716  1
  Se  Se138  1  0.25115159  0.91937887  0.54917147  1
  Se  Se139  1  0.58859050  0.25683176  0.05346012  1
  Se  Se140  1  0.58013565  0.24664500  0.55399042  1
  Se  Se141  1  0.58055236  0.57911121  0.05167931  1
  Se  Se142  1  0.58131932  0.58606572  0.55465807  1
  Se  Se143  1  0.58984233  0.92778084  0.04297407  1
  Se  Se144  1  0.58903595  0.91822196  0.56245371  1
  Se  Se145  1  0.91218918  0.24460241  0.05066629  1
  Se  Se146  1  0.91423243  0.24617564  0.55768361  1
  Se  Se147  1  0.90205180  0.57823816  0.04422796  1
  Se  Se148  1  0.92045478  0.58662852  0.55119483  1
  Se  Se149  1  0.92713106  0.91484976  0.06914302  1
  Se  Se150  1  0.92694288  0.92496210  0.56264485  1
  Se  Se151  1  0.08181821  0.25294699  0.45043812  1
  Se  Se152  1  0.08503047  0.24226758  0.94840676  1
  Se  Se153  1  0.08339969  0.58869775  0.43901807  1
  Se  Se154  1  0.09254922  0.57424455  0.95024897  1
  Se  Se155  1  0.08596521  0.91827281  0.44759530  1
  Se  Se156  1  0.08310246  0.90970211  0.95177798  1
  Se  Se157  1  0.41974848  0.24502248  0.43927441  1
  Se  Se158  1  0.41312234  0.25336592  0.94755433  1
  Se  Se159  1  0.41564435  0.58088817  0.44762260  1
  Se  Se160  1  0.41526305  0.57841997  0.95376864  1
  Se  Se161  1  0.40687542  0.91786757  0.43343784  1
  Se  Se162  1  0.41680349  0.91317804  0.95811719  1
  Se  Se163  1  0.75026421  0.24969447  0.44707774  1
  Se  Se164  1  0.75064356  0.25342381  0.94162059  1
  Se  Se165  1  0.75668961  0.58369387  0.44529597  1
  Se  Se166  1  0.74377998  0.58661447  0.94496922  1
  Se  Se167  1  0.74049130  0.91895768  0.44185180  1
  Se  Se168  1  0.74649460  0.92315128  0.93994692  1
  Se  Se169  1  0.24844254  0.08930200  0.44204663  1
  Se  Se170  1  0.26524602  0.06382499  0.95110750  1
  Se  Se171  1  0.25618592  0.40958722  0.44005611  1
  Se  Se172  1  0.24594209  0.41649178  0.95161497  1
  Se  Se173  1  0.25199697  0.75041650  0.44018522  1
  Se  Se174  1  0.24830874  0.74689926  0.94895230  1
  Se  Se175  1  0.58067900  0.08221833  0.44431864  1
  Se  Se176  1  0.59061174  0.08358980  0.95053244  1
  Se  Se177  1  0.58440711  0.41382370  0.44527822  1
  Se  Se178  1  0.58228602  0.41806458  0.94678360  1
  Se  Se179  1  0.59006452  0.73573318  0.44530851  1
  Se  Se180  1  0.57623383  0.75313123  0.95086116  1
  Se  Se181  1  0.91354431  0.08609341  0.44925140  1
  Se  Se182  1  0.91881866  0.07922490  0.95111593  1
  Se  Se183  1  0.91571786  0.41943975  0.44959037  1
  Se  Se184  1  0.91390020  0.41527589  0.94334484  1
  Se  Se185  1  0.92565555  0.74878917  0.43782426  1
  Se  Se186  1  0.92038372  0.74739339  0.94148492  1
  Se  Se187  1  0.25041993  0.25165443  0.30019255  1
  Se  Se188  1  0.24028842  0.23717232  0.80808048  1
  Se  Se189  1  0.25129290  0.58296030  0.30174731  1
  Se  Se190  1  0.25206835  0.58935907  0.80777442  1
  Se  Se191  1  0.24600175  0.92619030  0.29577827  1
  Se  Se192  1  0.24135765  0.90829950  0.81815958  1
  Se  Se193  1  0.57685283  0.24061817  0.30253888  1
  Se  Se194  1  0.58712559  0.25668820  0.80228375  1
  Se  Se195  1  0.57458487  0.57279483  0.31312072  1
  Se  Se196  1  0.57524453  0.58113235  0.81580593  1
  Se  Se197  1  0.56949036  0.90988738  0.30224641  1
  Se  Se198  1  0.56923869  0.92023249  0.81822189  1
  Se  Se199  1  0.90921720  0.24786953  0.30754927  1
  Se  Se200  1  0.91794622  0.24270705  0.81370434  1
  Se  Se201  1  0.92446362  0.58215944  0.29765619  1
  Se  Se202  1  0.91870898  0.58500933  0.80413213  1
  Se  Se203  1  0.91600795  0.91762998  0.30822341  1
  Se  Se204  1  0.92875620  0.92259191  0.80000780  1
  Se  Se205  1  0.08487651  0.09131619  0.31126765  1
  Se  Se206  1  0.09039741  0.07740864  0.80565585  1
  Se  Se207  1  0.09490408  0.42708105  0.31061505  1
  Se  Se208  1  0.08865917  0.42049207  0.81566504  1
  Se  Se209  1  0.07963328  0.74843456  0.29613031  1
  Se  Se210  1  0.08154862  0.74664133  0.80724138  1
  Se  Se211  1  0.41033686  0.07955487  0.29657293  1
  Se  Se212  1  0.42331796  0.09562088  0.81159406  1
  Se  Se213  1  0.41143715  0.41044503  0.30341934  1
  Se  Se214  1  0.42111740  0.42644381  0.81749111  1
  Se  Se215  1  0.41548027  0.74862527  0.29882757  1
  Se  Se216  1  0.40957217  0.74816960  0.80957257  1
  Se  Se217  1  0.75566994  0.09286852  0.30711136  1
  Se  Se218  1  0.76013071  0.09008094  0.81404637  1
  Se  Se219  1  0.75677900  0.42038105  0.30340591  1
  Se  Se220  1  0.74641950  0.41697472  0.79833574  1
  Se  Se221  1  0.75887223  0.76044597  0.31180294  1
  Se  Se222  1  0.76098246  0.76327127  0.80992057  1
  Se  Se223  1  0.25012052  0.08314896  0.19359612  1
  Se  Se224  1  0.24696878  0.08824138  0.68959469  1
  Se  Se225  1  0.25134037  0.41349241  0.19749229  1
  Se  Se226  1  0.24365097  0.42540852  0.69748043  1
  Se  Se227  1  0.25410149  0.74195802  0.19708282  1
  Se  Se228  1  0.25223167  0.74931106  0.69880108  1
  Se  Se229  1  0.57217563  0.08489338  0.18117108  1
  Se  Se230  1  0.57678717  0.08635108  0.69004746  1
  Se  Se231  1  0.57118399  0.42682873  0.18865212  1
  Se  Se232  1  0.58120964  0.41481692  0.69884063  1
  Se  Se233  1  0.57873525  0.75409910  0.18824178  1
  Se  Se234  1  0.57618016  0.75702435  0.69730236  1
  Se  Se235  1  0.91136769  0.09344829  0.19547372  1
  Se  Se236  1  0.92317784  0.08438019  0.69935537  1
  Se  Se237  1  0.92115790  0.42589515  0.18149403  1
  Se  Se238  1  0.91235523  0.42409690  0.68900632  1
  Se  Se239  1  0.92026118  0.74242798  0.19900418  1
  Se  Se240  1  0.92113869  0.74669188  0.69590363  1
  Se  Se241  1  0.08717118  0.24539810  0.19003328  1
  Se  Se242  1  0.09482661  0.24531727  0.69342443  1
  Se  Se243  1  0.08145472  0.58187210  0.18826348  1
  Se  Se244  1  0.08214148  0.58795704  0.70344673  1
  Se  Se245  1  0.10134947  0.90863322  0.18526974  1
  Se  Se246  1  0.09142037  0.91431943  0.69499941  1
  Se  Se247  1  0.40996038  0.25520944  0.19718989  1
  Se  Se248  1  0.41790859  0.24712659  0.68972009  1
  Se  Se249  1  0.41005276  0.58823769  0.19927838  1
  Se  Se250  1  0.41299618  0.58398469  0.70243455  1
  Se  Se251  1  0.41295976  0.92070671  0.18292370  1
  Se  Se252  1  0.41980565  0.91116637  0.69771364  1
  Se  Se253  1  0.75695600  0.23922112  0.18872606  1
  Se  Se254  1  0.74865823  0.24910758  0.70040040  1
  Se  Se255  1  0.75099393  0.57935151  0.19193308  1
  Se  Se256  1  0.75355509  0.57934205  0.68881371  1
  Se  Se257  1  0.75718640  0.91081292  0.19225771  1
  Se  Se258  1  0.75885130  0.91503307  0.69321835  1
