# generated using pymatgen
data_In86Cu29Se144
_symmetry_space_group_name_H-M   'P 1'
_cell_length_a   17.57809173
_cell_length_b   17.58042377
_cell_length_c   23.43268608
_cell_angle_alpha   89.99240960
_cell_angle_beta   89.98594058
_cell_angle_gamma   89.99010322
_symmetry_Int_Tables_number   1
_chemical_formula_structural   In86Cu29Se144
_chemical_formula_sum   'In86 Cu29 Se144'
_cell_volume   7241.40965686
_cell_formula_units_Z   1
loop_
 _symmetry_equiv_pos_site_id
 _symmetry_equiv_pos_as_xyz
  1  'x, y, z'
loop_
 _atom_site_type_symbol
 _atom_site_label
 _atom_site_symmetry_multiplicity
 _atom_site_fract_x
 _atom_site_fract_y
 _atom_site_fract_z
 _atom_site_occupancy
  In  In0  1  0.01399411  0.16475255  0.12565276  1
  In  In1  1  -0.00413536  0.18132690  0.62888106  1
  In  In2  1  -0.01314079  0.50446510  0.12574085  1
  In  In3  1  -0.00402168  0.50737038  0.62171750  1
  In  In4  1  -0.00098221  0.82921610  0.11343732  1
  In  In5  1  -0.01591833  0.80745608  0.60556354  1
  In  In6  1  0.32448246  0.16773042  0.12635049  1
  In  In7  1  0.33618661  0.15157072  0.62398112  1
  In  In8  1  0.34436211  0.49363120  0.12620551  1
  In  In9  1  0.34544840  0.51872712  0.60662414  1
  In  In10  1  0.32728183  0.84112649  0.12956991  1
  In  In11  1  0.33461387  0.83287130  0.62745302  1
  In  In12  1  0.65499592  0.15837314  0.12834007  1
  In  In13  1  0.66258690  0.16209029  0.62028287  1
  In  In14  1  0.66356849  0.49258480  0.10653192  1
  In  In15  1  0.67710556  0.50353025  0.62311349  1
  In  In16  1  0.67840063  0.83928144  0.12647666  1
  In  In17  1  0.66497760  0.82073270  0.64394850  1
  In  In18  1  0.17103273  -0.01408619  0.37712839  1
  In  In19  1  0.17412071  -0.00978050  0.88015079  1
  In  In20  1  0.16543135  0.34824970  0.37392966  1
  In  In21  1  0.15430321  0.33911790  0.87592979  1
  In  In22  1  0.18125597  0.64737796  0.40462570  1
  In  In23  1  0.17335017  0.67446452  0.86463085  1
  In  In24  1  0.50752034  0.00730369  0.36361804  1
  In  In25  1  0.49847365  -0.00884825  0.85927112  1
  In  In26  1  0.50229692  0.32908334  0.38364183  1
  In  In27  1  0.51288281  0.34031580  0.88338765  1
  In  In28  1  0.48376424  0.66922818  0.38149023  1
  In  In29  1  0.49210776  0.66181779  0.86302365  1
  In  In30  1  0.83555028  -0.00007260  0.38425544  1
  In  In31  1  0.81598903  0.00153521  0.86866545  1
  In  In32  1  0.83538265  0.33020376  0.37786663  1
  In  In33  1  0.84394793  0.33092718  0.87636024  1
  In  In34  1  0.84554383  0.66051061  0.39879131  1
  In  In35  1  0.83697273  0.66698156  0.87063701  1
  In  In36  1  -0.01469818  0.16889756  0.37603669  1
  In  In37  1  -0.00270880  0.18224991  0.86957375  1
  In  In38  1  0.00512142  0.49727264  0.38316732  1
  In  In39  1  -0.00580530  0.49053796  0.86374009  1
  In  In40  1  0.01306215  0.81559560  0.39869855  1
  In  In41  1  0.01078213  0.82547716  0.87574296  1
  In  In42  1  0.34943711  0.16042228  0.37369577  1
  In  In43  1  0.33981921  0.15091635  0.87760628  1
  In  In44  1  0.33128131  0.50752573  0.38711257  1
  In  In45  1  0.32900121  0.51096969  0.87495500  1
  In  In46  1  0.32447282  0.82645444  0.36863419  1
  In  In47  1  0.32826566  0.82248679  0.85959875  1
  In  In48  1  0.67079352  0.15945315  0.37835639  1
  In  In49  1  0.67635162  0.15635644  0.87131362  1
  In  In50  1  0.66194043  0.50454234  0.38639965  1
  In  In51  1  0.65753928  0.50903316  0.88235263  1
  In  In52  1  0.67138004  0.84109590  0.37719427  1
  In  In53  1  0.67734029  0.84099281  0.86482493  1
  In  In54  1  0.16940525  0.00331706  0.11853921  1
  In  In55  1  0.18498424  -0.01135354  0.62785584  1
  In  In56  1  0.17108861  0.31871871  0.12684218  1
  In  In57  1  0.14791502  0.34410553  0.62935216  1
  In  In58  1  0.16608450  0.67999065  0.12319189  1
  In  In59  1  0.16879723  0.66653904  0.61875779  1
  In  In60  1  0.49958051  0.00741013  0.14168667  1
  In  In61  1  0.49419854  -0.00015234  0.63085859  1
  In  In62  1  0.48915713  0.33742046  0.11911411  1
  In  In63  1  0.50347721  0.33130289  0.61666720  1
  In  In64  1  0.49468527  0.65223115  0.12565543  1
  In  In65  1  0.50339139  0.66626745  0.63327528  1
  In  In66  1  0.83169160  -0.01171811  0.12664546  1
  In  In67  1  0.82378040  -0.00583003  0.62283930  1
  In  In68  1  0.82978490  0.35098672  0.12496138  1
  In  In69  1  0.84089553  0.34206435  0.62063543  1
  In  In70  1  0.83157789  0.66677117  0.11396568  1
  In  In71  1  0.83048678  0.66366377  0.62802536  1
  In  In72  1  0.49948670  0.83307292  0.50498594  1
  In  In73  1  0.49701197  0.17127931  0.00488969  1
  In  In74  1  0.32347882  0.33819220  0.75289393  1
  In  In75  1  0.50122595  0.83331328  -0.00517942  1
  In  In76  1  0.66761484  0.67259987  0.24892499  1
  In  In77  1  0.33470893  0.32845911  0.24665346  1
  In  In78  1  0.67298079  0.33276517  0.75428636  1
  In  In79  1  0.66524060  0.32881160  0.24938890  1
  In  In80  1  0.16665560  0.16886574  0.50705595  1
  In  In81  1  0.00228209  -0.00335075  0.74247062  1
  In  In82  1  0.16704515  0.50110186  -0.00198324  1
  In  In83  1  0.83539543  0.16824945  -0.00807399  1
  In  In84  1  -0.00090799  -0.00355197  0.25635688  1
  In  In85  1  0.00317915  0.66891708  0.25658585  1
  Cu  Cu86  1  0.49683166  0.16281450  0.74613859  1
  Cu  Cu87  1  0.66868846  0.32837801  0.50044726  1
  Cu  Cu88  1  0.16387277  0.16576177  0.74797466  1
  Cu  Cu89  1  0.16923910  0.83396657  0.25022654  1
  Cu  Cu90  1  0.83303046  0.16570564  0.25748489  1
  Cu  Cu91  1  0.83021651  0.50144059  0.24732877  1
  Cu  Cu92  1  0.16810338  0.16447020  0.24765639  1
  Cu  Cu93  1  0.33470519  0.66997163  -0.00859134  1
  Cu  Cu94  1  0.16627257  0.50575340  0.26168381  1
  Cu  Cu95  1  0.34452078  -0.00241318  0.50073795  1
  Cu  Cu96  1  -0.00150054  0.66458868  -0.00638866  1
  Cu  Cu97  1  0.83567254  0.50510118  0.74561176  1
  Cu  Cu98  1  0.67005463  0.67243279  -0.00476576  1
  Cu  Cu99  1  0.66621977  0.66580975  0.51148554  1
  Cu  Cu100  1  0.16726765  0.50971875  0.74529620  1
  Cu  Cu101  1  0.83559958  0.83402605  0.25459130  1
  Cu  Cu102  1  0.49576528  0.82993302  0.25581553  1
  Cu  Cu103  1  0.00137263  -0.00235940  -0.00103354  1
  Cu  Cu104  1  0.66415123  -0.00269925  -0.00498031  1
  Cu  Cu105  1  0.84009783  0.82830800  0.74655285  1
  Cu  Cu106  1  0.16320811  0.82719347  0.74384193  1
  Cu  Cu107  1  0.32540137  -0.00662140  -0.00045794  1
  Cu  Cu108  1  0.50092598  0.50386133  0.74858255  1
  Cu  Cu109  1  0.00070934  0.33351180  -0.00168714  1
  Cu  Cu110  1  0.00197154  0.00361216  0.50394174  1
  Cu  Cu111  1  0.49520752  0.50063947  0.25163167  1
  Cu  Cu112  1  0.66661656  -0.00071872  0.50045162  1
  Cu  Cu113  1  0.33062859  0.33214822  0.49848143  1
  Cu  Cu114  1  -0.00505912  0.33666379  0.50236357  1
  Se  Se115  1  0.08389658  0.08405269  0.05019595  1
  Se  Se116  1  0.08093937  0.07804459  0.56915104  1
  Se  Se117  1  0.07893656  0.41265089  0.06208571  1
  Se  Se118  1  0.07983837  0.42195666  0.55133970  1
  Se  Se119  1  0.08380791  0.74691943  0.04654009  1
  Se  Se120  1  0.10257017  0.76480349  0.55094702  1
  Se  Se121  1  0.41033864  0.06980759  0.06000189  1
  Se  Se122  1  0.42530547  0.08334890  0.55238502  1
  Se  Se123  1  0.41867768  0.42370635  0.04882549  1
  Se  Se124  1  0.41827610  0.41369142  0.55046912  1
  Se  Se125  1  0.41166823  0.74621618  0.05795806  1
  Se  Se126  1  0.41045748  0.73768714  0.55803578  1
  Se  Se127  1  0.74503345  0.07842195  0.05596519  1
  Se  Se128  1  0.75127861  0.08392224  0.55198107  1
  Se  Se129  1  0.75989634  0.41994652  0.04516082  1
  Se  Se130  1  0.74985979  0.41582435  0.55238751  1
  Se  Se131  1  0.74894954  0.75681904  0.05152159  1
  Se  Se132  1  0.74324401  0.75344962  0.56495776  1
  Se  Se133  1  0.26176457  0.25808790  0.05483035  1
  Se  Se134  1  0.25454823  0.25970610  0.56794408  1
  Se  Se135  1  0.25760579  0.59146471  0.05782425  1
  Se  Se136  1  0.23465153  0.57216987  0.54746216  1
  Se  Se137  1  0.24415820  0.90851048  0.05295816  1
  Se  Se138  1  0.25916952  0.91376298  0.55082163  1
  Se  Se139  1  0.59505456  0.25992385  0.05921799  1
  Se  Se140  1  0.58183647  0.24409003  0.54951798  1
  Se  Se141  1  0.58440571  0.59231770  0.05067952  1
  Se  Se142  1  0.58092307  0.58247318  0.56195044  1
  Se  Se143  1  0.58341111  0.92507504  0.06090110  1
  Se  Se144  1  0.59222005  0.91858449  0.56508537  1
  Se  Se145  1  0.92171590  0.25317686  0.06089247  1
  Se  Se146  1  0.91404022  0.24818109  0.55167545  1
  Se  Se147  1  0.91631709  0.58199124  0.04845994  1
  Se  Se148  1  0.90497130  0.58175468  0.55475609  1
  Se  Se149  1  0.91380588  0.91806226  0.05167206  1
  Se  Se150  1  0.91607403  0.92054509  0.55492674  1
  Se  Se151  1  0.07849105  0.25604829  0.44209615  1
  Se  Se152  1  0.08237758  0.24856154  0.94604987  1
  Se  Se153  1  0.04770732  0.61497316  0.44055225  1
  Se  Se154  1  0.08060981  0.58676706  0.93276180  1
  Se  Se155  1  0.08842349  0.92059693  0.45333472  1
  Se  Se156  1  0.08499313  0.91226767  0.94701959  1
  Se  Se157  1  0.41478498  0.24622352  0.44900683  1
  Se  Se158  1  0.40977175  0.25700711  0.93983401  1
  Se  Se159  1  0.43044902  0.57232416  0.45204690  1
  Se  Se160  1  0.42039504  0.58591227  0.94220335  1
  Se  Se161  1  0.41854546  0.91892838  0.43465497  1
  Se  Se162  1  0.40849267  0.92062794  0.93559773  1
  Se  Se163  1  0.75139610  0.24700262  0.44430068  1
  Se  Se164  1  0.73795564  0.25854722  0.94008252  1
  Se  Se165  1  0.74757048  0.58101241  0.45593386  1
  Se  Se166  1  0.75381025  0.58805887  0.94310141  1
  Se  Se167  1  0.75210534  0.91423639  0.45125292  1
  Se  Se168  1  0.75089768  0.91587508  0.94485978  1
  Se  Se169  1  0.25612369  0.07911537  0.44468281  1
  Se  Se170  1  0.24763289  0.08376503  0.94797886  1
  Se  Se171  1  0.24583865  0.41724148  0.44939556  1
  Se  Se172  1  0.25749030  0.40975649  0.94001236  1
  Se  Se173  1  0.25696189  0.75637718  0.44982875  1
  Se  Se174  1  0.25128191  0.75294530  0.93936888  1
  Se  Se175  1  0.58201435  0.07783579  0.44403580  1
  Se  Se176  1  0.58019348  0.07784339  0.93926893  1
  Se  Se177  1  0.58280853  0.41409829  0.45053704  1
  Se  Se178  1  0.58630311  0.42179645  0.95405364  1
  Se  Se179  1  0.59217877  0.74235551  0.44314188  1
  Se  Se180  1  0.58970829  0.74732709  0.93196534  1
  Se  Se181  1  0.91790162  0.08624814  0.45140678  1
  Se  Se182  1  0.92397616  0.07438026  0.93369126  1
  Se  Se183  1  0.91214027  0.41841605  0.44615536  1
  Se  Se184  1  0.92118587  0.41896612  0.94461309  1
  Se  Se185  1  0.89907644  0.76998562  0.45834914  1
  Se  Se186  1  0.91646360  0.75166264  0.94203365  1
  Se  Se187  1  0.24400531  0.24361572  0.31288760  1
  Se  Se188  1  0.24302983  0.24060956  0.81381311  1
  Se  Se189  1  0.24804921  0.58663917  0.31621079  1
  Se  Se190  1  0.25609462  0.58729356  0.79845621  1
  Se  Se191  1  0.25309203  0.92051915  0.29979637  1
  Se  Se192  1  0.24201778  0.91381152  0.79979060  1
  Se  Se193  1  0.57579338  0.24103883  0.30925759  1
  Se  Se194  1  0.57381853  0.24180671  0.80939102  1
  Se  Se195  1  0.57797400  0.58144203  0.30906584  1
  Se  Se196  1  0.58856935  0.58322867  0.80141749  1
  Se  Se197  1  0.58676349  0.90956256  0.30348726  1
  Se  Se198  1  0.60257941  0.93169420  0.79844091  1
  Se  Se199  1  0.91659211  0.25536063  0.30241580  1
  Se  Se200  1  0.90537524  0.24664493  0.80006351  1
  Se  Se201  1  0.90541888  0.58090432  0.31079879  1
  Se  Se202  1  0.92144858  0.58651040  0.79987142  1
  Se  Se203  1  0.92066553  0.90189448  0.31939187  1
  Se  Se204  1  0.91455645  0.91167623  0.80927868  1
  Se  Se205  1  0.09018800  0.08959609  0.31463621  1
  Se  Se206  1  0.08701255  0.08370875  0.81040499  1
  Se  Se207  1  0.07635249  0.42015397  0.30405191  1
  Se  Se208  1  0.08900851  0.41823537  0.79682640  1
  Se  Se209  1  0.09543726  0.75506725  0.31488325  1
  Se  Se210  1  0.07855007  0.74546030  0.79744257  1
  Se  Se211  1  0.41116136  0.07717841  0.29775708  1
  Se  Se212  1  0.41111684  0.07959311  0.79779259  1
  Se  Se213  1  0.41890246  0.41773106  0.31210375  1
  Se  Se214  1  0.42512702  0.42117078  0.81029206  1
  Se  Se215  1  0.41190831  0.74287467  0.30276103  1
  Se  Se216  1  0.43555271  0.76591821  0.79698477  1
  Se  Se217  1  0.75583452  0.07783495  0.30970885  1
  Se  Se218  1  0.75140014  0.08699447  0.79433370  1
  Se  Se219  1  0.74759527  0.42638204  0.30967647  1
  Se  Se220  1  0.75801967  0.42850061  0.81237883  1
  Se  Se221  1  0.76280110  0.74698470  0.31540215  1
  Se  Se222  1  0.75286514  0.74694667  0.79986651  1
  Se  Se223  1  0.24766836  0.07928269  0.19433679  1
  Se  Se224  1  0.24977860  0.08333821  0.69816532  1
  Se  Se225  1  0.24016798  0.42523825  0.19449532  1
  Se  Se226  1  0.24889585  0.42962864  0.68489611  1
  Se  Se227  1  0.25099964  0.74850360  0.19699016  1
  Se  Se228  1  0.25112088  0.74521224  0.69263315  1
  Se  Se229  1  0.59501860  0.07730371  0.20602937  1
  Se  Se230  1  0.58452623  0.08361289  0.69422899  1
  Se  Se231  1  0.57743184  0.42515137  0.18982148  1
  Se  Se232  1  0.57889862  0.41802410  0.69200630  1
  Se  Se233  1  0.57400163  0.75802408  0.18670538  1
  Se  Se234  1  0.55772324  0.76349861  0.70679061  1
  Se  Se235  1  0.91241640  0.08753238  0.19236062  1
  Se  Se236  1  0.90865888  0.08844803  0.68964375  1
  Se  Se237  1  0.91752480  0.41751436  0.19924414  1
  Se  Se238  1  0.91925913  0.42010116  0.69426373  1
  Se  Se239  1  0.91076224  0.75374830  0.19065279  1
  Se  Se240  1  0.92199716  0.74429438  0.69404268  1
  Se  Se241  1  0.08270803  0.25053769  0.20009050  1
  Se  Se242  1  0.08066148  0.25415479  0.70173212  1
  Se  Se243  1  0.09052178  0.57906532  0.19139989  1
  Se  Se244  1  0.08211522  0.58845413  0.69009626  1
  Se  Se245  1  0.08359302  0.90868544  0.18961067  1
  Se  Se246  1  0.08267443  0.90238060  0.68059123  1
  Se  Se247  1  0.42965939  0.23849846  0.19164034  1
  Se  Se248  1  0.41772122  0.25014833  0.69167520  1
  Se  Se249  1  0.40921704  0.58324849  0.20039063  1
  Se  Se250  1  0.41160447  0.58005789  0.69486519  1
  Se  Se251  1  0.41522450  0.91439790  0.19960715  1
  Se  Se252  1  0.40129435  0.92771861  0.69581903  1
  Se  Se253  1  0.75958308  0.24197745  0.18842940  1
  Se  Se254  1  0.75394952  0.24934707  0.68553640  1
  Se  Se255  1  0.74947874  0.57716291  0.18534427  1
  Se  Se256  1  0.74387705  0.58627310  0.69984187  1
  Se  Se257  1  0.75102775  0.91795227  0.20352926  1
  Se  Se258  1  0.75324446  0.91442639  0.69983825  1
