# generated using pymatgen
data_In86Cu29Se144
_symmetry_space_group_name_H-M   'P 1'
_cell_length_a   17.59326713
_cell_length_b   17.59850317
_cell_length_c   23.45087594
_cell_angle_alpha   89.99789420
_cell_angle_beta   90.00124296
_cell_angle_gamma   90.03837556
_symmetry_Int_Tables_number   1
_chemical_formula_structural   In86Cu29Se144
_chemical_formula_sum   'In86 Cu29 Se144'
_cell_volume   7260.74524103
_cell_formula_units_Z   1
loop_
 _symmetry_equiv_pos_site_id
 _symmetry_equiv_pos_as_xyz
  1  'x, y, z'
loop_
 _atom_site_type_symbol
 _atom_site_label
 _atom_site_symmetry_multiplicity
 _atom_site_fract_x
 _atom_site_fract_y
 _atom_site_fract_z
 _atom_site_occupancy
  In  In0  1  0.01025574  0.14965105  0.14724543  1
  In  In1  1  -0.00940543  0.15778688  0.62599304  1
  In  In2  1  -0.01205566  0.50141797  0.12253053  1
  In  In3  1  0.00492930  0.48383132  0.61956228  1
  In  In4  1  0.00268900  0.84769506  0.11406928  1
  In  In5  1  -0.00055039  0.84767337  0.62727073  1
  In  In6  1  0.34641729  0.17339842  0.10891452  1
  In  In7  1  0.34699465  0.17198744  0.62699488  1
  In  In8  1  0.33272319  0.48209724  0.12440013  1
  In  In9  1  0.33269907  0.50198023  0.62361110  1
  In  In10  1  0.34521657  0.85657799  0.09698396  1
  In  In11  1  0.34093583  0.81739156  0.63202720  1
  In  In12  1  0.63965504  0.18553013  0.14561194  1
  In  In13  1  0.67432804  0.17424288  0.62576693  1
  In  In14  1  0.66392419  0.50152825  0.12610329  1
  In  In15  1  0.62455159  0.53076076  0.66726948  1
  In  In16  1  0.66811761  0.82843715  0.12471469  1
  In  In17  1  0.65839234  0.82087384  0.60997775  1
  In  In18  1  0.16888391  0.01060195  0.36351165  1
  In  In19  1  0.16102842  0.01137421  0.88748207  1
  In  In20  1  0.17435897  0.33901605  0.36218420  1
  In  In21  1  0.17453659  0.32103141  0.88192448  1
  In  In22  1  0.15286399  0.66485025  0.37729410  1
  In  In23  1  0.18118933  0.65793965  0.87265900  1
  In  In24  1  0.50510368  -0.01744977  0.37345136  1
  In  In25  1  0.49323879  0.00083832  0.89471369  1
  In  In26  1  0.51228761  0.33955074  0.36286970  1
  In  In27  1  0.50297282  0.33606797  0.87519579  1
  In  In28  1  0.51345876  0.65662065  0.38681708  1
  In  In29  1  0.50897835  0.66461931  0.87292317  1
  In  In30  1  0.82937966  -0.00781481  0.36058482  1
  In  In31  1  0.83492723  -0.02079312  0.87617733  1
  In  In32  1  0.82519779  0.32547206  0.36187773  1
  In  In33  1  0.83366403  0.34596066  0.88681734  1
  In  In34  1  0.83065037  0.68314792  0.38324648  1
  In  In35  1  0.81079693  0.68571075  0.87811046  1
  In  In36  1  -0.00842126  0.16232056  0.34676022  1
  In  In37  1  0.01525331  0.16585200  0.88303173  1
  In  In38  1  0.00811026  0.50256686  0.38015159  1
  In  In39  1  -0.00124584  0.48473020  0.88099030  1
  In  In40  1  -0.00219495  0.83093383  0.37064977  1
  In  In41  1  -0.01453698  0.84655017  0.87537421  1
  In  In42  1  0.33199654  0.18186944  0.36205791  1
  In  In43  1  0.32532466  0.17145365  0.88473112  1
  In  In44  1  0.34512299  0.49494494  0.38079631  1
  In  In45  1  0.36025164  0.51560475  0.85367704  1
  In  In46  1  0.34606232  0.84157367  0.37185639  1
  In  In47  1  0.34535021  0.82049582  0.88769715  1
  In  In48  1  0.67091614  0.16596932  0.35207448  1
  In  In49  1  0.65406465  0.16638669  0.88447856  1
  In  In50  1  0.65857686  0.49704867  0.37226399  1
  In  In51  1  0.66187951  0.49992607  0.87439102  1
  In  In52  1  0.66882315  0.83126222  0.36887661  1
  In  In53  1  0.66938723  0.82656173  0.88070912  1
  In  In54  1  0.16615228  -0.00026445  0.11287699  1
  In  In55  1  0.15685269  -0.00778756  0.62869244  1
  In  In56  1  0.18344616  0.31044414  0.14241868  1
  In  In57  1  0.16544200  0.34205030  0.62091544  1
  In  In58  1  0.15739221  0.67714159  0.12048526  1
  In  In59  1  0.18379901  0.66220840  0.63036460  1
  In  In60  1  0.51044617  0.00956860  0.11582735  1
  In  In61  1  0.51475553  -0.00913778  0.62485101  1
  In  In62  1  0.49635314  0.33681124  0.12292878  1
  In  In63  1  0.47770171  0.36269486  0.65142839  1
  In  In64  1  0.50763642  0.67376897  0.11795812  1
  In  In65  1  0.49807676  0.66576021  0.62540226  1
  In  In66  1  0.83391365  -0.00097371  0.13178236  1
  In  In67  1  0.84604694  -0.00052993  0.62835959  1
  In  In68  1  0.82107972  0.33491217  0.13685246  1
  In  In69  1  0.82885753  0.32894642  0.62581063  1
  In  In70  1  0.82380408  0.65570103  0.11780983  1
  In  In71  1  0.81106494  0.66795755  0.62662839  1
  In  In72  1  0.32535441  0.00169730  0.76640936  1
  In  In73  1  0.50782527  0.16687706  0.49080733  1
  In  In74  1  0.67218133  -0.00369204  0.75407630  1
  In  In75  1  0.82358254  0.50238777  0.50311954  1
  In  In76  1  0.83401969  0.16455390  0.48558616  1
  In  In77  1  0.33239117  0.66730769  0.24543545  1
  In  In78  1  0.16880624  0.49528133  -0.00061082  1
  In  In79  1  -0.00580199  0.66514716  0.25172861  1
  In  In80  1  0.00096189  0.32715214  0.74942046  1
  In  In81  1  0.83233595  0.16396576  0.02104814  1
  In  In82  1  -0.00539118  0.66639416  0.75113359  1
  In  In83  1  0.17338653  0.82643955  0.50223723  1
  In  In84  1  0.16897388  0.17033318  0.48144239  1
  In  In85  1  0.34333316  0.00871896  0.23569431  1
  Cu  Cu86  1  -0.00803337  0.67173710  -0.00183605  1
  Cu  Cu87  1  0.50394380  0.17462044  0.75619355  1
  Cu  Cu88  1  0.33328941  0.33945641  0.50090305  1
  Cu  Cu89  1  0.33631009  0.66354872  0.50289473  1
  Cu  Cu90  1  0.17086547  0.84178544  0.23402528  1
  Cu  Cu91  1  0.66427215  0.66407457  -0.00174942  1
  Cu  Cu92  1  0.83598827  0.82934367  0.24609846  1
  Cu  Cu93  1  0.67958245  -0.00612612  0.49246586  1
  Cu  Cu94  1  0.49815547  0.49688183  0.25027099  1
  Cu  Cu95  1  -0.01127676  0.00445672  0.00409990  1
  Cu  Cu96  1  0.17483188  0.49499173  0.74776337  1
  Cu  Cu97  1  0.16964114  0.16087644  0.75634372  1
  Cu  Cu98  1  0.00205528  0.33414487  0.49094668  1
  Cu  Cu99  1  0.49894881  0.83551665  0.75421659  1
  Cu  Cu100  1  0.33944441  -0.00702828  0.49966070  1
  Cu  Cu101  1  0.82264172  0.50354679  0.25086850  1
  Cu  Cu102  1  0.00442736  0.33380638  0.01359389  1
  Cu  Cu103  1  0.33782215  0.65931151  -0.00351660  1
  Cu  Cu104  1  0.83990779  0.16313515  0.75577637  1
  Cu  Cu105  1  0.16816017  0.49829559  0.25173395  1
  Cu  Cu106  1  0.16066054  0.83703396  0.75462935  1
  Cu  Cu107  1  0.66625789  -0.00123134  0.00645052  1
  Cu  Cu108  1  0.82789060  0.50108357  0.75948246  1
  Cu  Cu109  1  0.65529917  0.33876333  0.50029969  1
  Cu  Cu110  1  0.33851448  0.34086551  -0.00377218  1
  Cu  Cu111  1  0.00146409  0.66261519  0.50419761  1
  Cu  Cu112  1  0.00233719  -0.00272195  0.49661553  1
  Cu  Cu113  1  0.66591988  0.33582305  0.00861222  1
  Cu  Cu114  1  0.51194112  0.82957036  0.24771213  1
  Se  Se115  1  0.07111323  0.08939321  0.05686219  1
  Se  Se116  1  0.08286373  0.08239901  0.55266714  1
  Se  Se117  1  0.09033382  0.41235635  0.07080191  1
  Se  Se118  1  0.08721301  0.41380999  0.54408398  1
  Se  Se119  1  0.07814509  0.75359709  0.04844621  1
  Se  Se120  1  0.08115197  0.74331546  0.56694080  1
  Se  Se121  1  0.40025464  0.05929649  0.05297217  1
  Se  Se122  1  0.41866025  0.07566140  0.55814134  1
  Se  Se123  1  0.42211185  0.42354069  0.04884499  1
  Se  Se124  1  0.41890309  0.41512707  0.55818011  1
  Se  Se125  1  0.41878204  0.74675525  0.04761115  1
  Se  Se126  1  0.41755994  0.75133708  0.55354699  1
  Se  Se127  1  0.73063922  0.08167361  0.07340871  1
  Se  Se128  1  0.75100242  0.07860242  0.55544439  1
  Se  Se129  1  0.75209455  0.41713570  0.05973292  1
  Se  Se130  1  0.73879881  0.41040122  0.56241180  1
  Se  Se131  1  0.74868461  0.74791606  0.05149568  1
  Se  Se132  1  0.75814272  0.75208900  0.54714351  1
  Se  Se133  1  0.25198520  0.26059514  0.05094348  1
  Se  Se134  1  0.25621225  0.24984069  0.55457750  1
  Se  Se135  1  0.25562825  0.58822123  0.06189911  1
  Se  Se136  1  0.24779786  0.58157486  0.55194187  1
  Se  Se137  1  0.22181446  0.89481031  0.04759954  1
  Se  Se138  1  0.25953055  0.92064532  0.56381831  1
  Se  Se139  1  0.58066992  0.24866742  0.05635862  1
  Se  Se140  1  0.58165463  0.25428445  0.56174508  1
  Se  Se141  1  0.58256236  0.58015086  0.05254585  1
  Se  Se142  1  0.59222300  0.58110085  0.56738875  1
  Se  Se143  1  0.58239195  0.90899994  0.05495544  1
  Se  Se144  1  0.58692613  0.92055214  0.54576921  1
  Se  Se145  1  0.92476797  0.25592786  0.07422371  1
  Se  Se146  1  0.92381229  0.25412026  0.55252430  1
  Se  Se147  1  0.91427750  0.58167490  0.04869032  1
  Se  Se148  1  0.92122516  0.58631519  0.56548204  1
  Se  Se149  1  0.90212946  0.91975722  0.05236738  1
  Se  Se150  1  0.91835541  0.91927870  0.55158684  1
  Se  Se151  1  0.07064086  0.25280854  0.42614725  1
  Se  Se152  1  0.08396158  0.25553503  0.95412205  1
  Se  Se153  1  0.08733161  0.58147027  0.45360785  1
  Se  Se154  1  0.07635624  0.58875255  0.94126840  1
  Se  Se155  1  0.08973246  0.92099253  0.43852269  1
  Se  Se156  1  0.07007555  0.92326605  0.94623381  1
  Se  Se157  1  0.41145082  0.25898057  0.43846943  1
  Se  Se158  1  0.41968729  0.25260813  0.94532790  1
  Se  Se159  1  0.42087125  0.57936176  0.45121699  1
  Se  Se160  1  0.42260756  0.57969495  0.94097888  1
  Se  Se161  1  0.42462621  0.90993448  0.44968766  1
  Se  Se162  1  0.40012589  0.92292771  0.95520971  1
  Se  Se163  1  0.73262324  0.25622690  0.43842909  1
  Se  Se164  1  0.74865126  0.25111897  0.95123029  1
  Se  Se165  1  0.73835208  0.59221538  0.44155301  1
  Se  Se166  1  0.74863693  0.58286993  0.94246889  1
  Se  Se167  1  0.75987296  0.91202216  0.43701726  1
  Se  Se168  1  0.74597753  0.91614491  0.94998507  1
  Se  Se169  1  0.26872293  0.07395798  0.43576884  1
  Se  Se170  1  0.24710217  0.08900629  0.95391708  1
  Se  Se171  1  0.24857249  0.41378017  0.44099274  1
  Se  Se172  1  0.26357943  0.42322426  0.93206580  1
  Se  Se173  1  0.26195026  0.74123007  0.43549679  1
  Se  Se174  1  0.24805654  0.74036728  0.94829392  1
  Se  Se175  1  0.60129923  0.07728891  0.43300507  1
  Se  Se176  1  0.58067022  0.08531160  0.95782113  1
  Se  Se177  1  0.57428833  0.41916745  0.44409881  1
  Se  Se178  1  0.58644696  0.41471311  0.94758245  1
  Se  Se179  1  0.57486735  0.76742253  0.44028302  1
  Se  Se180  1  0.57959230  0.75084837  0.94775825  1
  Se  Se181  1  0.92946075  0.07592977  0.43099300  1
  Se  Se182  1  0.91023097  0.08503597  0.94170204  1
  Se  Se183  1  0.91087271  0.41217755  0.43821662  1
  Se  Se184  1  0.92130922  0.41524337  0.95926348  1
  Se  Se185  1  0.92890265  0.75138902  0.44843046  1
  Se  Se186  1  0.91118281  0.75379637  0.94204156  1
  Se  Se187  1  0.22771483  0.23269955  0.29735931  1
  Se  Se188  1  0.25169881  0.24781884  0.80566779  1
  Se  Se189  1  0.24434424  0.58192553  0.31154497  1
  Se  Se190  1  0.25531600  0.58598198  0.79486215  1
  Se  Se191  1  0.25288708  0.91297432  0.29959936  1
  Se  Se192  1  0.24027924  0.90604867  0.82306348  1
  Se  Se193  1  0.57348576  0.24230819  0.29542927  1
  Se  Se194  1  0.59243790  0.25186400  0.80840143  1
  Se  Se195  1  0.57749501  0.58330328  0.30381364  1
  Se  Se196  1  0.58211871  0.57764089  0.80077398  1
  Se  Se197  1  0.59186923  0.91957012  0.29764927  1
  Se  Se198  1  0.57204257  0.91986292  0.81588521  1
  Se  Se199  1  0.92693408  0.27216405  0.29452488  1
  Se  Se200  1  0.91425212  0.24623870  0.81838223  1
  Se  Se201  1  0.90477021  0.57805209  0.31476755  1
  Se  Se202  1  0.91434736  0.57555223  0.81752494  1
  Se  Se203  1  0.92333830  0.91134209  0.29795358  1
  Se  Se204  1  0.90803957  0.91279969  0.79592891  1
  Se  Se205  1  0.08463243  0.07631659  0.29119043  1
  Se  Se206  1  0.08265964  0.08153435  0.80736337  1
  Se  Se207  1  0.07787950  0.42300731  0.30424345  1
  Se  Se208  1  0.09419849  0.41634837  0.80831537  1
  Se  Se209  1  0.09728085  0.76006835  0.29875552  1
  Se  Se210  1  0.08600578  0.75033632  0.81456561  1
  Se  Se211  1  0.42445134  0.08404380  0.31171615  1
  Se  Se212  1  0.42584634  0.09103308  0.81508720  1
  Se  Se213  1  0.41192790  0.41564326  0.30237271  1
  Se  Se214  1  0.42158129  0.40613870  0.79803061  1
  Se  Se215  1  0.42674268  0.75106596  0.30559456  1
  Se  Se216  1  0.41855732  0.74995217  0.80793112  1
  Se  Se217  1  0.77337150  0.09537214  0.29396327  1
  Se  Se218  1  0.75589735  0.08944680  0.81763041  1
  Se  Se219  1  0.73986434  0.41599806  0.30222060  1
  Se  Se220  1  0.75105600  0.41156585  0.81088217  1
  Se  Se221  1  0.75496286  0.74655255  0.30173532  1
  Se  Se222  1  0.74522288  0.76266497  0.79985946  1
  Se  Se223  1  0.24779665  0.09209902  0.17919289  1
  Se  Se224  1  0.24753363  0.08567213  0.68898879  1
  Se  Se225  1  0.25459037  0.41413515  0.20244352  1
  Se  Se226  1  0.25265193  0.40982759  0.69218792  1
  Se  Se227  1  0.25475596  0.76051656  0.17967532  1
  Se  Se228  1  0.24591198  0.75550172  0.70225029  1
  Se  Se229  1  0.57311852  0.07580087  0.20042951  1
  Se  Se230  1  0.57969142  0.09232695  0.69473339  1
  Se  Se231  1  0.58136751  0.41644640  0.19406799  1
  Se  Se232  1  0.61174258  0.38842778  0.68949973  1
  Se  Se233  1  0.58938094  0.74077530  0.19518300  1
  Se  Se234  1  0.57842142  0.75977898  0.69159291  1
  Se  Se235  1  0.90219945  0.08680346  0.20530800  1
  Se  Se236  1  0.92201898  0.07973155  0.70310629  1
  Se  Se237  1  0.90961997  0.42667412  0.19690414  1
  Se  Se238  1  0.90794698  0.42419325  0.69658899  1
  Se  Se239  1  0.91568085  0.75227607  0.18248503  1
  Se  Se240  1  0.91019594  0.75436513  0.68778556  1
  Se  Se241  1  0.06287286  0.26996198  0.19705620  1
  Se  Se242  1  0.09294032  0.23688706  0.68846541  1
  Se  Se243  1  0.09015110  0.57791841  0.19122907  1
  Se  Se244  1  0.08611433  0.57132523  0.69137131  1
  Se  Se245  1  0.08232819  0.92450940  0.18805301  1
  Se  Se246  1  0.07768558  0.92122413  0.70423623  1
  Se  Se247  1  0.41278989  0.25020059  0.18778061  1
  Se  Se248  1  0.41177795  0.25036226  0.70494417  1
  Se  Se249  1  0.42124398  0.57619691  0.18653695  1
  Se  Se250  1  0.40916823  0.58811581  0.69224990  1
  Se  Se251  1  0.42587778  0.90337063  0.18648348  1
  Se  Se252  1  0.41860478  0.92069861  0.69735775  1
  Se  Se253  1  0.75093939  0.24140945  0.20297668  1
  Se  Se254  1  0.75893777  0.24463581  0.69999611  1
  Se  Se255  1  0.74392670  0.58857540  0.19615782  1
  Se  Se256  1  0.74965682  0.58956772  0.70752953  1
  Se  Se257  1  0.74891113  0.91135381  0.19572534  1
  Se  Se258  1  0.74606584  0.91301732  0.68112060  1
