# generated using pymatgen
data_In86Cu29Se144
_symmetry_space_group_name_H-M   'P 1'
_cell_length_a   17.58125475
_cell_length_b   17.58246102
_cell_length_c   23.44153742
_cell_angle_alpha   89.98719401
_cell_angle_beta   89.99175835
_cell_angle_gamma   89.99876170
_symmetry_Int_Tables_number   1
_chemical_formula_structural   In86Cu29Se144
_chemical_formula_sum   'In86 Cu29 Se144'
_cell_volume   7246.28825977
_cell_formula_units_Z   1
loop_
 _symmetry_equiv_pos_site_id
 _symmetry_equiv_pos_as_xyz
  1  'x, y, z'
loop_
 _atom_site_type_symbol
 _atom_site_label
 _atom_site_symmetry_multiplicity
 _atom_site_fract_x
 _atom_site_fract_y
 _atom_site_fract_z
 _atom_site_occupancy
  In  In0  1  0.00120888  0.16746474  0.12952029  1
  In  In1  1  0.01598417  0.17638236  0.60720017  1
  In  In2  1  -0.00798144  0.50192115  0.12941169  1
  In  In3  1  -0.01333557  0.50044489  0.62060444  1
  In  In4  1  0.01483249  0.82844546  0.13218260  1
  In  In5  1  0.01993682  0.83378620  0.61704321  1
  In  In6  1  0.32422246  0.17302971  0.12489686  1
  In  In7  1  0.33245781  0.17370356  0.62578747  1
  In  In8  1  0.34081559  0.49333753  0.12967598  1
  In  In9  1  0.33484827  0.49799419  0.63636815  1
  In  In10  1  0.32634406  0.83643257  0.12410892  1
  In  In11  1  0.31480722  0.83360950  0.63111071  1
  In  In12  1  0.68239716  0.17103091  0.11871946  1
  In  In13  1  0.67579030  0.16470745  0.63517933  1
  In  In14  1  0.65752293  0.48469788  0.11229103  1
  In  In15  1  0.67321570  0.48941422  0.63052714  1
  In  In16  1  0.66058936  0.84505750  0.12148070  1
  In  In17  1  0.67055260  0.84953242  0.62770634  1
  In  In18  1  0.16198192  -0.00182793  0.37780298  1
  In  In19  1  0.17606224  -0.00080481  0.89040528  1
  In  In20  1  0.15490742  0.32171393  0.36457115  1
  In  In21  1  0.15567812  0.31533507  0.86126620  1
  In  In22  1  0.16875059  0.67166976  0.36717175  1
  In  In23  1  0.18071508  0.66987862  0.87179823  1
  In  In24  1  0.49409951  0.01536012  0.37044744  1
  In  In25  1  0.49839570  -0.01432172  0.87747047  1
  In  In26  1  0.49775322  0.32823737  0.36364973  1
  In  In27  1  0.50943404  0.34338027  0.87456834  1
  In  In28  1  0.49267559  0.67579364  0.37170426  1
  In  In29  1  0.49414717  0.66858351  0.88382795  1
  In  In30  1  0.85258130  0.00161331  0.38219034  1
  In  In31  1  0.83765932  0.01982952  0.87461872  1
  In  In32  1  0.83388263  0.32972873  0.37489882  1
  In  In33  1  0.83522910  0.32989765  0.87945276  1
  In  In34  1  0.83963468  0.64931130  0.37736500  1
  In  In35  1  0.82097994  0.66187797  0.87642834  1
  In  In36  1  -0.00024862  0.16416910  0.37987058  1
  In  In37  1  -0.00370223  0.16765437  0.88214974  1
  In  In38  1  -0.00673101  0.48766087  0.36500864  1
  In  In39  1  0.00622109  0.48014960  0.87603132  1
  In  In40  1  0.01511236  0.84797422  0.36853981  1
  In  In41  1  0.01072270  0.84322740  0.87635853  1
  In  In42  1  0.32034458  0.15416673  0.36275801  1
  In  In43  1  0.31460717  0.16802635  0.87625751  1
  In  In44  1  0.33004142  0.49921719  0.36398376  1
  In  In45  1  0.33917336  0.50193341  0.87473702  1
  In  In46  1  0.31596867  0.82475967  0.36777900  1
  In  In47  1  0.34181976  0.83211164  0.88506170  1
  In  In48  1  0.66259507  0.17986731  0.37490834  1
  In  In49  1  0.67952955  0.18334033  0.86979032  1
  In  In50  1  0.68244578  0.49246731  0.37672846  1
  In  In51  1  0.68270211  0.47733252  0.89760400  1
  In  In52  1  0.67544117  0.84030522  0.37277861  1
  In  In53  1  0.65227834  0.82644669  0.87343097  1
  In  In54  1  0.16844618  0.00106904  0.12572522  1
  In  In55  1  0.16563190  -0.00009417  0.61339939  1
  In  In56  1  0.17314674  0.32501229  0.12997958  1
  In  In57  1  0.16944206  0.31836001  0.63489355  1
  In  In58  1  0.15986346  0.67703157  0.12999965  1
  In  In59  1  0.16963635  0.68123741  0.62450304  1
  In  In60  1  0.49311420  -0.01294721  0.11551434  1
  In  In61  1  0.50427862  0.01321068  0.62870585  1
  In  In62  1  0.49618449  0.33671191  0.12249523  1
  In  In63  1  0.49900665  0.34015556  0.63688199  1
  In  In64  1  0.48961872  0.66027948  0.12037529  1
  In  In65  1  0.49301867  0.65401496  0.63109599  1
  In  In66  1  0.83567123  0.01527808  0.12732978  1
  In  In67  1  0.82358886  0.01389472  0.62305162  1
  In  In68  1  0.83170304  0.33342818  0.12581479  1
  In  In69  1  0.83630369  0.33104197  0.62536996  1
  In  In70  1  0.84885761  0.66098941  0.12788226  1
  In  In71  1  0.85502307  0.66345041  0.61700173  1
  In  In72  1  0.16033579  0.49668603  0.49498201  1
  In  In73  1  0.66412201  0.65905853  0.25024499  1
  In  In74  1  0.50191183  0.16867541  0.00032218  1
  In  In75  1  0.00616855  0.00930110  0.74188007  1
  In  In76  1  0.50176621  0.49715400  0.50840386  1
  In  In77  1  0.84317597  0.83697142  0.49623846  1
  In  In78  1  0.50068704  0.17006786  0.50235178  1
  In  In79  1  0.16755235  0.49789568  -0.00168066  1
  In  In80  1  0.33287299  0.00186929  0.75446204  1
  In  In81  1  0.66068397  0.66075824  0.75248364  1
  In  In82  1  0.66440998  0.00739677  0.24738183  1
  In  In83  1  0.49526754  0.83570908  0.50622865  1
  In  In84  1  0.83357750  0.83171215  0.00112193  1
  In  In85  1  0.00529163  0.66196331  0.74537002  1
  Cu  Cu86  1  0.83849910  0.17040557  0.25180074  1
  Cu  Cu87  1  0.17037691  0.84264712  0.24825662  1
  Cu  Cu88  1  -0.00371657  0.33441046  0.49459302  1
  Cu  Cu89  1  0.32321237  0.32295403  0.49856833  1
  Cu  Cu90  1  0.49514791  0.83071027  0.75714806  1
  Cu  Cu91  1  0.66677074  0.00039198  -0.00378522  1
  Cu  Cu92  1  0.16890096  0.49129273  0.75233331  1
  Cu  Cu93  1  0.16473032  0.50426707  0.24569190  1
  Cu  Cu94  1  -0.00434924  0.32809346  0.00237209  1
  Cu  Cu95  1  0.50079315  0.49759354  0.24364468  1
  Cu  Cu96  1  0.84420029  0.83307651  0.25209014  1
  Cu  Cu97  1  0.67341929  0.33532332  0.50213486  1
  Cu  Cu98  1  0.67606605  0.67141779  0.49791485  1
  Cu  Cu99  1  0.16505393  0.16728279  0.25015294  1
  Cu  Cu100  1  0.66269557  0.66416952  0.00116023  1
  Cu  Cu101  1  0.00383440  0.00314650  0.00489894  1
  Cu  Cu102  1  0.32927887  0.67166314  0.00253165  1
  Cu  Cu103  1  0.83208307  0.49036683  0.24935377  1
  Cu  Cu104  1  0.49633475  0.16950741  0.24174165  1
  Cu  Cu105  1  0.83436150  0.84514133  0.74379023  1
  Cu  Cu106  1  0.00168658  0.66492841  0.00445776  1
  Cu  Cu107  1  0.33065550  0.33600241  0.00167666  1
  Cu  Cu108  1  0.83200286  0.17814145  0.75224047  1
  Cu  Cu109  1  0.49983484  0.50116800  0.76076614  1
  Cu  Cu110  1  0.48758629  0.83395501  0.24634858  1
  Cu  Cu111  1  0.83493319  0.49257529  0.75294397  1
  Cu  Cu112  1  0.50365651  0.17132482  0.75356262  1
  Cu  Cu113  1  0.32478924  -0.00779042  0.49354539  1
  Cu  Cu114  1  0.32533016  0.66605844  0.49512567  1
  Se  Se115  1  0.08494752  0.08819307  0.05859191  1
  Se  Se116  1  0.07620406  0.07146392  0.54565201  1
  Se  Se117  1  0.07826376  0.41069257  0.06105912  1
  Se  Se118  1  0.07936715  0.40592131  0.56075068  1
  Se  Se119  1  0.08422009  0.75199224  0.05244206  1
  Se  Se120  1  0.06647932  0.72414545  0.55412886  1
  Se  Se121  1  0.40683285  0.08116822  0.05598028  1
  Se  Se122  1  0.40502911  0.07260604  0.55491944  1
  Se  Se123  1  0.41548501  0.41942771  0.05148209  1
  Se  Se124  1  0.40343357  0.40437184  0.55836233  1
  Se  Se125  1  0.41449003  0.75398504  0.05621770  1
  Se  Se126  1  0.40713322  0.73827541  0.56056868  1
  Se  Se127  1  0.75270115  0.07948113  0.04936125  1
  Se  Se128  1  0.74112582  0.09314682  0.55384795  1
  Se  Se129  1  0.76418749  0.42368409  0.05371398  1
  Se  Se130  1  0.75495608  0.41978484  0.55588937  1
  Se  Se131  1  0.74407391  0.74184647  0.06418067  1
  Se  Se132  1  0.74925581  0.75085917  0.56224689  1
  Se  Se133  1  0.24544944  0.25144792  0.05042774  1
  Se  Se134  1  0.24237075  0.24272982  0.55447181  1
  Se  Se135  1  0.25193915  0.58733721  0.06282546  1
  Se  Se136  1  0.25566987  0.57959152  0.55857460  1
  Se  Se137  1  0.23459014  0.90716493  0.05598323  1
  Se  Se138  1  0.24761453  0.90734507  0.55031987  1
  Se  Se139  1  0.59446382  0.26022270  0.05502591  1
  Se  Se140  1  0.58614663  0.26272918  0.56348565  1
  Se  Se141  1  0.57769630  0.58180253  0.05358720  1
  Se  Se142  1  0.59648920  0.59323496  0.56124351  1
  Se  Se143  1  0.58200553  0.91477972  0.04463108  1
  Se  Se144  1  0.58946735  0.93185596  0.55469316  1
  Se  Se145  1  0.91524496  0.24588056  0.05911294  1
  Se  Se146  1  0.91360646  0.25187006  0.55079328  1
  Se  Se147  1  0.91727642  0.57904951  0.05139154  1
  Se  Se148  1  0.92110814  0.58067964  0.54289990  1
  Se  Se149  1  0.92167480  0.91984894  0.06343700  1
  Se  Se150  1  0.92189053  0.92464325  0.56506614  1
  Se  Se151  1  0.08583591  0.25178238  0.44634134  1
  Se  Se152  1  0.08418014  0.25284001  0.94657675  1
  Se  Se153  1  0.07701626  0.58341568  0.43032632  1
  Se  Se154  1  0.07850276  0.58963231  0.93689499  1
  Se  Se155  1  0.07895988  0.92190350  0.45014869  1
  Se  Se156  1  0.08461823  0.91572639  0.95351535  1
  Se  Se157  1  0.40872957  0.25045115  0.43656424  1
  Se  Se158  1  0.41079960  0.25651253  0.93865747  1
  Se  Se159  1  0.41215904  0.58484413  0.44220282  1
  Se  Se160  1  0.40995322  0.58391261  0.95054626  1
  Se  Se161  1  0.41200205  0.91841616  0.43522626  1
  Se  Se162  1  0.41325635  0.92397603  0.95230780  1
  Se  Se163  1  0.75014206  0.24941867  0.44669359  1
  Se  Se164  1  0.75490505  0.24694835  0.94936719  1
  Se  Se165  1  0.75228823  0.57894215  0.44959317  1
  Se  Se166  1  0.75425718  0.58377891  0.95411998  1
  Se  Se167  1  0.74422866  0.92901408  0.44455146  1
  Se  Se168  1  0.74766504  0.91878149  0.93527129  1
  Se  Se169  1  0.24898928  0.08561709  0.44401569  1
  Se  Se170  1  0.25052009  0.09049928  0.95509695  1
  Se  Se171  1  0.25378942  0.40846476  0.43589008  1
  Se  Se172  1  0.24850591  0.40609253  0.93471468  1
  Se  Se173  1  0.24181991  0.75030690  0.44559753  1
  Se  Se174  1  0.24607401  0.75277350  0.94832677  1
  Se  Se175  1  0.58946627  0.07843028  0.44209291  1
  Se  Se176  1  0.59054968  0.08275215  0.93483647  1
  Se  Se177  1  0.58414412  0.40741816  0.44181717  1
  Se  Se178  1  0.57169473  0.42155767  0.95499051  1
  Se  Se179  1  0.59143405  0.74803072  0.44143072  1
  Se  Se180  1  0.58096792  0.75131046  0.95091844  1
  Se  Se181  1  0.91343371  0.09291687  0.45320305  1
  Se  Se182  1  0.91670428  0.08422307  0.95339593  1
  Se  Se183  1  0.91348482  0.41867290  0.44303177  1
  Se  Se184  1  0.91767374  0.41647485  0.94902596  1
  Se  Se185  1  0.92559683  0.74896875  0.43185588  1
  Se  Se186  1  0.92394725  0.74331885  0.93786222  1
  Se  Se187  1  0.25336225  0.25426175  0.29835535  1
  Se  Se188  1  0.25165113  0.24491642  0.79648217  1
  Se  Se189  1  0.24987813  0.58673051  0.29896247  1
  Se  Se190  1  0.25019178  0.57712704  0.80425484  1
  Se  Se191  1  0.25113219  0.92630159  0.30440141  1
  Se  Se192  1  0.24692790  0.91034652  0.81418565  1
  Se  Se193  1  0.58358394  0.24743920  0.29620570  1
  Se  Se194  1  0.58639879  0.25801388  0.80401877  1
  Se  Se195  1  0.57494079  0.57070538  0.31459601  1
  Se  Se196  1  0.58476188  0.57434170  0.82251878  1
  Se  Se197  1  0.57336643  0.91068948  0.30628548  1
  Se  Se198  1  0.58351203  0.91626901  0.80207353  1
  Se  Se199  1  0.92192931  0.25024421  0.30791355  1
  Se  Se200  1  0.92048680  0.25083861  0.80908889  1
  Se  Se201  1  0.91445470  0.57985351  0.29810769  1
  Se  Se202  1  0.91336712  0.57773290  0.81110485  1
  Se  Se203  1  0.91975620  0.92364633  0.30344259  1
  Se  Se204  1  0.91489657  0.91812920  0.80785545  1
  Se  Se205  1  0.08425892  0.08614577  0.30834061  1
  Se  Se206  1  0.08982239  0.08176495  0.81697259  1
  Se  Se207  1  0.08418324  0.41535013  0.29682708  1
  Se  Se208  1  0.07762121  0.40903226  0.79676582  1
  Se  Se209  1  0.08573927  0.75595391  0.29953072  1
  Se  Se210  1  0.09015209  0.75631548  0.80504997  1
  Se  Se211  1  0.41478439  0.08341751  0.29397079  1
  Se  Se212  1  0.42435124  0.09125825  0.81477435  1
  Se  Se213  1  0.41586072  0.41563592  0.29915138  1
  Se  Se214  1  0.41404659  0.41208205  0.80594221  1
  Se  Se215  1  0.40857225  0.74795224  0.30076270  1
  Se  Se216  1  0.41456042  0.74773976  0.81044392  1
  Se  Se217  1  0.75566323  0.08857054  0.31172204  1
  Se  Se218  1  0.75095013  0.08773344  0.80163389  1
  Se  Se219  1  0.74745347  0.40784380  0.30201584  1
  Se  Se220  1  0.75091177  0.41653312  0.81098826  1
  Se  Se221  1  0.75883251  0.75178423  0.30747986  1
  Se  Se222  1  0.75719280  0.75965515  0.80314216  1
  Se  Se223  1  0.24961167  0.08603024  0.19583614  1
  Se  Se224  1  0.24317843  0.08423887  0.68944954  1
  Se  Se225  1  0.24930959  0.41779751  0.19551457  1
  Se  Se226  1  0.25279190  0.40799025  0.69825525  1
  Se  Se227  1  0.25018743  0.75228594  0.19750009  1
  Se  Se228  1  0.25792063  0.73739909  0.70083923  1
  Se  Se229  1  0.57614206  0.08944055  0.17964454  1
  Se  Se230  1  0.58550274  0.08521557  0.70202710  1
  Se  Se231  1  0.58474663  0.41394717  0.19285478  1
  Se  Se232  1  0.58441757  0.42331107  0.70294250  1
  Se  Se233  1  0.57831785  0.75672603  0.19145391  1
  Se  Se234  1  0.57618320  0.75739362  0.68993763  1
  Se  Se235  1  0.92011347  0.08290020  0.20130486  1
  Se  Se236  1  0.91149544  0.10040251  0.68921834  1
  Se  Se237  1  0.91944301  0.40964443  0.19724513  1
  Se  Se238  1  0.91927826  0.41560129  0.69542696  1
  Se  Se239  1  0.92258768  0.74843484  0.19681098  1
  Se  Se240  1  0.91648850  0.76258954  0.68965746  1
  Se  Se241  1  0.08177101  0.25291172  0.19873493  1
  Se  Se242  1  0.07632020  0.23768213  0.69537773  1
  Se  Se243  1  0.07874455  0.58661687  0.19409423  1
  Se  Se244  1  0.09435768  0.57018004  0.68573013  1
  Se  Se245  1  0.08182999  0.92518670  0.19883530  1
  Se  Se246  1  0.09928853  0.90997860  0.69363540  1
  Se  Se247  1  0.41256341  0.25486719  0.19075401  1
  Se  Se248  1  0.41710325  0.24756783  0.69756026  1
  Se  Se249  1  0.41557119  0.58554368  0.19812527  1
  Se  Se250  1  0.41487843  0.58238546  0.70643502  1
  Se  Se251  1  0.41124844  0.92179420  0.19300843  1
  Se  Se252  1  0.42303952  0.91163974  0.69006041  1
  Se  Se253  1  0.75095608  0.24800747  0.19724570  1
  Se  Se254  1  0.74698229  0.26159886  0.69923315  1
  Se  Se255  1  0.75264274  0.57288548  0.18798101  1
  Se  Se256  1  0.76472184  0.58339644  0.69229126  1
  Se  Se257  1  0.75868370  0.91029737  0.19319939  1
  Se  Se258  1  0.74854960  0.93107847  0.69794029  1
