# generated using pymatgen
data_In86Cu29Se144
_symmetry_space_group_name_H-M   'P 1'
_cell_length_a   17.57782935
_cell_length_b   17.58184788
_cell_length_c   23.44195865
_cell_angle_alpha   90.00601586
_cell_angle_beta   89.98362827
_cell_angle_gamma   89.99886806
_symmetry_Int_Tables_number   1
_chemical_formula_structural   In86Cu29Se144
_chemical_formula_sum   'In86 Cu29 Se144'
_cell_volume   7244.75389868
_cell_formula_units_Z   1
loop_
 _symmetry_equiv_pos_site_id
 _symmetry_equiv_pos_as_xyz
  1  'x, y, z'
loop_
 _atom_site_type_symbol
 _atom_site_label
 _atom_site_symmetry_multiplicity
 _atom_site_fract_x
 _atom_site_fract_y
 _atom_site_fract_z
 _atom_site_occupancy
  In  In0  1  0.00384918  0.16549998  0.13089984  1
  In  In1  1  0.01259289  0.16315493  0.61625471  1
  In  In2  1  0.00462692  0.48651725  0.12696525  1
  In  In3  1  0.02284872  0.50442704  0.62029865  1
  In  In4  1  0.01405231  0.84298887  0.12031033  1
  In  In5  1  -0.00531353  0.83214416  0.61425906  1
  In  In6  1  0.31699824  0.16662251  0.12467751  1
  In  In7  1  0.33400783  0.16876568  0.62746454  1
  In  In8  1  0.33608369  0.50159802  0.11483937  1
  In  In9  1  0.33460386  0.49859990  0.62554168  1
  In  In10  1  0.32832766  0.84768847  0.12962069  1
  In  In11  1  0.33354258  0.83197702  0.62604187  1
  In  In12  1  0.68074360  0.16774464  0.12488977  1
  In  In13  1  0.65765421  0.17676459  0.62448451  1
  In  In14  1  0.65480922  0.49741224  0.12225431  1
  In  In15  1  0.66251056  0.51247399  0.62859664  1
  In  In16  1  0.66747941  0.82369448  0.12253357  1
  In  In17  1  0.65596165  0.82929054  0.61788096  1
  In  In18  1  0.16646138  -0.00081299  0.37678890  1
  In  In19  1  0.16995478  -0.00475592  0.87611980  1
  In  In20  1  0.15234732  0.33904448  0.38701278  1
  In  In21  1  0.17443578  0.32456751  0.88138376  1
  In  In22  1  0.17079497  0.66271477  0.38438883  1
  In  In23  1  0.16793151  0.66738845  0.87327050  1
  In  In24  1  0.49239368  0.00247565  0.37841315  1
  In  In25  1  0.48004582  0.00688413  0.86990566  1
  In  In26  1  0.49708115  0.33466584  0.37787192  1
  In  In27  1  0.49944473  0.34436853  0.87739399  1
  In  In28  1  0.49705184  0.66848332  0.38632039  1
  In  In29  1  0.48668765  0.65563264  0.86343900  1
  In  In30  1  0.83468652  -0.01316121  0.37423175  1
  In  In31  1  0.83822023  -0.00271347  0.88544205  1
  In  In32  1  0.83568552  0.32950111  0.36610104  1
  In  In33  1  0.81941916  0.32730019  0.88650631  1
  In  In34  1  0.84057503  0.67600349  0.37602971  1
  In  In35  1  0.84730485  0.67687556  0.86392319  1
  In  In36  1  0.01594519  0.17576719  0.37058533  1
  In  In37  1  0.00203210  0.16327298  0.88455963  1
  In  In38  1  0.01673440  0.48567707  0.37698586  1
  In  In39  1  0.00037385  0.51597273  0.87303972  1
  In  In40  1  -0.00401389  0.84482388  0.38773951  1
  In  In41  1  0.01056265  0.83063065  0.87908396  1
  In  In42  1  0.33699435  0.15831807  0.37954745  1
  In  In43  1  0.32425434  0.15410413  0.86067103  1
  In  In44  1  0.33015726  0.50115664  0.38132955  1
  In  In45  1  0.33240769  0.50011596  0.87498299  1
  In  In46  1  0.32384957  0.83837728  0.38372661  1
  In  In47  1  0.32458305  0.82438464  0.86416002  1
  In  In48  1  0.65143910  0.17263841  0.37592716  1
  In  In49  1  0.66907663  0.18180447  0.88232380  1
  In  In50  1  0.66087860  0.48846051  0.37155870  1
  In  In51  1  0.65171275  0.50050449  0.87772285  1
  In  In52  1  0.66317759  0.83662550  0.38500243  1
  In  In53  1  0.67913031  0.83226743  0.87380324  1
  In  In54  1  0.16476218  -0.00040363  0.12994919  1
  In  In55  1  0.17429244  0.01032457  0.61182764  1
  In  In56  1  0.16342829  0.32779155  0.11970937  1
  In  In57  1  0.18178747  0.35117627  0.61051771  1
  In  In58  1  0.16337020  0.66488080  0.11532161  1
  In  In59  1  0.17048521  0.66830164  0.62744110  1
  In  In60  1  0.47896347  -0.00429683  0.13532997  1
  In  In61  1  0.49123502  -0.00211299  0.62190592  1
  In  In62  1  0.50129067  0.34995125  0.12895633  1
  In  In63  1  0.47772363  0.31521096  0.61263548  1
  In  In64  1  0.50723210  0.66104075  0.12137857  1
  In  In65  1  0.49909690  0.66501382  0.62581732  1
  In  In66  1  0.84837874  0.00996523  0.12119138  1
  In  In67  1  0.84952779  -0.00718078  0.62120958  1
  In  In68  1  0.84066188  0.32623383  0.13304882  1
  In  In69  1  0.83064236  0.32443542  0.62578651  1
  In  In70  1  0.82401416  0.67206953  0.11829169  1
  In  In71  1  0.82632919  0.67651313  0.63170599  1
  In  In72  1  0.33290243  0.66357054  0.25704636  1
  In  In73  1  0.00179569  0.66588241  0.25015102  1
  In  In74  1  0.65877504  -0.00269014  0.74716619  1
  In  In75  1  0.50334922  0.17207708  -0.00197235  1
  In  In76  1  0.66105777  0.66536779  0.24602640  1
  In  In77  1  0.00259998  0.33866031  0.74686519  1
  In  In78  1  0.83048349  0.50509858  0.49275708  1
  In  In79  1  0.83780922  0.50130210  0.00071832  1
  In  In80  1  0.49918903  0.83013941  0.00250360  1
  In  In81  1  0.65476985  0.34104373  0.76168618  1
  In  In82  1  0.83811917  0.16188870  0.50080644  1
  In  In83  1  0.66603910  0.00374853  0.25390666  1
  In  In84  1  0.32839664  0.33332077  0.24964176  1
  In  In85  1  0.00584693  -0.00211854  0.74165323  1
  Cu  Cu86  1  0.50088128  0.83006693  0.74222671  1
  Cu  Cu87  1  -0.00072578  0.66727498  0.50092288  1
  Cu  Cu88  1  0.33267938  0.33504855  -0.00019014  1
  Cu  Cu89  1  0.83672413  0.82956329  0.74757594  1
  Cu  Cu90  1  0.65994932  0.33770066  0.50042039  1
  Cu  Cu91  1  0.33447935  0.00065597  0.50094378  1
  Cu  Cu92  1  0.83203364  0.16500568  0.75964564  1
  Cu  Cu93  1  0.66700729  -0.00255412  0.00125129  1
  Cu  Cu94  1  0.00352873  0.32962586  0.00554579  1
  Cu  Cu95  1  0.83979752  0.16588922  0.24889947  1
  Cu  Cu96  1  0.17050026  0.16135159  0.25120038  1
  Cu  Cu97  1  0.17357823  0.50368640  0.74911113  1
  Cu  Cu98  1  0.33420817  0.66391834  0.50833942  1
  Cu  Cu99  1  0.32177383  0.00022379  -0.00091004  1
  Cu  Cu100  1  0.33144833  0.66616828  -0.00877251  1
  Cu  Cu101  1  0.83665201  0.49353225  0.25097744  1
  Cu  Cu102  1  0.17003157  0.83180719  0.75013630  1
  Cu  Cu103  1  0.16829040  0.83558857  0.25512726  1
  Cu  Cu104  1  0.49685896  0.49845771  0.74708516  1
  Cu  Cu105  1  0.50013934  0.17158212  0.25560565  1
  Cu  Cu106  1  0.83664266  0.83831202  0.24863889  1
  Cu  Cu107  1  0.17207823  0.17126644  0.74570785  1
  Cu  Cu108  1  0.66730576  0.66618485  -0.00459728  1
  Cu  Cu109  1  0.66490453  0.00230472  0.49759790  1
  Cu  Cu110  1  0.83628318  0.50596842  0.74788681  1
  Cu  Cu111  1  0.66326613  0.67102734  0.50652174  1
  Cu  Cu112  1  0.00397961  0.67276806  -0.00599184  1
  Cu  Cu113  1  -0.00000334  0.00296384  0.00577541  1
  Cu  Cu114  1  0.33171110  0.32886105  0.49897928  1
  Se  Se115  1  0.08543815  0.08416905  0.05970512  1
  Se  Se116  1  0.06227468  0.05986556  0.54988078  1
  Se  Se117  1  0.08747510  0.41936449  0.05088129  1
  Se  Se118  1  0.07844434  0.41274246  0.54726762  1
  Se  Se119  1  0.08718881  0.75533364  0.04931709  1
  Se  Se120  1  0.08607114  0.74634909  0.55496643  1
  Se  Se121  1  0.40978013  0.07859908  0.05553109  1
  Se  Se122  1  0.41552636  0.08756032  0.55430799  1
  Se  Se123  1  0.42134313  0.41586177  0.04986161  1
  Se  Se124  1  0.41369431  0.41832094  0.55049140  1
  Se  Se125  1  0.40450188  0.74260278  0.06122912  1
  Se  Se126  1  0.41919828  0.75072441  0.55702140  1
  Se  Se127  1  0.75120128  0.07940582  0.05464354  1
  Se  Se128  1  0.74306704  0.07732646  0.56402706  1
  Se  Se129  1  0.75255587  0.41258205  0.06285874  1
  Se  Se130  1  0.74448251  0.41344160  0.55984394  1
  Se  Se131  1  0.74848088  0.75383103  0.04592894  1
  Se  Se132  1  0.75257524  0.75326564  0.55451037  1
  Se  Se133  1  0.24859275  0.24835763  0.04930348  1
  Se  Se134  1  0.24933304  0.24417351  0.55344611  1
  Se  Se135  1  0.25007484  0.58385518  0.04898105  1
  Se  Se136  1  0.24741556  0.57980368  0.55792208  1
  Se  Se137  1  0.24378914  0.91637063  0.05598484  1
  Se  Se138  1  0.25379938  0.91315132  0.55319354  1
  Se  Se139  1  0.58841038  0.25664030  0.06365066  1
  Se  Se140  1  0.57889234  0.24679801  0.54821273  1
  Se  Se141  1  0.58428748  0.58208483  0.04772681  1
  Se  Se142  1  0.58074207  0.58182325  0.55347392  1
  Se  Se143  1  0.58270619  0.92713125  0.06402615  1
  Se  Se144  1  0.58049443  0.92130269  0.55328525  1
  Se  Se145  1  0.92040848  0.24810628  0.06018578  1
  Se  Se146  1  0.92651926  0.26043898  0.55569785  1
  Se  Se147  1  0.92917182  0.59292998  0.06068864  1
  Se  Se148  1  0.91676285  0.58781031  0.56135705  1
  Se  Se149  1  0.91674368  0.91300953  0.05451642  1
  Se  Se150  1  0.92462146  0.92385827  0.54447441  1
  Se  Se151  1  0.08908007  0.23963870  0.45280025  1
  Se  Se152  1  0.08647713  0.24713272  0.94949693  1
  Se  Se153  1  0.07891836  0.58126436  0.44713895  1
  Se  Se154  1  0.08671386  0.58463541  0.94568669  1
  Se  Se155  1  0.10673191  0.89849911  0.44537955  1
  Se  Se156  1  0.08167814  0.92317623  0.94680997  1
  Se  Se157  1  0.41766222  0.24794479  0.44511336  1
  Se  Se158  1  0.40637785  0.25121055  0.93677143  1
  Se  Se159  1  0.41443286  0.58105761  0.45041356  1
  Se  Se160  1  0.41981662  0.58138457  0.94458510  1
  Se  Se161  1  0.41782026  0.91529949  0.44879355  1
  Se  Se162  1  0.40586857  0.91824971  0.94277749  1
  Se  Se163  1  0.74485587  0.25663233  0.44353914  1
  Se  Se164  1  0.75625020  0.23843590  0.95855398  1
  Se  Se165  1  0.73641525  0.59607677  0.43589780  1
  Se  Se166  1  0.75219563  0.58958177  0.93490576  1
  Se  Se167  1  0.75187173  0.91760870  0.44963491  1
  Se  Se168  1  0.75018960  0.91309100  0.94901438  1
  Se  Se169  1  0.24859994  0.08259298  0.44788202  1
  Se  Se170  1  0.24771599  0.08757362  0.94188309  1
  Se  Se171  1  0.24892244  0.41620868  0.44854219  1
  Se  Se172  1  0.24945858  0.41924763  0.94589398  1
  Se  Se173  1  0.25174524  0.74589788  0.45218731  1
  Se  Se174  1  0.24848166  0.75438266  0.94312639  1
  Se  Se175  1  0.58037868  0.08429856  0.44557024  1
  Se  Se176  1  0.58621951  0.07145129  0.93787234  1
  Se  Se177  1  0.57767245  0.42140062  0.44753311  1
  Se  Se178  1  0.60142527  0.39822594  0.94533222  1
  Se  Se179  1  0.57976303  0.75454331  0.45214649  1
  Se  Se180  1  0.58294394  0.74356007  0.93516130  1
  Se  Se181  1  0.92222762  0.08113855  0.43286397  1
  Se  Se182  1  0.91515022  0.08567992  0.95230665  1
  Se  Se183  1  0.91859136  0.40625311  0.44226356  1
  Se  Se184  1  0.92815833  0.40947435  0.93945610  1
  Se  Se185  1  0.91391587  0.75275288  0.45103101  1
  Se  Se186  1  0.91552452  0.75341981  0.94358907  1
  Se  Se187  1  0.24512876  0.24433522  0.31349533  1
  Se  Se188  1  0.25037385  0.25669943  0.80125758  1
  Se  Se189  1  0.23648943  0.57116182  0.30744299  1
  Se  Se190  1  0.25451993  0.58688403  0.80523440  1
  Se  Se191  1  0.25359760  0.91848990  0.30651983  1
  Se  Se192  1  0.25000881  0.92178468  0.80097225  1
  Se  Se193  1  0.58159496  0.25927919  0.30361629  1
  Se  Se194  1  0.56887087  0.23768795  0.81073302  1
  Se  Se195  1  0.57247643  0.58117592  0.30968093  1
  Se  Se196  1  0.58364186  0.58015425  0.79986927  1
  Se  Se197  1  0.57821675  0.91013431  0.31012779  1
  Se  Se198  1  0.57239496  0.90710476  0.81202866  1
  Se  Se199  1  0.92425816  0.24956046  0.30153952  1
  Se  Se200  1  0.91380883  0.24985788  0.81331329  1
  Se  Se201  1  0.91245368  0.57432594  0.31237998  1
  Se  Se202  1  0.92480523  0.58885498  0.79574718  1
  Se  Se203  1  0.92304801  0.91327852  0.30435223  1
  Se  Se204  1  0.91365245  0.91439458  0.80705528  1
  Se  Se205  1  0.08500144  0.07924305  0.30386545  1
  Se  Se206  1  0.08709162  0.09308708  0.80500902  1
  Se  Se207  1  0.08599352  0.40572043  0.30219774  1
  Se  Se208  1  0.09140538  0.42416058  0.81061829  1
  Se  Se209  1  0.08849365  0.75291717  0.31411021  1
  Se  Se210  1  0.08393673  0.75129657  0.80385340  1
  Se  Se211  1  0.41774142  0.08403189  0.30379381  1
  Se  Se212  1  0.41397678  0.08220989  0.79201243  1
  Se  Se213  1  0.41783849  0.42555710  0.30725444  1
  Se  Se214  1  0.41592108  0.41729318  0.80454316  1
  Se  Se215  1  0.41959533  0.75608974  0.31466402  1
  Se  Se216  1  0.41504269  0.74900485  0.79741590  1
  Se  Se217  1  0.75669479  0.09377866  0.31412246  1
  Se  Se218  1  0.75025506  0.08251924  0.81402608  1
  Se  Se219  1  0.74857447  0.41402742  0.30260185  1
  Se  Se220  1  0.76125224  0.42652110  0.81178764  1
  Se  Se221  1  0.75311847  0.75838415  0.30586097  1
  Se  Se222  1  0.74889136  0.74880698  0.79929891  1
  Se  Se223  1  0.25460455  0.07796170  0.19895064  1
  Se  Se224  1  0.24709942  0.08096984  0.69215084  1
  Se  Se225  1  0.24598198  0.42358525  0.18528230  1
  Se  Se226  1  0.25046688  0.41504524  0.69528297  1
  Se  Se227  1  0.24080711  0.75012540  0.19328704  1
  Se  Se228  1  0.25473571  0.74783744  0.69768623  1
  Se  Se229  1  0.57549639  0.09105816  0.18986216  1
  Se  Se230  1  0.57280712  0.09345775  0.69206202  1
  Se  Se231  1  0.58687436  0.42156431  0.20013985  1
  Se  Se232  1  0.57415144  0.41552287  0.68594717  1
  Se  Se233  1  0.56823335  0.76205530  0.19333850  1
  Se  Se234  1  0.58785283  0.74688421  0.69404303  1
  Se  Se235  1  0.92306080  0.07877975  0.20070529  1
  Se  Se236  1  0.91070205  0.09707607  0.69169033  1
  Se  Se237  1  0.92330558  0.41223384  0.19979525  1
  Se  Se238  1  0.91051458  0.42616259  0.68480262  1
  Se  Se239  1  0.91183513  0.75426960  0.18770878  1
  Se  Se240  1  0.92457264  0.75313032  0.69275357  1
  Se  Se241  1  0.09108348  0.24884813  0.19664913  1
  Se  Se242  1  0.09204739  0.25094823  0.68566572  1
  Se  Se243  1  0.09252561  0.57670218  0.19173640  1
  Se  Se244  1  0.08643646  0.58546752  0.69838282  1
  Se  Se245  1  0.08231798  0.91655536  0.20085130  1
  Se  Se246  1  0.09513796  0.90832787  0.68371501  1
  Se  Se247  1  0.42044522  0.24393259  0.18774616  1
  Se  Se248  1  0.41143842  0.25489584  0.69747928  1
  Se  Se249  1  0.42202930  0.57757825  0.19105309  1
  Se  Se250  1  0.41444366  0.58407436  0.69487985  1
  Se  Se251  1  0.41346863  0.90762610  0.20598314  1
  Se  Se252  1  0.41599350  0.91705023  0.69558449  1
  Se  Se253  1  0.75044275  0.24839176  0.20120408  1
  Se  Se254  1  0.74964955  0.24625413  0.70216961  1
  Se  Se255  1  0.75980746  0.57571034  0.19063509  1
  Se  Se256  1  0.74754317  0.58730589  0.69866533  1
  Se  Se257  1  0.75287755  0.91478510  0.18851498  1
  Se  Se258  1  0.75717430  0.91281590  0.68909346  1
