# generated using pymatgen
data_In86Cu29Se144
_symmetry_space_group_name_H-M   'P 1'
_cell_length_a   17.57682252
_cell_length_b   17.57587885
_cell_length_c   23.43262644
_cell_angle_alpha   89.99533716
_cell_angle_beta   90.01252657
_cell_angle_gamma   89.99765730
_symmetry_Int_Tables_number   1
_chemical_formula_structural   In86Cu29Se144
_chemical_formula_sum   'In86 Cu29 Se144'
_cell_volume   7238.99663358
_cell_formula_units_Z   1
loop_
 _symmetry_equiv_pos_site_id
 _symmetry_equiv_pos_as_xyz
  1  'x, y, z'
loop_
 _atom_site_type_symbol
 _atom_site_label
 _atom_site_symmetry_multiplicity
 _atom_site_fract_x
 _atom_site_fract_y
 _atom_site_fract_z
 _atom_site_occupancy
  In  In0  1  -0.00344559  0.16946475  0.13566165  1
  In  In1  1  -0.00486843  0.17498606  0.63268066  1
  In  In2  1  0.00139648  0.48542576  0.12512360  1
  In  In3  1  -0.01030310  0.49731892  0.61570523  1
  In  In4  1  0.00784941  0.83612894  0.11879827  1
  In  In5  1  -0.00001144  0.84432470  0.62492695  1
  In  In6  1  0.31968909  0.16199294  0.12689183  1
  In  In7  1  0.33570307  0.16138612  0.63300514  1
  In  In8  1  0.33989424  0.50526831  0.11744606  1
  In  In9  1  0.31565860  0.49811115  0.62589145  1
  In  In10  1  0.31932537  0.84281819  0.13055326  1
  In  In11  1  0.33806826  0.83883171  0.62822468  1
  In  In12  1  0.68196509  0.16779213  0.12689635  1
  In  In13  1  0.66766795  0.16697939  0.62138383  1
  In  In14  1  0.65769419  0.50216435  0.12916942  1
  In  In15  1  0.67779352  0.48843200  0.63063523  1
  In  In16  1  0.67142847  0.81472224  0.11652716  1
  In  In17  1  0.66546090  0.83636331  0.62609431  1
  In  In18  1  0.16626270  0.00084001  0.36882048  1
  In  In19  1  0.16437270  -0.00784567  0.86161350  1
  In  In20  1  0.16413074  0.34904120  0.37990241  1
  In  In21  1  0.18170158  0.35277493  0.85176726  1
  In  In22  1  0.16593571  0.65108315  0.37402566  1
  In  In23  1  0.17010621  0.66533476  0.88321835  1
  In  In24  1  0.49626381  0.00195743  0.38185036  1
  In  In25  1  0.49830353  -0.00522211  0.86751422  1
  In  In26  1  0.50117681  0.31441197  0.37943059  1
  In  In27  1  0.50555096  0.34057308  0.86781474  1
  In  In28  1  0.50339452  0.68016466  0.37575748  1
  In  In29  1  0.50383587  0.65374625  0.87490871  1
  In  In30  1  0.84213043  -0.01015113  0.38477732  1
  In  In31  1  0.83504247  -0.00160004  0.86504664  1
  In  In32  1  0.83419096  0.33390627  0.37668133  1
  In  In33  1  0.83445327  0.33066112  0.86256288  1
  In  In34  1  0.84800754  0.66155630  0.39573091  1
  In  In35  1  0.83285350  0.67979164  0.87454435  1
  In  In36  1  -0.00677024  0.15645123  0.37461273  1
  In  In37  1  0.01413835  0.17078767  0.85753201  1
  In  In38  1  0.00562004  0.49656091  0.37974718  1
  In  In39  1  0.01072959  0.49951141  0.87336430  1
  In  In40  1  -0.01445792  0.83398114  0.37682244  1
  In  In41  1  -0.00132704  0.84014028  0.87646191  1
  In  In42  1  0.34483261  0.16099422  0.37889409  1
  In  In43  1  0.31748517  0.16388829  0.85757125  1
  In  In44  1  0.31805017  0.49773429  0.37637606  1
  In  In45  1  0.33782337  0.50468983  0.87634644  1
  In  In46  1  0.33845159  0.83989871  0.37062765  1
  In  In47  1  0.32331499  0.84005327  0.87629360  1
  In  In48  1  0.66248306  0.17463416  0.38338546  1
  In  In49  1  0.66705097  0.16655054  0.86288883  1
  In  In50  1  0.68430828  0.49758730  0.37391780  1
  In  In51  1  0.66211368  0.49255030  0.86587240  1
  In  In52  1  0.66660690  0.82932416  0.38505392  1
  In  In53  1  0.67301072  0.83751483  0.86598795  1
  In  In54  1  0.17144873  -0.00986605  0.12992803  1
  In  In55  1  0.15699746  0.01152084  0.65881101  1
  In  In56  1  0.15455433  0.32771626  0.12238221  1
  In  In57  1  0.14699103  0.35028888  0.64787380  1
  In  In58  1  0.17591973  0.67701164  0.11773001  1
  In  In59  1  0.16612032  0.66163831  0.62463125  1
  In  In60  1  0.48797812  -0.01162523  0.12060699  1
  In  In61  1  0.50102200  0.00516198  0.62485869  1
  In  In62  1  0.49363133  0.34624806  0.12429167  1
  In  In63  1  0.51280665  0.32193170  0.62868854  1
  In  In64  1  0.50279955  0.64895613  0.12276310  1
  In  In65  1  0.49717562  0.68710268  0.62391579  1
  In  In66  1  0.84540415  -0.00182543  0.12366724  1
  In  In67  1  0.82960421  0.00033055  0.62309458  1
  In  In68  1  0.83487407  0.33872765  0.14243541  1
  In  In69  1  0.83413477  0.33070321  0.62045605  1
  In  In70  1  0.82091986  0.67324934  0.12236298  1
  In  In71  1  0.82669856  0.65446397  0.61314299  1
  In  In72  1  0.83924126  0.16635073  -0.00512790  1
  In  In73  1  0.66545031  0.00248997  0.25044000  1
  In  In74  1  0.16271442  0.16582800  -0.00736004  1
  In  In75  1  0.33071417  0.32946267  0.25302380  1
  In  In76  1  0.33554455  0.67030714  0.75483376  1
  In  In77  1  0.49706159  0.82591378  -0.00738476  1
  In  In78  1  0.66972607  0.66315986  0.24987203  1
  In  In79  1  0.83227269  0.50647333  0.00395540  1
  In  In80  1  -0.00120954  0.66708615  0.75155461  1
  In  In81  1  0.16999866  0.83488500  0.51062289  1
  In  In82  1  0.49316001  0.17261256  -0.00189290  1
  In  In83  1  0.16758101  0.17064333  0.51602891  1
  In  In84  1  -0.00016567  0.66487461  0.25589619  1
  In  In85  1  0.50100492  0.50125823  0.50290301  1
  Cu  Cu86  1  0.67374945  0.33344423  0.50309778  1
  Cu  Cu87  1  0.00172150  0.33577143  -0.00066258  1
  Cu  Cu88  1  0.33401155  0.34172547  -0.00944366  1
  Cu  Cu89  1  0.00474097  -0.00227577  -0.00192244  1
  Cu  Cu90  1  0.83146533  0.83310331  0.74643605  1
  Cu  Cu91  1  -0.00204945  0.00077077  0.50379141  1
  Cu  Cu92  1  0.49795769  0.50178066  0.74802654  1
  Cu  Cu93  1  0.33530943  0.00112684  0.50565791  1
  Cu  Cu94  1  0.50057422  0.15879205  0.25544872  1
  Cu  Cu95  1  0.50691467  0.83912820  0.74812232  1
  Cu  Cu96  1  0.00482129  0.66907271  -0.00431274  1
  Cu  Cu97  1  0.66376501  0.00172362  0.50436400  1
  Cu  Cu98  1  0.49942510  0.49427195  0.24814152  1
  Cu  Cu99  1  0.16590206  0.83553187  0.24535509  1
  Cu  Cu100  1  0.48908903  0.83284481  0.25044188  1
  Cu  Cu101  1  0.66164774  0.33957589  -0.00345099  1
  Cu  Cu102  1  0.50466399  0.17017771  0.74680847  1
  Cu  Cu103  1  0.66365802  0.67130161  0.50259436  1
  Cu  Cu104  1  0.33103631  0.33174165  0.50305401  1
  Cu  Cu105  1  0.33457243  0.66653871  0.00047403  1
  Cu  Cu106  1  0.33053242  0.66893405  0.50362174  1
  Cu  Cu107  1  0.83315154  0.49703717  0.74118514  1
  Cu  Cu108  1  0.16627172  0.50034186  0.24970035  1
  Cu  Cu109  1  0.83127369  0.83458250  0.25533695  1
  Cu  Cu110  1  0.66877280  -0.00808523  -0.01216774  1
  Cu  Cu111  1  0.16151834  0.16568585  0.25215997  1
  Cu  Cu112  1  0.82940383  0.16451562  0.74154593  1
  Cu  Cu113  1  0.83307207  0.16885435  0.25664128  1
  Cu  Cu114  1  0.00128925  0.33063551  0.50374140  1
  Se  Se115  1  0.07536258  0.08329041  0.06138196  1
  Se  Se116  1  0.08049834  0.07103026  0.56847479  1
  Se  Se117  1  0.08789070  0.41826848  0.05014178  1
  Se  Se118  1  0.08630374  0.41165459  0.55790264  1
  Se  Se119  1  0.08824474  0.75403057  0.04936386  1
  Se  Se120  1  0.07276564  0.74212783  0.55932056  1
  Se  Se121  1  0.40330069  0.07887363  0.05463898  1
  Se  Se122  1  0.41652794  0.08944649  0.55614850  1
  Se  Se123  1  0.41920941  0.41941945  0.04737076  1
  Se  Se124  1  0.41304619  0.41174532  0.56386575  1
  Se  Se125  1  0.41257175  0.74586894  0.06423016  1
  Se  Se126  1  0.41095644  0.75843593  0.55172835  1
  Se  Se127  1  0.74540822  0.07205622  0.05211089  1
  Se  Se128  1  0.75154698  0.08553819  0.55212995  1
  Se  Se129  1  0.74756111  0.40696161  0.06160308  1
  Se  Se130  1  0.75614302  0.42113268  0.55156483  1
  Se  Se131  1  0.75944200  0.75268297  0.04366444  1
  Se  Se132  1  0.74794978  0.75423732  0.55515986  1
  Se  Se133  1  0.25738901  0.25922519  0.05248796  1
  Se  Se134  1  0.25334086  0.26433444  0.57291155  1
  Se  Se135  1  0.24878068  0.58180266  0.05167074  1
  Se  Se136  1  0.24611200  0.58330823  0.55153050  1
  Se  Se137  1  0.24809348  0.91912136  0.05384933  1
  Se  Se138  1  0.24845191  0.93495026  0.56928751  1
  Se  Se139  1  0.59072361  0.25457750  0.05997778  1
  Se  Se140  1  0.58472006  0.24905782  0.54940927  1
  Se  Se141  1  0.60113655  0.59197169  0.05455798  1
  Se  Se142  1  0.58774045  0.58953601  0.56557167  1
  Se  Se143  1  0.59066655  0.91910070  0.05444359  1
  Se  Se144  1  0.57997906  0.91704044  0.55628090  1
  Se  Se145  1  0.92012445  0.25895573  0.06063508  1
  Se  Se146  1  0.91818684  0.24440729  0.55364217  1
  Se  Se147  1  0.92828113  0.59376167  0.06294790  1
  Se  Se148  1  0.91882885  0.58460280  0.54542930  1
  Se  Se149  1  0.91873392  0.91602755  0.05107718  1
  Se  Se150  1  0.91291826  0.91589642  0.55353544  1
  Se  Se151  1  0.08248423  0.25018483  0.44336909  1
  Se  Se152  1  0.07947862  0.26164712  0.93411375  1
  Se  Se153  1  0.07863213  0.58864275  0.44667959  1
  Se  Se154  1  0.08524759  0.57885040  0.94798124  1
  Se  Se155  1  0.08177881  0.92282374  0.44397197  1
  Se  Se156  1  0.08959168  0.91962424  0.94206157  1
  Se  Se157  1  0.41415766  0.24650777  0.45297435  1
  Se  Se158  1  0.40542795  0.25439841  0.93071928  1
  Se  Se159  1  0.41010648  0.58916328  0.44068056  1
  Se  Se160  1  0.41967041  0.58347905  0.94886008  1
  Se  Se161  1  0.41247185  0.91640821  0.44820785  1
  Se  Se162  1  0.41015904  0.92830191  0.94466237  1
  Se  Se163  1  0.75569397  0.24889609  0.44872728  1
  Se  Se164  1  0.74229368  0.25716354  0.93948063  1
  Se  Se165  1  0.74495351  0.58423587  0.45066352  1
  Se  Se166  1  0.74583918  0.58471047  0.93520599  1
  Se  Se167  1  0.74689404  0.91754861  0.44985998  1
  Se  Se168  1  0.75796373  0.91492083  0.93750255  1
  Se  Se169  1  0.24994301  0.07948551  0.44696893  1
  Se  Se170  1  0.25340933  0.07648374  0.93559345  1
  Se  Se171  1  0.24831396  0.41921890  0.45414073  1
  Se  Se172  1  0.24521534  0.41984284  0.93819574  1
  Se  Se173  1  0.25179176  0.74819704  0.43989206  1
  Se  Se174  1  0.25327066  0.75219923  0.94817074  1
  Se  Se175  1  0.58134361  0.08427042  0.44760348  1
  Se  Se176  1  0.58777772  0.08247549  0.93944563  1
  Se  Se177  1  0.58896187  0.41060063  0.44127903  1
  Se  Se178  1  0.57979259  0.42180661  0.94317814  1
  Se  Se179  1  0.57610625  0.75425342  0.45344670  1
  Se  Se180  1  0.59482956  0.74339253  0.93698224  1
  Se  Se181  1  0.91480704  0.08485305  0.45152689  1
  Se  Se182  1  0.93161152  0.08115275  0.93480395  1
  Se  Se183  1  0.92018089  0.41334361  0.44653562  1
  Se  Se184  1  0.91446447  0.41090959  0.94083594  1
  Se  Se185  1  0.91286130  0.76463765  0.45530990  1
  Se  Se186  1  0.91990442  0.75202237  0.94496139  1
  Se  Se187  1  0.24166305  0.24203144  0.31670025  1
  Se  Se188  1  0.24300507  0.24954395  0.78926101  1
  Se  Se189  1  0.25301414  0.58269143  0.29982846  1
  Se  Se190  1  0.24011845  0.57822417  0.80622476  1
  Se  Se191  1  0.24950155  0.91700935  0.30274208  1
  Se  Se192  1  0.26101595  0.91864455  0.79741113  1
  Se  Se193  1  0.58384834  0.24532744  0.30383859  1
  Se  Se194  1  0.58718212  0.25654789  0.79947775  1
  Se  Se195  1  0.57657203  0.57496681  0.31190142  1
  Se  Se196  1  0.58454070  0.58443646  0.79836383  1
  Se  Se197  1  0.57885019  0.90693327  0.30909676  1
  Se  Se198  1  0.59080907  0.92400052  0.79987798  1
  Se  Se199  1  0.92011724  0.25010001  0.30838103  1
  Se  Se200  1  0.91532258  0.24560802  0.79630660  1
  Se  Se201  1  0.90705474  0.57724178  0.31312582  1
  Se  Se202  1  0.90617652  0.57451435  0.80999188  1
  Se  Se203  1  0.91663059  0.92091213  0.30308253  1
  Se  Se204  1  0.91930796  0.91276276  0.79933272  1
  Se  Se205  1  0.07789770  0.07998109  0.30306098  1
  Se  Se206  1  0.07819157  0.07119630  0.79417024  1
  Se  Se207  1  0.08337136  0.41807938  0.30353584  1
  Se  Se208  1  0.06310552  0.40534550  0.80028070  1
  Se  Se209  1  0.09059024  0.75961934  0.31301042  1
  Se  Se210  1  0.09126398  0.75274694  0.81153686  1
  Se  Se211  1  0.41538547  0.07601605  0.30535933  1
  Se  Se212  1  0.42342381  0.08873705  0.80358654  1
  Se  Se213  1  0.42236098  0.41774943  0.31455260  1
  Se  Se214  1  0.41475373  0.42190033  0.80379068  1
  Se  Se215  1  0.41197062  0.74435446  0.30382421  1
  Se  Se216  1  0.42886984  0.76068099  0.81333505  1
  Se  Se217  1  0.75401697  0.08511491  0.31582117  1
  Se  Se218  1  0.74952938  0.08083205  0.79836184  1
  Se  Se219  1  0.74724863  0.40665112  0.30409634  1
  Se  Se220  1  0.74962570  0.41472279  0.79752394  1
  Se  Se221  1  0.75828061  0.74893771  0.31555704  1
  Se  Se222  1  0.74973006  0.74678783  0.79806010  1
  Se  Se223  1  0.24566326  0.08205427  0.19978725  1
  Se  Se224  1  0.27020016  0.07396873  0.70785184  1
  Se  Se225  1  0.24595840  0.41823789  0.18827430  1
  Se  Se226  1  0.25242021  0.42021906  0.70471958  1
  Se  Se227  1  0.25008471  0.74713689  0.19813131  1
  Se  Se228  1  0.24327562  0.75510194  0.69224057  1
  Se  Se229  1  0.57483591  0.08694263  0.18422980  1
  Se  Se230  1  0.58716271  0.08552436  0.69331801  1
  Se  Se231  1  0.58375047  0.41079317  0.19741096  1
  Se  Se232  1  0.58273550  0.41712446  0.69608935  1
  Se  Se233  1  0.57450835  0.75481055  0.19211281  1
  Se  Se234  1  0.58619283  0.74995457  0.69778215  1
  Se  Se235  1  0.91030904  0.08361789  0.19911279  1
  Se  Se236  1  0.91550413  0.07934253  0.69328192  1
  Se  Se237  1  0.92648623  0.41754804  0.20318490  1
  Se  Se238  1  0.91788942  0.41375640  0.69046654  1
  Se  Se239  1  0.91103288  0.75489054  0.19264742  1
  Se  Se240  1  0.90852360  0.74932582  0.68621037  1
  Se  Se241  1  0.08197848  0.25413193  0.20079616  1
  Se  Se242  1  0.10205004  0.22797032  0.69719734  1
  Se  Se243  1  0.08924821  0.58309446  0.18826812  1
  Se  Se244  1  0.08331119  0.57334751  0.69122931  1
  Se  Se245  1  0.07656731  0.91709388  0.19635275  1
  Se  Se246  1  0.08416249  0.90022527  0.70331089  1
  Se  Se247  1  0.42222376  0.24010628  0.19103538  1
  Se  Se248  1  0.41830465  0.25348125  0.69647463  1
  Se  Se249  1  0.41668579  0.57803379  0.19583542  1
  Se  Se250  1  0.41977421  0.58275734  0.68621552  1
  Se  Se251  1  0.41026703  0.92100852  0.19846119  1
  Se  Se252  1  0.42087635  0.92028702  0.69642315  1
  Se  Se253  1  0.74770906  0.24954877  0.20303659  1
  Se  Se254  1  0.74799366  0.25286435  0.69079509  1
  Se  Se255  1  0.76301781  0.57205895  0.19398817  1
  Se  Se256  1  0.75053001  0.58687275  0.69416781  1
  Se  Se257  1  0.75071130  0.90722438  0.18933654  1
  Se  Se258  1  0.74809462  0.91934621  0.69504600  1
