# generated using pymatgen
data_In86Cu29Se144
_symmetry_space_group_name_H-M   'P 1'
_cell_length_a   17.58583894
_cell_length_b   17.57731922
_cell_length_c   23.43235452
_cell_angle_alpha   90.00940068
_cell_angle_beta   89.95953586
_cell_angle_gamma   89.99698383
_symmetry_Int_Tables_number   1
_chemical_formula_structural   In86Cu29Se144
_chemical_formula_sum   'In86 Cu29 Se144'
_cell_volume   7243.21782516
_cell_formula_units_Z   1
loop_
 _symmetry_equiv_pos_site_id
 _symmetry_equiv_pos_as_xyz
  1  'x, y, z'
loop_
 _atom_site_type_symbol
 _atom_site_label
 _atom_site_symmetry_multiplicity
 _atom_site_fract_x
 _atom_site_fract_y
 _atom_site_fract_z
 _atom_site_occupancy
  In  In0  1  -0.00825100  0.19035302  0.12607268  1
  In  In1  1  0.00455889  0.18438027  0.61590609  1
  In  In2  1  0.00293084  0.50437959  0.11827512  1
  In  In3  1  -0.01070055  0.49134143  0.60399904  1
  In  In4  1  -0.00354100  0.81477937  0.12612591  1
  In  In5  1  -0.00302014  0.82200470  0.60836855  1
  In  In6  1  0.33367712  0.16356301  0.12408488  1
  In  In7  1  0.32193224  0.16145911  0.63179698  1
  In  In8  1  0.32263031  0.51530885  0.12586008  1
  In  In9  1  0.34133663  0.50976663  0.61325133  1
  In  In10  1  0.33191902  0.82493874  0.11547844  1
  In  In11  1  0.32667641  0.83362197  0.63013725  1
  In  In12  1  0.67312340  0.15641836  0.13099042  1
  In  In13  1  0.67411006  0.15835451  0.63411607  1
  In  In14  1  0.67930528  0.48776112  0.13426008  1
  In  In15  1  0.67061966  0.49801016  0.62456950  1
  In  In16  1  0.66767997  0.83953941  0.12863982  1
  In  In17  1  0.66566605  0.83249039  0.62970036  1
  In  In18  1  0.16190365  0.00527148  0.38319124  1
  In  In19  1  0.16729587  -0.01474987  0.87259177  1
  In  In20  1  0.13775789  0.35287592  0.40409230  1
  In  In21  1  0.16342700  0.35099868  0.87283117  1
  In  In22  1  0.16076067  0.66737634  0.38690896  1
  In  In23  1  0.17285268  0.65897130  0.87153283  1
  In  In24  1  0.50842059  -0.00200252  0.37215117  1
  In  In25  1  0.48981377  -0.00665057  0.86337978  1
  In  In26  1  0.51846060  0.33416533  0.37432945  1
  In  In27  1  0.51186976  0.32307072  0.87120464  1
  In  In28  1  0.49922545  0.65394348  0.37843014  1
  In  In29  1  0.50886108  0.67397482  0.87032104  1
  In  In30  1  0.83039341  0.00790397  0.37971004  1
  In  In31  1  0.83792308  0.01618937  0.87412354  1
  In  In32  1  0.82533650  0.34212363  0.38438782  1
  In  In33  1  0.83307399  0.33728450  0.86958220  1
  In  In34  1  0.83322742  0.66794608  0.37833634  1
  In  In35  1  0.82058716  0.65986922  0.87126744  1
  In  In36  1  -0.01279187  0.18993571  0.40095390  1
  In  In37  1  -0.01710592  0.17383291  0.87819143  1
  In  In38  1  -0.01115786  0.51014990  0.38833948  1
  In  In39  1  0.00227480  0.49244125  0.87712880  1
  In  In40  1  0.00956052  0.81444054  0.39136479  1
  In  In41  1  0.01004211  0.84188340  0.87703061  1
  In  In42  1  0.32637855  0.16049760  0.37885881  1
  In  In43  1  0.34690298  0.16241196  0.86682612  1
  In  In44  1  0.33244321  0.51611074  0.39250080  1
  In  In45  1  0.31591126  0.49940317  0.87196482  1
  In  In46  1  0.32616494  0.82037980  0.38150155  1
  In  In47  1  0.33393118  0.82921604  0.86929154  1
  In  In48  1  0.67709456  0.18043832  0.36177863  1
  In  In49  1  0.67157724  0.17753596  0.85956491  1
  In  In50  1  0.66931714  0.50202930  0.37764120  1
  In  In51  1  0.67907252  0.50219714  0.86977563  1
  In  In52  1  0.67813486  0.84113921  0.36921960  1
  In  In53  1  0.65756234  0.82283528  0.87048542  1
  In  In54  1  0.18078690  -0.00394659  0.12494993  1
  In  In55  1  0.16674698  -0.00039157  0.62525871  1
  In  In56  1  0.15208683  0.35799572  0.13055251  1
  In  In57  1  0.15814195  0.33151997  0.61635546  1
  In  In58  1  0.15086056  0.65625451  0.11780258  1
  In  In59  1  0.17380611  0.66914355  0.60751494  1
  In  In60  1  0.52034043  -0.00184706  0.12089478  1
  In  In61  1  0.50268978  0.00121668  0.64232771  1
  In  In62  1  0.50558183  0.33868554  0.12904571  1
  In  In63  1  0.50067301  0.34816539  0.62958379  1
  In  In64  1  0.49708429  0.67893937  0.12448681  1
  In  In65  1  0.50653477  0.65939589  0.62900517  1
  In  In66  1  0.81879765  0.00175362  0.12398508  1
  In  In67  1  0.82759764  -0.00621280  0.62014525  1
  In  In68  1  0.83207429  0.32462004  0.11429128  1
  In  In69  1  0.83705893  0.33289161  0.61871000  1
  In  In70  1  0.84460826  0.65508578  0.13704126  1
  In  In71  1  0.82578265  0.65640636  0.61042680  1
  In  In72  1  0.83394285  0.83132406  0.00166449  1
  In  In73  1  0.50428861  0.16197921  -0.00744292  1
  In  In74  1  0.33524492  0.33530758  0.74989647  1
  In  In75  1  0.50254325  0.82866948  0.50430460  1
  In  In76  1  0.16154916  0.16506489  -0.00249838  1
  In  In77  1  -0.00012486  0.00292165  0.74864301  1
  In  In78  1  0.34063771  -0.00387638  0.25652359  1
  In  In79  1  0.33561106  0.66802632  0.25619886  1
  In  In80  1  0.33828539  0.33252096  0.25459943  1
  In  In81  1  0.50222916  0.17069584  0.50775111  1
  In  In82  1  -0.00440782  0.66195461  0.73173458  1
  In  In83  1  0.49537795  0.50378063  0.00472506  1
  In  In84  1  -0.00629829  0.34629088  0.26177499  1
  In  In85  1  -0.00050288  -0.00423241  0.25728633  1
  Cu  Cu86  1  0.33077923  -0.00665217  0.50520212  1
  Cu  Cu87  1  0.50536781  0.50519455  0.74908894  1
  Cu  Cu88  1  0.83615184  0.82717658  0.25387012  1
  Cu  Cu89  1  0.82882286  0.16473256  0.24837276  1
  Cu  Cu90  1  0.16569923  0.17280076  0.26325044  1
  Cu  Cu91  1  0.66798256  -0.00137892  -0.00227253  1
  Cu  Cu92  1  0.32858304  0.67163815  -0.00500772  1
  Cu  Cu93  1  0.00272428  0.00462161  -0.00013413  1
  Cu  Cu94  1  -0.00266268  -0.00079269  0.50287386  1
  Cu  Cu95  1  0.83663027  0.17326580  0.74665697  1
  Cu  Cu96  1  0.16792587  0.82593486  0.74653561  1
  Cu  Cu97  1  0.16424056  0.50035352  0.74380909  1
  Cu  Cu98  1  0.50973247  0.49639238  0.25577367  1
  Cu  Cu99  1  0.67187574  0.33094886  -0.00304842  1
  Cu  Cu100  1  0.51125951  0.83807494  0.24668872  1
  Cu  Cu101  1  0.00264234  0.66545774  -0.00185304  1
  Cu  Cu102  1  0.66882030  0.66338100  -0.00048921  1
  Cu  Cu103  1  0.66930004  0.00841386  0.50059695  1
  Cu  Cu104  1  0.49719287  0.82591013  0.74930142  1
  Cu  Cu105  1  0.16066024  0.82259933  0.25416125  1
  Cu  Cu106  1  0.82106946  0.83653122  0.74711106  1
  Cu  Cu107  1  0.67223920  0.33887693  0.49998940  1
  Cu  Cu108  1  0.82968351  0.49839546  0.25655797  1
  Cu  Cu109  1  0.83311460  0.49571232  0.74094376  1
  Cu  Cu110  1  0.67028004  0.66373180  0.50169769  1
  Cu  Cu111  1  0.16191020  0.16643137  0.74510666  1
  Cu  Cu112  1  0.33520529  -0.01265245  -0.00639999  1
  Cu  Cu113  1  0.31944014  0.33431216  0.00064905  1
  Cu  Cu114  1  0.33847007  0.33125835  0.50794916  1
  Se  Se115  1  0.07734856  0.08040641  0.06834210  1
  Se  Se116  1  0.07981474  0.08040536  0.55933089  1
  Se  Se117  1  0.07171331  0.41014387  0.05001934  1
  Se  Se118  1  0.08594148  0.41362374  0.54310593  1
  Se  Se119  1  0.08334755  0.75341628  0.04967216  1
  Se  Se120  1  0.09226193  0.75631766  0.54295792  1
  Se  Se121  1  0.41130324  0.07184696  0.05456512  1
  Se  Se122  1  0.41316296  0.07307100  0.56347936  1
  Se  Se123  1  0.40239917  0.40993006  0.06302555  1
  Se  Se124  1  0.42592980  0.41844632  0.55129912  1
  Se  Se125  1  0.41951660  0.74868269  0.04648756  1
  Se  Se126  1  0.41172496  0.74274377  0.56307456  1
  Se  Se127  1  0.74800049  0.08608405  0.05018183  1
  Se  Se128  1  0.75228924  0.08987536  0.55536851  1
  Se  Se129  1  0.74907861  0.41756169  0.05233180  1
  Se  Se130  1  0.75619779  0.42334387  0.55198069  1
  Se  Se131  1  0.74962910  0.74030063  0.06370121  1
  Se  Se132  1  0.74382408  0.75669966  0.55451306  1
  Se  Se133  1  0.24506538  0.25603002  0.06526049  1
  Se  Se134  1  0.25478922  0.24690680  0.55841905  1
  Se  Se135  1  0.24676761  0.58651582  0.04903696  1
  Se  Se136  1  0.24154119  0.56712826  0.54608705  1
  Se  Se137  1  0.24824068  0.91199966  0.05031567  1
  Se  Se138  1  0.24597223  0.91192787  0.55733463  1
  Se  Se139  1  0.58775350  0.25354502  0.05682430  1
  Se  Se140  1  0.59451632  0.26046563  0.56469894  1
  Se  Se141  1  0.59117273  0.58587080  0.06491810  1
  Se  Se142  1  0.58635654  0.58187152  0.55558178  1
  Se  Se143  1  0.58878858  0.90999571  0.04918598  1
  Se  Se144  1  0.58500835  0.93061531  0.55989930  1
  Se  Se145  1  0.91898915  0.25024147  0.04443535  1
  Se  Se146  1  0.91614634  0.25330607  0.54543151  1
  Se  Se147  1  0.91524268  0.58900497  0.05348271  1
  Se  Se148  1  0.93091236  0.60198570  0.54569366  1
  Se  Se149  1  0.92394971  0.92305215  0.06276732  1
  Se  Se150  1  0.91068663  0.91413588  0.55058992  1
  Se  Se151  1  0.11262575  0.22272931  0.45033449  1
  Se  Se152  1  0.07757717  0.25991298  0.93943795  1
  Se  Se153  1  0.08206578  0.58110012  0.45501997  1
  Se  Se154  1  0.08379053  0.58402199  0.94024197  1
  Se  Se155  1  0.08300047  0.91814775  0.44916277  1
  Se  Se156  1  0.08695857  0.91892863  0.95164586  1
  Se  Se157  1  0.41523477  0.25513331  0.44073043  1
  Se  Se158  1  0.40666486  0.26060190  0.94276525  1
  Se  Se159  1  0.42203338  0.59232661  0.45794397  1
  Se  Se160  1  0.40905414  0.58705914  0.93707045  1
  Se  Se161  1  0.41271864  0.92213026  0.44142194  1
  Se  Se162  1  0.42087899  0.90969438  0.93901863  1
  Se  Se163  1  0.74597898  0.24619195  0.44626702  1
  Se  Se164  1  0.74853640  0.24907342  0.93694517  1
  Se  Se165  1  0.75404704  0.57976795  0.44824425  1
  Se  Se166  1  0.75153403  0.57908707  0.94836559  1
  Se  Se167  1  0.74725397  0.92084203  0.44678081  1
  Se  Se168  1  0.74965169  0.91958789  0.93616755  1
  Se  Se169  1  0.25138123  0.08034056  0.45209416  1
  Se  Se170  1  0.25924286  0.07831039  0.93852768  1
  Se  Se171  1  0.25895385  0.41231933  0.44927989  1
  Se  Se172  1  0.24228846  0.42352669  0.94953008  1
  Se  Se173  1  0.25232912  0.74342676  0.45365839  1
  Se  Se174  1  0.24503610  0.75226053  0.93920052  1
  Se  Se175  1  0.58927293  0.08699314  0.44037073  1
  Se  Se176  1  0.59237573  0.07501669  0.93071026  1
  Se  Se177  1  0.58521380  0.41978248  0.44832452  1
  Se  Se178  1  0.58543889  0.41328230  0.94310523  1
  Se  Se179  1  0.59377450  0.74696056  0.43941713  1
  Se  Se180  1  0.58462506  0.74701483  0.94890638  1
  Se  Se181  1  0.91207160  0.08426752  0.45279814  1
  Se  Se182  1  0.91477311  0.08645874  0.95205133  1
  Se  Se183  1  0.93832840  0.39145308  0.44319260  1
  Se  Se184  1  0.89815119  0.43240150  0.93900144  1
  Se  Se185  1  0.89865113  0.76059555  0.44983288  1
  Se  Se186  1  0.92196072  0.74384813  0.93552416  1
  Se  Se187  1  0.24216399  0.25758635  0.32014034  1
  Se  Se188  1  0.24100111  0.24539147  0.81038608  1
  Se  Se189  1  0.24519610  0.57930832  0.31354850  1
  Se  Se190  1  0.24977218  0.58274618  0.79515402  1
  Se  Se191  1  0.24024370  0.90747215  0.31088073  1
  Se  Se192  1  0.24885446  0.91221620  0.79947937  1
  Se  Se193  1  0.57956727  0.24954642  0.29846991  1
  Se  Se194  1  0.57421813  0.24433179  0.79331688  1
  Se  Se195  1  0.58797764  0.58642680  0.30655003  1
  Se  Se196  1  0.58971541  0.58453392  0.80569196  1
  Se  Se197  1  0.59100447  0.92249925  0.30101414  1
  Se  Se198  1  0.58223744  0.91078288  0.80155829  1
  Se  Se199  1  0.90775638  0.24264293  0.31187234  1
  Se  Se200  1  0.91988876  0.25552559  0.80009953  1
  Se  Se201  1  0.91420951  0.58068625  0.30921972  1
  Se  Se202  1  0.91211538  0.57847966  0.80183682  1
  Se  Se203  1  0.91372419  0.90607237  0.31808425  1
  Se  Se204  1  0.90826535  0.90851842  0.80787849  1
  Se  Se205  1  0.07713421  0.09598615  0.31762028  1
  Se  Se206  1  0.08675309  0.09103324  0.81422608  1
  Se  Se207  1  0.09003697  0.43232102  0.31593236  1
  Se  Se208  1  0.07983266  0.41994626  0.79792011  1
  Se  Se209  1  0.08050335  0.74185374  0.31048037  1
  Se  Se210  1  0.07938820  0.74921168  0.80299254  1
  Se  Se211  1  0.42684221  0.09572786  0.30892043  1
  Se  Se212  1  0.41683803  0.08205243  0.79389422  1
  Se  Se213  1  0.42027858  0.42829609  0.31703244  1
  Se  Se214  1  0.42579179  0.42564100  0.81277209  1
  Se  Se215  1  0.43036326  0.76240866  0.31042127  1
  Se  Se216  1  0.41360944  0.74115034  0.80177185  1
  Se  Se217  1  0.74998860  0.07770157  0.30187937  1
  Se  Se218  1  0.75633630  0.08477530  0.79862958  1
  Se  Se219  1  0.74679937  0.41279770  0.30747405  1
  Se  Se220  1  0.74854911  0.41476481  0.79691413  1
  Se  Se221  1  0.74872748  0.74438579  0.30421508  1
  Se  Se222  1  0.74673046  0.74671769  0.80149895  1
  Se  Se223  1  0.24325014  0.09256012  0.20130786  1
  Se  Se224  1  0.24530592  0.07561106  0.70169575  1
  Se  Se225  1  0.24634852  0.42959350  0.19995571  1
  Se  Se226  1  0.24858834  0.42003539  0.68475140  1
  Se  Se227  1  0.24442407  0.75063712  0.19038817  1
  Se  Se228  1  0.24440548  0.73937166  0.69119281  1
  Se  Se229  1  0.57985533  0.08307105  0.19608284  1
  Se  Se230  1  0.58311004  0.08992041  0.70400269  1
  Se  Se231  1  0.58865504  0.41058407  0.20156380  1
  Se  Se232  1  0.58929712  0.41960812  0.69942110  1
  Se  Se233  1  0.58766674  0.74817798  0.19429198  1
  Se  Se234  1  0.58531942  0.74631172  0.69685059  1
  Se  Se235  1  0.91537536  0.08769832  0.19044076  1
  Se  Se236  1  0.91480067  0.09082341  0.68517498  1
  Se  Se237  1  0.90688247  0.42112766  0.18963527  1
  Se  Se238  1  0.92129766  0.41914755  0.68654502  1
  Se  Se239  1  0.92328547  0.74390433  0.20465490  1
  Se  Se240  1  0.90130910  0.75993960  0.68443839  1
  Se  Se241  1  0.08863634  0.25286527  0.20049997  1
  Se  Se242  1  0.08335880  0.25439765  0.69427727  1
  Se  Se243  1  0.07940575  0.58051429  0.19335994  1
  Se  Se244  1  0.08822971  0.57319536  0.67590591  1
  Se  Se245  1  0.09013908  0.90977614  0.19208145  1
  Se  Se246  1  0.07937746  0.90267972  0.68952341  1
  Se  Se247  1  0.42436360  0.23982016  0.19144227  1
  Se  Se248  1  0.42244571  0.24451378  0.68973839  1
  Se  Se249  1  0.42777355  0.57562195  0.19482844  1
  Se  Se250  1  0.41548446  0.57924812  0.69473506  1
  Se  Se251  1  0.42120626  0.90849991  0.18693056  1
  Se  Se252  1  0.41326681  0.91175028  0.69902073  1
  Se  Se253  1  0.75354012  0.25188058  0.19141846  1
  Se  Se254  1  0.75380528  0.25634559  0.69249866  1
  Se  Se255  1  0.74793961  0.58321765  0.20171453  1
  Se  Se256  1  0.75277342  0.58663359  0.69156490  1
  Se  Se257  1  0.75650726  0.91372013  0.19899033  1
  Se  Se258  1  0.74270572  0.92554760  0.69586701  1
